MODEL 1
REMARK VINA RESULT:      -8.2      0.000      0.000
REMARK  Name = 
REMARK  6 active torsions:
REMARK  status: ('A' for Active; 'I' for Inactive)
REMARK    1  A    between atoms: C_2  and  O_3
REMARK    2  A    between atoms: C_2  and  C_4
REMARK    3  A    between atoms: C_10  and  C_11
REMARK    4  A    between atoms: C_11  and  C_13
REMARK    5  A    between atoms: C_13  and  C_14
REMARK    6  A    between atoms: C_14  and  C_16
REMARK                            x       y       z     vdW  Elec       q    Type
REMARK                         _______ _______ _______ _____ _____    ______ ____
ROOT
ATOM      1  C   UNL     1       3.899   3.222  19.481  0.00  0.00    +0.000 A 
ATOM      2  C   UNL     1       2.773   3.577  20.230  0.00  0.00    +0.000 A 
ATOM      3  C   UNL     1       2.178   4.834  20.084  0.00  0.00    +0.000 A 
ATOM      4  C   UNL     1       2.751   5.720  19.165  0.00  0.00    +0.000 A 
ATOM      5  N   UNL     1       2.381   7.001  18.833  0.00  0.00    +0.000 N 
ATOM      6  C   UNL     1       3.239   7.515  17.897  0.00  0.00    +0.000 A 
ATOM      7  C   UNL     1       4.177   6.546  17.586  0.00  0.00    +0.000 A 
ATOM      8  C   UNL     1       3.864   5.396  18.387  0.00  0.00    +0.000 A 
ATOM      9  C   UNL     1       4.439   4.113  18.538  0.00  0.00    +0.000 A 
ATOM     10  H   UNL     1       1.588   7.489  19.231  0.00  0.00    +0.000 HD
ENDROOT
BRANCH   1  12
ATOM     11  O   UNL     1       5.192   1.603  20.649  0.00  0.00    +0.000 OA
ATOM     12  C   UNL     1       4.474   1.872  19.701  0.00  0.00    +0.000 C 
BRANCH  12  13
ATOM     13  O   UNL     1       4.190   0.993  18.716  0.00  0.00    +0.000 OA
ATOM     14  H   UNL     1       4.483   0.078  18.880  0.00  0.00    +0.000 HD
ENDBRANCH  12  13
ENDBRANCH   1  12
BRANCH   7  15
ATOM     15  C   UNL     1       5.283   6.691  16.634  0.00  0.00    +0.000 C 
ATOM     16  O   UNL     1       5.075   6.947  15.448  0.00  0.00    +0.000 OA
BRANCH  15  17
ATOM     17  C   UNL     1       6.694   6.508  17.135  0.00  0.00    +0.000 C 
BRANCH  17  18
ATOM     18  C   UNL     1       7.269   5.173  16.726  0.00  0.00    +0.000 C 
ATOM     19  O   UNL     1       7.910   4.471  17.507  0.00  0.00    +0.000 OA
BRANCH  18  20
ATOM     20  C   UNL     1       7.001   4.734  15.387  0.00  0.00    +0.000 A 
ATOM     21  N   UNL     1       6.208   3.747  15.027  0.00  0.00    +0.000 NA
ATOM     22  N   UNL     1       6.257   3.709  13.652  0.00  0.00    +0.000 NA
ATOM     23  N   UNL     1       7.059   4.652  13.178  0.00  0.00    +0.000 NA
ATOM     24  N   UNL     1       7.525   5.291  14.258  0.00  0.00    +0.000 N 
ATOM     25  H   UNL     1       8.173   6.065  14.162  0.00  0.00    +0.000 HD
ENDBRANCH  18  20
ENDBRANCH  17  18
ENDBRANCH  15  17
ENDBRANCH   7  15
TORSDOF 6
ENDMDL
MODEL 2
REMARK VINA RESULT:      -8.1      2.079      2.977
REMARK  Name = 
REMARK  6 active torsions:
REMARK  status: ('A' for Active; 'I' for Inactive)
REMARK    1  A    between atoms: C_2  and  O_3
REMARK    2  A    between atoms: C_2  and  C_4
REMARK    3  A    between atoms: C_10  and  C_11
REMARK    4  A    between atoms: C_11  and  C_13
REMARK    5  A    between atoms: C_13  and  C_14
REMARK    6  A    between atoms: C_14  and  C_16
REMARK                            x       y       z     vdW  Elec       q    Type
REMARK                         _______ _______ _______ _____ _____    ______ ____
ROOT
ATOM      1  C   UNL     1       2.490   3.661  18.047  0.00  0.00    +0.000 A 
ATOM      2  C   UNL     1       1.819   4.843  18.374  0.00  0.00    +0.000 A 
ATOM      3  C   UNL     1       2.425   6.090  18.192  0.00  0.00    +0.000 A 
ATOM      4  C   UNL     1       3.725   6.109  17.675  0.00  0.00    +0.000 A 
ATOM      5  N   UNL     1       4.547   7.177  17.406  0.00  0.00    +0.000 N 
ATOM      6  C   UNL     1       5.754   6.738  16.928  0.00  0.00    +0.000 A 
ATOM      7  C   UNL     1       5.718   5.356  16.853  0.00  0.00    +0.000 A 
ATOM      8  C   UNL     1       4.421   4.951  17.321  0.00  0.00    +0.000 A 
ATOM      9  C   UNL     1       3.782   3.702  17.497  0.00  0.00    +0.000 A 
ATOM     10  H   UNL     1       4.292   8.145  17.550  0.00  0.00    +0.000 HD
ENDROOT
BRANCH   1  12
ATOM     11  O   UNL     1       0.570   2.309  18.425  0.00  0.00    +0.000 OA
ATOM     12  C   UNL     1       1.778   2.380  18.278  0.00  0.00    +0.000 C 
BRANCH  12  13
ATOM     13  O   UNL     1       2.600   1.313  18.385  0.00  0.00    +0.000 OA
ATOM     14  H   UNL     1       2.401   0.710  19.124  0.00  0.00    +0.000 HD
ENDBRANCH  12  13
ENDBRANCH   1  12
BRANCH   7  15
ATOM     15  C   UNL     1       6.809   4.488  16.400  0.00  0.00    +0.000 C 
ATOM     16  O   UNL     1       7.926   4.546  16.914  0.00  0.00    +0.000 OA
BRANCH  15  17
ATOM     17  C   UNL     1       6.541   3.522  15.274  0.00  0.00    +0.000 C 
BRANCH  17  18
ATOM     18  C   UNL     1       6.523   4.212  13.931  0.00  0.00    +0.000 C 
ATOM     19  O   UNL     1       7.070   5.299  13.748  0.00  0.00    +0.000 OA
BRANCH  18  20
ATOM     20  C   UNL     1       5.871   3.523  12.856  0.00  0.00    +0.000 A 
ATOM     21  N   UNL     1       4.692   3.802  12.341  0.00  0.00    +0.000 NA
ATOM     22  N   UNL     1       4.495   2.886  11.333  0.00  0.00    +0.000 NA
ATOM     23  N   UNL     1       5.530   2.063  11.229  0.00  0.00    +0.000 NA
ATOM     24  N   UNL     1       6.388   2.457  12.179  0.00  0.00    +0.000 N 
ATOM     25  H   UNL     1       7.271   1.977  12.309  0.00  0.00    +0.000 HD
ENDBRANCH  18  20
ENDBRANCH  17  18
ENDBRANCH  15  17
ENDBRANCH   7  15
TORSDOF 6
ENDMDL
MODEL 3
REMARK VINA RESULT:      -8.0      3.629      6.517
REMARK  Name = 
REMARK  6 active torsions:
REMARK  status: ('A' for Active; 'I' for Inactive)
REMARK    1  A    between atoms: C_2  and  O_3
REMARK    2  A    between atoms: C_2  and  C_4
REMARK    3  A    between atoms: C_10  and  C_11
REMARK    4  A    between atoms: C_11  and  C_13
REMARK    5  A    between atoms: C_13  and  C_14
REMARK    6  A    between atoms: C_14  and  C_16
REMARK                            x       y       z     vdW  Elec       q    Type
REMARK                         _______ _______ _______ _____ _____    ______ ____
ROOT
ATOM      1  C   UNL     1       5.862   3.528  12.635  0.00  0.00    +0.000 A 
ATOM      2  C   UNL     1       7.084   4.134  12.331  0.00  0.00    +0.000 A 
ATOM      3  C   UNL     1       7.732   4.954  13.259  0.00  0.00    +0.000 A 
ATOM      4  C   UNL     1       7.112   5.146  14.499  0.00  0.00    +0.000 A 
ATOM      5  N   UNL     1       7.517   5.896  15.577  0.00  0.00    +0.000 N 
ATOM      6  C   UNL     1       6.590   5.822  16.582  0.00  0.00    +0.000 A 
ATOM      7  C   UNL     1       5.566   4.985  16.172  0.00  0.00    +0.000 A 
ATOM      8  C   UNL     1       5.900   4.545  14.846  0.00  0.00    +0.000 A 
ATOM      9  C   UNL     1       5.271   3.705  13.898  0.00  0.00    +0.000 A 
ATOM     10  H   UNL     1       8.377   6.429  15.612  0.00  0.00    +0.000 HD
ENDROOT
BRANCH   1  12
ATOM     11  O   UNL     1       4.178   2.959  11.054  0.00  0.00    +0.000 OA
ATOM     12  C   UNL     1       5.236   2.678  11.591  0.00  0.00    +0.000 C 
BRANCH  12  13
ATOM     13  O   UNL     1       5.909   1.533  11.347  0.00  0.00    +0.000 OA
ATOM     14  H   UNL     1       6.871   1.580  11.492  0.00  0.00    +0.000 HD
ENDBRANCH  12  13
ENDBRANCH   1  12
BRANCH   7  15
ATOM     15  C   UNL     1       4.370   4.642  16.947  0.00  0.00    +0.000 C 
ATOM     16  O   UNL     1       3.735   5.503  17.555  0.00  0.00    +0.000 OA
BRANCH  15  17
ATOM     17  C   UNL     1       3.933   3.199  16.996  0.00  0.00    +0.000 C 
BRANCH  17  18
ATOM     18  C   UNL     1       2.924   2.953  18.091  0.00  0.00    +0.000 C 
ATOM     19  O   UNL     1       1.711   3.014  17.888  0.00  0.00    +0.000 OA
BRANCH  18  20
ATOM     20  C   UNL     1       3.440   2.599  19.382  0.00  0.00    +0.000 A 
ATOM     21  N   UNL     1       2.783   2.610  20.522  0.00  0.00    +0.000 NA
ATOM     22  N   UNL     1       3.679   2.185  21.476  0.00  0.00    +0.000 NA
ATOM     23  N   UNL     1       4.859   1.917  20.934  0.00  0.00    +0.000 NA
ATOM     24  N   UNL     1       4.713   2.177  19.629  0.00  0.00    +0.000 N 
ATOM     25  H   UNL     1       5.488   2.053  18.987  0.00  0.00    +0.000 HD
ENDBRANCH  18  20
ENDBRANCH  17  18
ENDBRANCH  15  17
ENDBRANCH   7  15
TORSDOF 6
ENDMDL
MODEL 4
REMARK VINA RESULT:      -7.9      3.356      6.733
REMARK  Name = 
REMARK  6 active torsions:
REMARK  status: ('A' for Active; 'I' for Inactive)
REMARK    1  A    between atoms: C_2  and  O_3
REMARK    2  A    between atoms: C_2  and  C_4
REMARK    3  A    between atoms: C_10  and  C_11
REMARK    4  A    between atoms: C_11  and  C_13
REMARK    5  A    between atoms: C_13  and  C_14
REMARK    6  A    between atoms: C_14  and  C_16
REMARK                            x       y       z     vdW  Elec       q    Type
REMARK                         _______ _______ _______ _____ _____    ______ ____
ROOT
ATOM      1  C   UNL     1       5.873   3.559  12.903  0.00  0.00    +0.000 A 
ATOM      2  C   UNL     1       7.002   4.340  12.641  0.00  0.00    +0.000 A 
ATOM      3  C   UNL     1       7.582   5.126  13.641  0.00  0.00    +0.000 A 
ATOM      4  C   UNL     1       6.991   5.102  14.909  0.00  0.00    +0.000 A 
ATOM      5  N   UNL     1       7.344   5.772  16.056  0.00  0.00    +0.000 N 
ATOM      6  C   UNL     1       6.471   5.473  17.068  0.00  0.00    +0.000 A 
ATOM      7  C   UNL     1       5.540   4.568  16.589  0.00  0.00    +0.000 A 
ATOM      8  C   UNL     1       5.873   4.321  15.214  0.00  0.00    +0.000 A 
ATOM      9  C   UNL     1       5.313   3.521  14.192  0.00  0.00    +0.000 A 
ATOM     10  H   UNL     1       8.135   6.399  16.131  0.00  0.00    +0.000 HD
ENDROOT
BRANCH   1  12
ATOM     11  O   UNL     1       4.272   3.047  11.220  0.00  0.00    +0.000 OA
ATOM     12  C   UNL     1       5.314   2.760  11.784  0.00  0.00    +0.000 C 
BRANCH  12  13
ATOM     13  O   UNL     1       6.027   1.649  11.500  0.00  0.00    +0.000 OA
ATOM     14  H   UNL     1       6.120   1.017  12.236  0.00  0.00    +0.000 HD
ENDBRANCH  12  13
ENDBRANCH   1  12
BRANCH   7  15
ATOM     15  C   UNL     1       4.422   3.997  17.348  0.00  0.00    +0.000 C 
ATOM     16  O   UNL     1       4.280   2.779  17.453  0.00  0.00    +0.000 OA
BRANCH  15  17
ATOM     17  C   UNL     1       3.435   4.936  17.993  0.00  0.00    +0.000 C 
BRANCH  17  18
ATOM     18  C   UNL     1       2.128   4.250  18.311  0.00  0.00    +0.000 C 
ATOM     19  O   UNL     1       1.234   4.129  17.473  0.00  0.00    +0.000 OA
BRANCH  18  20
ATOM     20  C   UNL     1       1.986   3.703  19.629  0.00  0.00    +0.000 A 
ATOM     21  N   UNL     1       0.861   3.518  20.287  0.00  0.00    +0.000 NA
ATOM     22  N   UNL     1       1.219   2.962  21.494  0.00  0.00    +0.000 NA
ATOM     23  N   UNL     1       2.533   2.806  21.575  0.00  0.00    +0.000 NA
ATOM     24  N   UNL     1       3.013   3.269  20.414  0.00  0.00    +0.000 N 
ATOM     25  H   UNL     1       4.010   3.264  20.227  0.00  0.00    +0.000 HD
ENDBRANCH  18  20
ENDBRANCH  17  18
ENDBRANCH  15  17
ENDBRANCH   7  15
TORSDOF 6
ENDMDL
MODEL 5
REMARK VINA RESULT:      -7.9      3.343      6.668
REMARK  Name = 
REMARK  6 active torsions:
REMARK  status: ('A' for Active; 'I' for Inactive)
REMARK    1  A    between atoms: C_2  and  O_3
REMARK    2  A    between atoms: C_2  and  C_4
REMARK    3  A    between atoms: C_10  and  C_11
REMARK    4  A    between atoms: C_11  and  C_13
REMARK    5  A    between atoms: C_13  and  C_14
REMARK    6  A    between atoms: C_14  and  C_16
REMARK                            x       y       z     vdW  Elec       q    Type
REMARK                         _______ _______ _______ _____ _____    ______ ____
ROOT
ATOM      1  C   UNL     1       5.841   3.587  12.938  0.00  0.00    +0.000 A 
ATOM      2  C   UNL     1       6.999   4.306  12.631  0.00  0.00    +0.000 A 
ATOM      3  C   UNL     1       7.631   5.100  13.593  0.00  0.00    +0.000 A 
ATOM      4  C   UNL     1       7.060   5.149  14.869  0.00  0.00    +0.000 A 
ATOM      5  N   UNL     1       7.462   5.843  15.985  0.00  0.00    +0.000 N 
ATOM      6  C   UNL     1       6.593   5.621  17.021  0.00  0.00    +0.000 A 
ATOM      7  C   UNL     1       5.615   4.742  16.590  0.00  0.00    +0.000 A 
ATOM      8  C   UNL     1       5.914   4.431  15.220  0.00  0.00    +0.000 A 
ATOM      9  C   UNL     1       5.302   3.621  14.236  0.00  0.00    +0.000 A 
ATOM     10  H   UNL     1       8.281   6.436  16.026  0.00  0.00    +0.000 HD
ENDROOT
BRANCH   1  12
ATOM     11  O   UNL     1       4.162   3.056  11.339  0.00  0.00    +0.000 OA
ATOM     12  C   UNL     1       5.229   2.774  11.858  0.00  0.00    +0.000 C 
BRANCH  12  13
ATOM     13  O   UNL     1       5.925   1.656  11.557  0.00  0.00    +0.000 OA
ATOM     14  H   UNL     1       6.672   1.462  12.151  0.00  0.00    +0.000 HD
ENDBRANCH  12  13
ENDBRANCH   1  12
BRANCH   7  15
ATOM     15  C   UNL     1       4.486   4.249  17.386  0.00  0.00    +0.000 C 
ATOM     16  O   UNL     1       3.323   4.434  17.026  0.00  0.00    +0.000 OA
BRANCH  15  17
ATOM     17  C   UNL     1       4.777   3.517  18.671  0.00  0.00    +0.000 C 
BRANCH  17  18
ATOM     18  C   UNL     1       3.775   2.417  18.933  0.00  0.00    +0.000 C 
ATOM     19  O   UNL     1       3.715   1.408  18.231  0.00  0.00    +0.000 OA
BRANCH  18  20
ATOM     20  C   UNL     1       2.916   2.580  20.069  0.00  0.00    +0.000 A 
ATOM     21  N   UNL     1       3.273   2.555  21.336  0.00  0.00    +0.000 NA
ATOM     22  N   UNL     1       2.119   2.767  22.055  0.00  0.00    +0.000 NA
ATOM     23  N   UNL     1       1.077   2.920  21.250  0.00  0.00    +0.000 NA
ATOM     24  N   UNL     1       1.571   2.802  20.011  0.00  0.00    +0.000 N 
ATOM     25  H   UNL     1       0.964   2.877  19.203  0.00  0.00    +0.000 HD
ENDBRANCH  18  20
ENDBRANCH  17  18
ENDBRANCH  15  17
ENDBRANCH   7  15
TORSDOF 6
ENDMDL
MODEL 6
REMARK VINA RESULT:      -7.9      3.188      6.067
REMARK  Name = 
REMARK  6 active torsions:
REMARK  status: ('A' for Active; 'I' for Inactive)
REMARK    1  A    between atoms: C_2  and  O_3
REMARK    2  A    between atoms: C_2  and  C_4
REMARK    3  A    between atoms: C_10  and  C_11
REMARK    4  A    between atoms: C_11  and  C_13
REMARK    5  A    between atoms: C_13  and  C_14
REMARK    6  A    between atoms: C_14  and  C_16
REMARK                            x       y       z     vdW  Elec       q    Type
REMARK                         _______ _______ _______ _____ _____    ______ ____
ROOT
ATOM      1  C   UNL     1       6.404   4.419  15.335  0.00  0.00    +0.000 A 
ATOM      2  C   UNL     1       7.592   4.538  16.062  0.00  0.00    +0.000 A 
ATOM      3  C   UNL     1       7.573   4.791  17.437  0.00  0.00    +0.000 A 
ATOM      4  C   UNL     1       6.324   4.922  18.054  0.00  0.00    +0.000 A 
ATOM      5  N   UNL     1       6.017   5.176  19.370  0.00  0.00    +0.000 N 
ATOM      6  C   UNL     1       4.659   5.247  19.535  0.00  0.00    +0.000 A 
ATOM      7  C   UNL     1       4.057   5.009  18.312  0.00  0.00    +0.000 A 
ATOM      8  C   UNL     1       5.116   4.792  17.366  0.00  0.00    +0.000 A 
ATOM      9  C   UNL     1       5.159   4.519  15.979  0.00  0.00    +0.000 A 
ATOM     10  H   UNL     1       6.703   5.296  20.104  0.00  0.00    +0.000 HD
ENDROOT
BRANCH   1  12
ATOM     11  O   UNL     1       7.191   4.840  13.130  0.00  0.00    +0.000 OA
ATOM     12  C   UNL     1       6.512   4.157  13.878  0.00  0.00    +0.000 C 
BRANCH  12  13
ATOM     13  O   UNL     1       5.732   3.142  13.449  0.00  0.00    +0.000 OA
ATOM     14  H   UNL     1       6.149   2.544  12.802  0.00  0.00    +0.000 HD
ENDBRANCH  12  13
ENDBRANCH   1  12
BRANCH   7  15
ATOM     15  C   UNL     1       2.614   5.002  18.047  0.00  0.00    +0.000 C 
ATOM     16  O   UNL     1       1.951   6.038  18.104  0.00  0.00    +0.000 OA
BRANCH  15  17
ATOM     17  C   UNL     1       1.950   3.691  17.713  0.00  0.00    +0.000 C 
BRANCH  17  18
ATOM     18  C   UNL     1       2.511   2.550  18.526  0.00  0.00    +0.000 C 
ATOM     19  O   UNL     1       3.165   1.642  18.013  0.00  0.00    +0.000 OA
BRANCH  18  20
ATOM     20  C   UNL     1       2.285   2.589  19.942  0.00  0.00    +0.000 A 
ATOM     21  N   UNL     1       3.199   2.527  20.887  0.00  0.00    +0.000 NA
ATOM     22  N   UNL     1       2.515   2.615  22.078  0.00  0.00    +0.000 NA
ATOM     23  N   UNL     1       1.210   2.730  21.870  0.00  0.00    +0.000 NA
ATOM     24  N   UNL     1       1.065   2.712  20.539  0.00  0.00    +0.000 N 
ATOM     25  H   UNL     1       0.145   2.783  20.118  0.00  0.00    +0.000 HD
ENDBRANCH  18  20
ENDBRANCH  17  18
ENDBRANCH  15  17
ENDBRANCH   7  15
TORSDOF 6
ENDMDL
MODEL 7
REMARK VINA RESULT:      -7.9      1.576      2.338
REMARK  Name = 
REMARK  6 active torsions:
REMARK  status: ('A' for Active; 'I' for Inactive)
REMARK    1  A    between atoms: C_2  and  O_3
REMARK    2  A    between atoms: C_2  and  C_4
REMARK    3  A    between atoms: C_10  and  C_11
REMARK    4  A    between atoms: C_11  and  C_13
REMARK    5  A    between atoms: C_13  and  C_14
REMARK    6  A    between atoms: C_14  and  C_16
REMARK                            x       y       z     vdW  Elec       q    Type
REMARK                         _______ _______ _______ _____ _____    ______ ____
ROOT
ATOM      1  C   UNL     1       2.618   3.973  20.713  0.00  0.00    +0.000 A 
ATOM      2  C   UNL     1       1.707   5.033  20.705  0.00  0.00    +0.000 A 
ATOM      3  C   UNL     1       1.886   6.132  19.860  0.00  0.00    +0.000 A 
ATOM      4  C   UNL     1       3.010   6.131  19.027  0.00  0.00    +0.000 A 
ATOM      5  N   UNL     1       3.429   7.073  18.117  0.00  0.00    +0.000 N 
ATOM      6  C   UNL     1       4.604   6.678  17.532  0.00  0.00    +0.000 A 
ATOM      7  C   UNL     1       4.953   5.441  18.046  0.00  0.00    +0.000 A 
ATOM      8  C   UNL     1       3.934   5.085  18.993  0.00  0.00    +0.000 A 
ATOM      9  C   UNL     1       3.723   3.975  19.844  0.00  0.00    +0.000 A 
ATOM     10  H   UNL     1       2.936   7.934  17.917  0.00  0.00    +0.000 HD
ENDROOT
BRANCH   1  12
ATOM     11  O   UNL     1       3.212   2.037  21.960  0.00  0.00    +0.000 OA
ATOM     12  C   UNL     1       2.358   2.849  21.646  0.00  0.00    +0.000 C 
BRANCH  12  13
ATOM     13  O   UNL     1       1.073   2.766  22.053  0.00  0.00    +0.000 OA
ATOM     14  H   UNL     1       0.545   2.072  21.617  0.00  0.00    +0.000 HD
ENDBRANCH  12  13
ENDBRANCH   1  12
BRANCH   7  15
ATOM     15  C   UNL     1       6.148   4.667  17.693  0.00  0.00    +0.000 C 
ATOM     16  O   UNL     1       7.064   4.506  18.499  0.00  0.00    +0.000 OA
BRANCH  15  17
ATOM     17  C   UNL     1       6.241   4.077  16.309  0.00  0.00    +0.000 C 
BRANCH  17  18
ATOM     18  C   UNL     1       6.965   4.994  15.352  0.00  0.00    +0.000 C 
ATOM     19  O   UNL     1       7.554   6.004  15.736  0.00  0.00    +0.000 OA
BRANCH  18  20
ATOM     20  C   UNL     1       6.973   4.614  13.970  0.00  0.00    +0.000 A 
ATOM     21  N   UNL     1       7.615   5.215  12.991  0.00  0.00    +0.000 NA
ATOM     22  N   UNL     1       7.336   4.490  11.856  0.00  0.00    +0.000 NA
ATOM     23  N   UNL     1       6.542   3.463  12.130  0.00  0.00    +0.000 NA
ATOM     24  N   UNL     1       6.313   3.541  13.447  0.00  0.00    +0.000 N 
ATOM     25  H   UNL     1       5.720   2.860  13.909  0.00  0.00    +0.000 HD
ENDBRANCH  18  20
ENDBRANCH  17  18
ENDBRANCH  15  17
ENDBRANCH   7  15
TORSDOF 6
ENDMDL
MODEL 8
REMARK VINA RESULT:      -7.9      3.090      6.039
REMARK  Name = 
REMARK  6 active torsions:
REMARK  status: ('A' for Active; 'I' for Inactive)
REMARK    1  A    between atoms: C_2  and  O_3
REMARK    2  A    between atoms: C_2  and  C_4
REMARK    3  A    between atoms: C_10  and  C_11
REMARK    4  A    between atoms: C_11  and  C_13
REMARK    5  A    between atoms: C_13  and  C_14
REMARK    6  A    between atoms: C_14  and  C_16
REMARK                            x       y       z     vdW  Elec       q    Type
REMARK                         _______ _______ _______ _____ _____    ______ ____
ROOT
ATOM      1  C   UNL     1       6.457   4.903  15.333  0.00  0.00    +0.000 A 
ATOM      2  C   UNL     1       7.413   5.569  16.105  0.00  0.00    +0.000 A 
ATOM      3  C   UNL     1       7.142   5.941  17.425  0.00  0.00    +0.000 A 
ATOM      4  C   UNL     1       5.880   5.623  17.941  0.00  0.00    +0.000 A 
ATOM      5  N   UNL     1       5.353   5.873  19.186  0.00  0.00    +0.000 N 
ATOM      6  C   UNL     1       4.066   5.408  19.258  0.00  0.00    +0.000 A 
ATOM      7  C   UNL     1       3.747   4.817  18.048  0.00  0.00    +0.000 A 
ATOM      8  C   UNL     1       4.906   4.944  17.208  0.00  0.00    +0.000 A 
ATOM      9  C   UNL     1       5.208   4.562  15.881  0.00  0.00    +0.000 A 
ATOM     10  H   UNL     1       5.850   6.339  19.934  0.00  0.00    +0.000 HD
ENDROOT
BRANCH   1  12
ATOM     11  O   UNL     1       7.516   5.264  13.234  0.00  0.00    +0.000 OA
ATOM     12  C   UNL     1       6.821   4.551  13.938  0.00  0.00    +0.000 C 
BRANCH  12  13
ATOM     13  O   UNL     1       6.252   3.407  13.499  0.00  0.00    +0.000 OA
ATOM     14  H   UNL     1       5.406   3.521  13.028  0.00  0.00    +0.000 HD
ENDBRANCH  12  13
ENDBRANCH   1  12
BRANCH   7  15
ATOM     15  C   UNL     1       2.462   4.201  17.701  0.00  0.00    +0.000 C 
ATOM     16  O   UNL     1       1.435   4.873  17.619  0.00  0.00    +0.000 OA
BRANCH  15  17
ATOM     17  C   UNL     1       2.419   2.714  17.457  0.00  0.00    +0.000 C 
BRANCH  17  18
ATOM     18  C   UNL     1       2.951   1.932  18.635  0.00  0.00    +0.000 C 
ATOM     19  O   UNL     1       3.807   1.058  18.505  0.00  0.00    +0.000 OA
BRANCH  18  20
ATOM     20  C   UNL     1       2.442   2.283  19.928  0.00  0.00    +0.000 A 
ATOM     21  N   UNL     1       1.178   2.428  20.265  0.00  0.00    +0.000 NA
ATOM     22  N   UNL     1       1.180   2.752  21.602  0.00  0.00    +0.000 NA
ATOM     23  N   UNL     1       2.417   2.802  22.078  0.00  0.00    +0.000 NA
ATOM     24  N   UNL     1       3.205   2.512  21.036  0.00  0.00    +0.000 N 
ATOM     25  H   UNL     1       4.213   2.490  21.141  0.00  0.00    +0.000 HD
ENDBRANCH  18  20
ENDBRANCH  17  18
ENDBRANCH  15  17
ENDBRANCH   7  15
TORSDOF 6
ENDMDL
MODEL 9
REMARK VINA RESULT:      -7.8      0.882      1.240
REMARK  Name = 
REMARK  6 active torsions:
REMARK  status: ('A' for Active; 'I' for Inactive)
REMARK    1  A    between atoms: C_2  and  O_3
REMARK    2  A    between atoms: C_2  and  C_4
REMARK    3  A    between atoms: C_10  and  C_11
REMARK    4  A    between atoms: C_11  and  C_13
REMARK    5  A    between atoms: C_13  and  C_14
REMARK    6  A    between atoms: C_14  and  C_16
REMARK                            x       y       z     vdW  Elec       q    Type
REMARK                         _______ _______ _______ _____ _____    ______ ____
ROOT
ATOM      1  C   UNL     1       4.133   2.629  20.307  0.00  0.00    +0.000 A 
ATOM      2  C   UNL     1       2.988   2.803  21.089  0.00  0.00    +0.000 A 
ATOM      3  C   UNL     1       2.212   3.961  20.982  0.00  0.00    +0.000 A 
ATOM      4  C   UNL     1       2.625   4.936  20.067  0.00  0.00    +0.000 A 
ATOM      5  N   UNL     1       2.062   6.154  19.768  0.00  0.00    +0.000 N 
ATOM      6  C   UNL     1       2.812   6.803  18.822  0.00  0.00    +0.000 A 
ATOM      7  C   UNL     1       3.873   5.987  18.470  0.00  0.00    +0.000 A 
ATOM      8  C   UNL     1       3.752   4.791  19.256  0.00  0.00    +0.000 A 
ATOM      9  C   UNL     1       4.512   3.604  19.368  0.00  0.00    +0.000 A 
ATOM     10  H   UNL     1       1.218   6.514  20.194  0.00  0.00    +0.000 HD
ENDROOT
BRANCH   1  12
ATOM     11  O   UNL     1       5.587   1.151  21.473  0.00  0.00    +0.000 OA
ATOM     12  C   UNL     1       4.905   1.374  20.487  0.00  0.00    +0.000 C 
BRANCH  12  13
ATOM     13  O   UNL     1       4.841   0.539  19.427  0.00  0.00    +0.000 OA
ATOM     14  H   UNL     1       5.073   0.941  18.570  0.00  0.00    +0.000 HD
ENDBRANCH  12  13
ENDBRANCH   1  12
BRANCH   7  15
ATOM     15  C   UNL     1       4.920   6.308  17.496  0.00  0.00    +0.000 C 
ATOM     16  O   UNL     1       4.644   6.565  16.324  0.00  0.00    +0.000 OA
BRANCH  15  17
ATOM     17  C   UNL     1       6.357   6.304  17.955  0.00  0.00    +0.000 C 
BRANCH  17  18
ATOM     18  C   UNL     1       7.129   5.140  17.382  0.00  0.00    +0.000 C 
ATOM     19  O   UNL     1       7.786   4.380  18.093  0.00  0.00    +0.000 OA
BRANCH  18  20
ATOM     20  C   UNL     1       7.033   4.931  15.967  0.00  0.00    +0.000 A 
ATOM     21  N   UNL     1       7.666   5.599  15.027  0.00  0.00    +0.000 NA
ATOM     22  N   UNL     1       7.270   5.038  13.834  0.00  0.00    +0.000 NA
ATOM     23  N   UNL     1       6.414   4.046  14.036  0.00  0.00    +0.000 NA
ATOM     24  N   UNL     1       6.263   3.979  15.365  0.00  0.00    +0.000 N 
ATOM     25  H   UNL     1       5.645   3.291  15.781  0.00  0.00    +0.000 HD
ENDBRANCH  18  20
ENDBRANCH  17  18
ENDBRANCH  15  17
ENDBRANCH   7  15
TORSDOF 6
ENDMDL
