MODEL 1
REMARK VINA RESULT:      -8.2      0.000      0.000
REMARK  Name = 
REMARK  5 active torsions:
REMARK  status: ('A' for Active; 'I' for Inactive)
REMARK    1  A    between atoms: C_2  and  C_14
REMARK    2  A    between atoms: N_3  and  C_4
REMARK    3  A    between atoms: C_4  and  C_5
REMARK    4  A    between atoms: N_17  and  C_18
REMARK    5  A    between atoms: C_24  and  N_25
REMARK                            x       y       z     vdW  Elec       q    Type
REMARK                         _______ _______ _______ _____ _____    ______ ____
ROOT
ATOM      1  C   UNL     1       3.064   6.396  18.559  0.00  0.00    +0.000 A 
ATOM      2  C   UNL     1       3.466   7.532  17.826  0.00  0.00    +0.000 A 
ATOM      3  N   UNL     1       4.410   7.270  16.922  0.00  0.00    +0.000 NA
ATOM      4  N   UNL     1       4.574   5.918  16.973  0.00  0.00    +0.000 N 
ATOM      5  C   UNL     1       3.823   5.373  18.006  0.00  0.00    +0.000 A 
ENDROOT
BRANCH   4   6
ATOM      6  C   UNL     1       5.360   5.277  15.963  0.00  0.00    +0.000 A 
ATOM      7  C   UNL     1       4.727   4.498  14.986  0.00  0.00    +0.000 A 
ATOM      8  C   UNL     1       5.473   3.955  13.933  0.00  0.00    +0.000 A 
ATOM      9  C   UNL     1       6.849   4.175  13.858  0.00  0.00    +0.000 A 
ATOM     10  C   UNL     1       7.490   4.897  14.858  0.00  0.00    +0.000 A 
ATOM     11  C   UNL     1       6.754   5.418  15.923  0.00  0.00    +0.000 A 
ENDBRANCH   4   6
BRANCH   5  12
ATOM     12  N   UNL     1       3.876   4.043  18.424  0.00  0.00    +0.000 N 
ATOM     13  C   UNL     1       4.653   3.539  19.451  0.00  0.00    +0.000 A 
ATOM     14  C   UNL     1       4.344   2.213  19.650  0.00  0.00    +0.000 A 
ATOM     15  C   UNL     1       3.368   1.864  18.696  0.00  0.00    +0.000 A 
ATOM     16  C   UNL     1       3.136   2.983  17.929  0.00  0.00    +0.000 A 
ENDBRANCH   5  12
BRANCH   1  18
ATOM     17  O   UNL     1       1.664   5.271  20.070  0.00  0.00    +0.000 OA
ATOM     18  C   UNL     1       2.196   6.322  19.723  0.00  0.00    +0.000 C 
ATOM     19  N   UNL     1       1.984   7.501  20.395  0.00  0.00    +0.000 N 
ATOM     20  H   UNL     1       2.445   8.351  20.107  0.00  0.00    +0.000 HD
BRANCH  19  21
ATOM     21  C   UNL     1       1.033   7.561  21.484  0.00  0.00    +0.000 C 
BRANCH  21  22
ATOM     22  C   UNL     1       0.335   8.895  21.555  0.00  0.00    +0.000 A 
ATOM     23  C   UNL     1      -0.163   9.374  22.791  0.00  0.00    +0.000 A 
ATOM     24  C   UNL     1      -0.814  10.608  22.880  0.00  0.00    +0.000 A 
ATOM     25  C   UNL     1      -0.955  11.338  21.721  0.00  0.00    +0.000 A 
ATOM     26  C   UNL     1      -0.470  10.885  20.517  0.00  0.00    +0.000 A 
ATOM     27  C   UNL     1       0.185   9.677  20.401  0.00  0.00    +0.000 A 
ATOM     28  O   UNL     1      -0.717  11.752  19.499  0.00  0.00    +0.000 OA
ATOM     29  C   UNL     1      -1.460  12.776  20.193  0.00  0.00    +0.000 C 
ATOM     30  O   UNL     1      -1.567  12.547  21.613  0.00  0.00    +0.000 OA
ENDBRANCH  21  22
ENDBRANCH  19  21
ENDBRANCH   1  18
TORSDOF 5
ENDMDL
MODEL 2
REMARK VINA RESULT:      -8.2      3.083     10.056
REMARK  Name = 
REMARK  5 active torsions:
REMARK  status: ('A' for Active; 'I' for Inactive)
REMARK    1  A    between atoms: C_2  and  C_14
REMARK    2  A    between atoms: N_3  and  C_4
REMARK    3  A    between atoms: C_4  and  C_5
REMARK    4  A    between atoms: N_17  and  C_18
REMARK    5  A    between atoms: C_24  and  N_25
REMARK                            x       y       z     vdW  Elec       q    Type
REMARK                         _______ _______ _______ _____ _____    ______ ____
ROOT
ATOM      1  C   UNL     1       0.136   9.834  21.004  0.00  0.00    +0.000 A 
ATOM      2  C   UNL     1      -0.221   9.210  22.218  0.00  0.00    +0.000 A 
ATOM      3  N   UNL     1      -0.756  10.050  23.105  0.00  0.00    +0.000 NA
ATOM      4  N   UNL     1      -0.858  11.237  22.443  0.00  0.00    +0.000 N 
ATOM      5  C   UNL     1      -0.258  11.152  21.193  0.00  0.00    +0.000 A 
ENDROOT
BRANCH   4   6
ATOM      6  C   UNL     1      -1.604  12.302  23.039  0.00  0.00    +0.000 A 
ATOM      7  C   UNL     1      -2.952  12.104  23.363  0.00  0.00    +0.000 A 
ATOM      8  C   UNL     1      -3.662  13.100  24.044  0.00  0.00    +0.000 A 
ATOM      9  C   UNL     1      -3.036  14.298  24.391  0.00  0.00    +0.000 A 
ATOM     10  C   UNL     1      -1.716  14.523  24.019  0.00  0.00    +0.000 A 
ATOM     11  C   UNL     1      -1.012  13.542  23.318  0.00  0.00    +0.000 A 
ENDBRANCH   4   6
BRANCH   5  12
ATOM     12  N   UNL     1      -0.058  12.224  20.322  0.00  0.00    +0.000 N 
ATOM     13  C   UNL     1       1.092  12.983  20.211  0.00  0.00    +0.000 A 
ATOM     14  C   UNL     1       0.960  13.864  19.162  0.00  0.00    +0.000 A 
ATOM     15  C   UNL     1      -0.327  13.677  18.621  0.00  0.00    +0.000 A 
ATOM     16  C   UNL     1      -0.946  12.706  19.376  0.00  0.00    +0.000 A 
ENDBRANCH   5  12
BRANCH   1  18
ATOM     17  O   UNL     1       0.753   9.719  18.742  0.00  0.00    +0.000 OA
ATOM     18  C   UNL     1       0.885   9.288  19.885  0.00  0.00    +0.000 C 
ATOM     19  N   UNL     1       1.729   8.242  20.174  0.00  0.00    +0.000 N 
ATOM     20  H   UNL     1       1.839   7.913  21.121  0.00  0.00    +0.000 HD
BRANCH  19  21
ATOM     21  C   UNL     1       2.418   7.543  19.111  0.00  0.00    +0.000 C 
BRANCH  21  22
ATOM     22  C   UNL     1       2.373   6.047  19.294  0.00  0.00    +0.000 A 
ATOM     23  C   UNL     1       1.698   5.485  20.404  0.00  0.00    +0.000 A 
ATOM     24  C   UNL     1       1.645   4.101  20.594  0.00  0.00    +0.000 A 
ATOM     25  C   UNL     1       2.277   3.306  19.663  0.00  0.00    +0.000 A 
ATOM     26  C   UNL     1       2.931   3.842  18.579  0.00  0.00    +0.000 A 
ATOM     27  C   UNL     1       2.991   5.202  18.361  0.00  0.00    +0.000 A 
ATOM     28  O   UNL     1       3.489   2.888  17.788  0.00  0.00    +0.000 OA
ATOM     29  C   UNL     1       3.158   1.695  18.529  0.00  0.00    +0.000 C 
ATOM     30  O   UNL     1       2.341   1.948  19.690  0.00  0.00    +0.000 OA
ENDBRANCH  21  22
ENDBRANCH  19  21
ENDBRANCH   1  18
TORSDOF 5
ENDMDL
MODEL 3
REMARK VINA RESULT:      -8.1      3.325     10.079
REMARK  Name = 
REMARK  5 active torsions:
REMARK  status: ('A' for Active; 'I' for Inactive)
REMARK    1  A    between atoms: C_2  and  C_14
REMARK    2  A    between atoms: N_3  and  C_4
REMARK    3  A    between atoms: C_4  and  C_5
REMARK    4  A    between atoms: N_17  and  C_18
REMARK    5  A    between atoms: C_24  and  N_25
REMARK                            x       y       z     vdW  Elec       q    Type
REMARK                         _______ _______ _______ _____ _____    ______ ____
ROOT
ATOM      1  C   UNL     1      -0.009   9.910  21.072  0.00  0.00    +0.000 A 
ATOM      2  C   UNL     1      -0.359   9.304  22.296  0.00  0.00    +0.000 A 
ATOM      3  N   UNL     1      -0.872  10.160  23.181  0.00  0.00    +0.000 NA
ATOM      4  N   UNL     1      -0.966  11.341  22.507  0.00  0.00    +0.000 N 
ATOM      5  C   UNL     1      -0.383  11.236  21.251  0.00  0.00    +0.000 A 
ENDROOT
BRANCH   4   6
ATOM      6  C   UNL     1      -1.691  12.422  23.102  0.00  0.00    +0.000 A 
ATOM      7  C   UNL     1      -3.037  12.246  23.444  0.00  0.00    +0.000 A 
ATOM      8  C   UNL     1      -3.725  13.259  24.124  0.00  0.00    +0.000 A 
ATOM      9  C   UNL     1      -3.080  14.452  24.450  0.00  0.00    +0.000 A 
ATOM     10  C   UNL     1      -1.761  14.655  24.059  0.00  0.00    +0.000 A 
ATOM     11  C   UNL     1      -1.079  13.658  23.360  0.00  0.00    +0.000 A 
ENDBRANCH   4   6
BRANCH   5  12
ATOM     12  N   UNL     1      -0.180  12.295  20.367  0.00  0.00    +0.000 N 
ATOM     13  C   UNL     1       0.968  13.059  20.257  0.00  0.00    +0.000 A 
ATOM     14  C   UNL     1       0.842  13.924  19.194  0.00  0.00    +0.000 A 
ATOM     15  C   UNL     1      -0.439  13.722  18.641  0.00  0.00    +0.000 A 
ATOM     16  C   UNL     1      -1.060  12.759  19.404  0.00  0.00    +0.000 A 
ENDBRANCH   5  12
BRANCH   1  18
ATOM     17  O   UNL     1       0.513   9.701  18.793  0.00  0.00    +0.000 OA
ATOM     18  C   UNL     1       0.719   9.343  19.949  0.00  0.00    +0.000 C 
ATOM     19  N   UNL     1       1.632   8.362  20.255  0.00  0.00    +0.000 N 
ATOM     20  H   UNL     1       1.802   8.093  21.212  0.00  0.00    +0.000 HD
BRANCH  19  21
ATOM     21  C   UNL     1       2.311   7.641  19.199  0.00  0.00    +0.000 C 
BRANCH  21  22
ATOM     22  C   UNL     1       2.228   6.148  19.387  0.00  0.00    +0.000 A 
ATOM     23  C   UNL     1       2.172   5.290  18.263  0.00  0.00    +0.000 A 
ATOM     24  C   UNL     1       2.093   3.902  18.414  0.00  0.00    +0.000 A 
ATOM     25  C   UNL     1       2.069   3.402  19.697  0.00  0.00    +0.000 A 
ATOM     26  C   UNL     1       2.129   4.226  20.796  0.00  0.00    +0.000 A 
ATOM     27  C   UNL     1       2.216   5.597  20.678  0.00  0.00    +0.000 A 
ATOM     28  O   UNL     1       2.087   3.534  21.966  0.00  0.00    +0.000 OA
ATOM     29  C   UNL     1       1.939   2.186  21.475  0.00  0.00    +0.000 C 
ATOM     30  O   UNL     1       1.984   2.089  20.037  0.00  0.00    +0.000 OA
ENDBRANCH  21  22
ENDBRANCH  19  21
ENDBRANCH   1  18
TORSDOF 5
ENDMDL
MODEL 4
REMARK VINA RESULT:      -8.0      0.734      1.380
REMARK  Name = 
REMARK  5 active torsions:
REMARK  status: ('A' for Active; 'I' for Inactive)
REMARK    1  A    between atoms: C_2  and  C_14
REMARK    2  A    between atoms: N_3  and  C_4
REMARK    3  A    between atoms: C_4  and  C_5
REMARK    4  A    between atoms: N_17  and  C_18
REMARK    5  A    between atoms: C_24  and  N_25
REMARK                            x       y       z     vdW  Elec       q    Type
REMARK                         _______ _______ _______ _____ _____    ______ ____
ROOT
ATOM      1  C   UNL     1       3.310   6.337  18.339  0.00  0.00    +0.000 A 
ATOM      2  C   UNL     1       3.962   7.458  17.785  0.00  0.00    +0.000 A 
ATOM      3  N   UNL     1       4.880   7.138  16.871  0.00  0.00    +0.000 NA
ATOM      4  N   UNL     1       4.773   5.786  16.732  0.00  0.00    +0.000 N 
ATOM      5  C   UNL     1       3.880   5.267  17.661  0.00  0.00    +0.000 A 
ENDROOT
BRANCH   4   6
ATOM      6  C   UNL     1       5.466   5.143  15.658  0.00  0.00    +0.000 A 
ATOM      7  C   UNL     1       4.745   4.388  14.723  0.00  0.00    +0.000 A 
ATOM      8  C   UNL     1       5.397   3.846  13.610  0.00  0.00    +0.000 A 
ATOM      9  C   UNL     1       6.767   4.041  13.431  0.00  0.00    +0.000 A 
ATOM     10  C   UNL     1       7.497   4.739  14.386  0.00  0.00    +0.000 A 
ATOM     11  C   UNL     1       6.856   5.260  15.511  0.00  0.00    +0.000 A 
ENDBRANCH   4   6
BRANCH   5  12
ATOM     12  N   UNL     1       3.651   3.909  17.885  0.00  0.00    +0.000 N 
ATOM     13  C   UNL     1       4.366   3.090  18.739  0.00  0.00    +0.000 A 
ATOM     14  C   UNL     1       3.770   1.851  18.790  0.00  0.00    +0.000 A 
ATOM     15  C   UNL     1       2.668   1.882  17.913  0.00  0.00    +0.000 A 
ATOM     16  C   UNL     1       2.646   3.132  17.337  0.00  0.00    +0.000 A 
ENDBRANCH   5  12
BRANCH   1  18
ATOM     17  O   UNL     1       1.784   5.253  19.754  0.00  0.00    +0.000 OA
ATOM     18  C   UNL     1       2.389   6.281  19.462  0.00  0.00    +0.000 C 
ATOM     19  N   UNL     1       2.213   7.452  20.159  0.00  0.00    +0.000 N 
ATOM     20  H   UNL     1       2.732   8.282  19.915  0.00  0.00    +0.000 HD
BRANCH  19  21
ATOM     21  C   UNL     1       1.219   7.535  21.207  0.00  0.00    +0.000 C 
BRANCH  21  22
ATOM     22  C   UNL     1       0.554   8.887  21.251  0.00  0.00    +0.000 A 
ATOM     23  C   UNL     1       0.458   9.673  20.077  0.00  0.00    +0.000 A 
ATOM     24  C   UNL     1      -0.154  10.930  20.095  0.00  0.00    +0.000 A 
ATOM     25  C   UNL     1      -0.658  11.375  21.296  0.00  0.00    +0.000 A 
ATOM     26  C   UNL     1      -0.576  10.618  22.441  0.00  0.00    +0.000 A 
ATOM     27  C   UNL     1       0.013   9.372  22.452  0.00  0.00    +0.000 A 
ATOM     28  O   UNL     1      -1.128  11.241  23.516  0.00  0.00    +0.000 OA
ATOM     29  C   UNL     1      -1.517  12.499  22.927  0.00  0.00    +0.000 C 
ATOM     30  O   UNL     1      -1.273  12.570  21.507  0.00  0.00    +0.000 OA
ENDBRANCH  21  22
ENDBRANCH  19  21
ENDBRANCH   1  18
TORSDOF 5
ENDMDL
MODEL 5
REMARK VINA RESULT:      -8.0      3.308     10.161
REMARK  Name = 
REMARK  5 active torsions:
REMARK  status: ('A' for Active; 'I' for Inactive)
REMARK    1  A    between atoms: C_2  and  C_14
REMARK    2  A    between atoms: N_3  and  C_4
REMARK    3  A    between atoms: C_4  and  C_5
REMARK    4  A    between atoms: N_17  and  C_18
REMARK    5  A    between atoms: C_24  and  N_25
REMARK                            x       y       z     vdW  Elec       q    Type
REMARK                         _______ _______ _______ _____ _____    ______ ____
ROOT
ATOM      1  C   UNL     1       0.357   9.847  21.357  0.00  0.00    +0.000 A 
ATOM      2  C   UNL     1       0.239   9.410  22.692  0.00  0.00    +0.000 A 
ATOM      3  N   UNL     1      -0.359  10.298  23.488  0.00  0.00    +0.000 NA
ATOM      4  N   UNL     1      -0.742  11.307  22.655  0.00  0.00    +0.000 N 
ATOM      5  C   UNL     1      -0.258  11.093  21.371  0.00  0.00    +0.000 A 
ENDROOT
BRANCH   4   6
ATOM      6  C   UNL     1      -1.616  12.323  23.154  0.00  0.00    +0.000 A 
ATOM      7  C   UNL     1      -2.954  12.012  23.428  0.00  0.00    +0.000 A 
ATOM      8  C   UNL     1      -3.789  12.969  24.018  0.00  0.00    +0.000 A 
ATOM      9  C   UNL     1      -3.299  14.239  24.323  0.00  0.00    +0.000 A 
ATOM     10  C   UNL     1      -1.988  14.571  23.999  0.00  0.00    +0.000 A 
ATOM     11  C   UNL     1      -1.160  13.629  23.388  0.00  0.00    +0.000 A 
ENDBRANCH   4   6
BRANCH   5  12
ATOM     12  N   UNL     1      -0.345  12.001  20.316  0.00  0.00    +0.000 N 
ATOM     13  C   UNL     1      -1.328  12.033  19.344  0.00  0.00    +0.000 A 
ATOM     14  C   UNL     1      -1.150  13.142  18.550  0.00  0.00    +0.000 A 
ATOM     15  C   UNL     1       0.002  13.808  19.014  0.00  0.00    +0.000 A 
ATOM     16  C   UNL     1       0.502  13.065  20.060  0.00  0.00    +0.000 A 
ENDBRANCH   5  12
BRANCH   1  18
ATOM     17  O   UNL     1       1.096   9.725  19.132  0.00  0.00    +0.000 OA
ATOM     18  C   UNL     1       1.088   9.236  20.259  0.00  0.00    +0.000 C 
ATOM     19  N   UNL     1       1.745   8.064  20.548  0.00  0.00    +0.000 N 
ATOM     20  H   UNL     1       1.742   7.686  21.483  0.00  0.00    +0.000 HD
BRANCH  19  21
ATOM     21  C   UNL     1       2.389   7.308  19.495  0.00  0.00    +0.000 C 
BRANCH  21  22
ATOM     22  C   UNL     1       2.608   5.868  19.883  0.00  0.00    +0.000 A 
ATOM     23  C   UNL     1       1.634   5.179  20.644  0.00  0.00    +0.000 A 
ATOM     24  C   UNL     1       1.816   3.843  21.016  0.00  0.00    +0.000 A 
ATOM     25  C   UNL     1       2.981   3.226  20.617  0.00  0.00    +0.000 A 
ATOM     26  C   UNL     1       3.931   3.885  19.874  0.00  0.00    +0.000 A 
ATOM     27  C   UNL     1       3.774   5.197  19.484  0.00  0.00    +0.000 A 
ATOM     28  O   UNL     1       5.004   3.099  19.590  0.00  0.00    +0.000 OA
ATOM     29  C   UNL     1       4.643   1.889  20.287  0.00  0.00    +0.000 C 
ATOM     30  O   UNL     1       3.335   1.943  20.894  0.00  0.00    +0.000 OA
ENDBRANCH  21  22
ENDBRANCH  19  21
ENDBRANCH   1  18
TORSDOF 5
ENDMDL
MODEL 6
REMARK VINA RESULT:      -8.0      3.347      9.600
REMARK  Name = 
REMARK  5 active torsions:
REMARK  status: ('A' for Active; 'I' for Inactive)
REMARK    1  A    between atoms: C_2  and  C_14
REMARK    2  A    between atoms: N_3  and  C_4
REMARK    3  A    between atoms: C_4  and  C_5
REMARK    4  A    between atoms: N_17  and  C_18
REMARK    5  A    between atoms: C_24  and  N_25
REMARK                            x       y       z     vdW  Elec       q    Type
REMARK                         _______ _______ _______ _____ _____    ______ ____
ROOT
ATOM      1  C   UNL     1       0.489  10.190  19.914  0.00  0.00    +0.000 A 
ATOM      2  C   UNL     1       0.974  10.646  21.157  0.00  0.00    +0.000 A 
ATOM      3  N   UNL     1       0.157  11.513  21.757  0.00  0.00    +0.000 NA
ATOM      4  N   UNL     1      -0.945  11.563  20.955  0.00  0.00    +0.000 N 
ATOM      5  C   UNL     1      -0.739  10.826  19.796  0.00  0.00    +0.000 A 
ENDROOT
BRANCH   4   6
ATOM      6  C   UNL     1      -2.117  12.233  21.429  0.00  0.00    +0.000 A 
ATOM      7  C   UNL     1      -2.504  12.086  22.766  0.00  0.00    +0.000 A 
ATOM      8  C   UNL     1      -3.585  12.821  23.267  0.00  0.00    +0.000 A 
ATOM      9  C   UNL     1      -4.290  13.692  22.435  0.00  0.00    +0.000 A 
ATOM     10  C   UNL     1      -3.946  13.796  21.092  0.00  0.00    +0.000 A 
ATOM     11  C   UNL     1      -2.885  13.046  20.583  0.00  0.00    +0.000 A 
ENDBRANCH   4   6
BRANCH   5  12
ATOM     12  N   UNL     1      -1.606  10.787  18.703  0.00  0.00    +0.000 N 
ATOM     13  C   UNL     1      -1.693  11.730  17.695  0.00  0.00    +0.000 A 
ATOM     14  C   UNL     1      -2.569  11.289  16.730  0.00  0.00    +0.000 A 
ATOM     15  C   UNL     1      -3.075  10.047  17.163  0.00  0.00    +0.000 A 
ATOM     16  C   UNL     1      -2.510   9.787  18.391  0.00  0.00    +0.000 A 
ENDBRANCH   5  12
BRANCH   1  18
ATOM     17  O   UNL     1       1.006   9.574  17.709  0.00  0.00    +0.000 OA
ATOM     18  C   UNL     1       1.167   9.385  18.911  0.00  0.00    +0.000 C 
ATOM     19  N   UNL     1       1.976   8.381  19.387  0.00  0.00    +0.000 N 
ATOM     20  H   UNL     1       2.111   8.251  20.378  0.00  0.00    +0.000 HD
BRANCH  19  21
ATOM     21  C   UNL     1       2.589   7.441  18.473  0.00  0.00    +0.000 C 
BRANCH  21  22
ATOM     22  C   UNL     1       2.324   6.011  18.869  0.00  0.00    +0.000 A 
ATOM     23  C   UNL     1       2.040   5.038  17.880  0.00  0.00    +0.000 A 
ATOM     24  C   UNL     1       1.791   3.706  18.225  0.00  0.00    +0.000 A 
ATOM     25  C   UNL     1       1.829   3.377  19.561  0.00  0.00    +0.000 A 
ATOM     26  C   UNL     1       2.110   4.312  20.529  0.00  0.00    +0.000 A 
ATOM     27  C   UNL     1       2.369   5.630  20.219  0.00  0.00    +0.000 A 
ATOM     28  O   UNL     1       2.093   3.783  21.782  0.00  0.00    +0.000 OA
ATOM     29  C   UNL     1       1.717   2.421  21.493  0.00  0.00    +0.000 C 
ATOM     30  O   UNL     1       1.602   2.142  20.083  0.00  0.00    +0.000 OA
ENDBRANCH  21  22
ENDBRANCH  19  21
ENDBRANCH   1  18
TORSDOF 5
ENDMDL
MODEL 7
REMARK VINA RESULT:      -7.9      3.009      9.939
REMARK  Name = 
REMARK  5 active torsions:
REMARK  status: ('A' for Active; 'I' for Inactive)
REMARK    1  A    between atoms: C_2  and  C_14
REMARK    2  A    between atoms: N_3  and  C_4
REMARK    3  A    between atoms: C_4  and  C_5
REMARK    4  A    between atoms: N_17  and  C_18
REMARK    5  A    between atoms: C_24  and  N_25
REMARK                            x       y       z     vdW  Elec       q    Type
REMARK                         _______ _______ _______ _____ _____    ______ ____
ROOT
ATOM      1  C   UNL     1       0.634   9.594  20.394  0.00  0.00    +0.000 A 
ATOM      2  C   UNL     1       0.388   8.920  21.608  0.00  0.00    +0.000 A 
ATOM      3  N   UNL     1      -0.127   9.707  22.554  0.00  0.00    +0.000 NA
ATOM      4  N   UNL     1      -0.329  10.906  21.936  0.00  0.00    +0.000 N 
ATOM      5  C   UNL     1       0.191  10.886  20.648  0.00  0.00    +0.000 A 
ENDROOT
BRANCH   4   6
ATOM      6  C   UNL     1      -1.084  11.916  22.612  0.00  0.00    +0.000 A 
ATOM      7  C   UNL     1      -0.583  13.221  22.686  0.00  0.00    +0.000 A 
ATOM      8  C   UNL     1      -1.362  14.239  23.249  0.00  0.00    +0.000 A 
ATOM      9  C   UNL     1      -2.633  13.958  23.751  0.00  0.00    +0.000 A 
ATOM     10  C   UNL     1      -3.110  12.652  23.734  0.00  0.00    +0.000 A 
ATOM     11  C   UNL     1      -2.327  11.630  23.196  0.00  0.00    +0.000 A 
ENDBRANCH   4   6
BRANCH   5  12
ATOM     12  N   UNL     1       0.282  11.990  19.800  0.00  0.00    +0.000 N 
ATOM     13  C   UNL     1      -0.726  12.485  18.992  0.00  0.00    +0.000 A 
ATOM     14  C   UNL     1      -0.304  13.652  18.399  0.00  0.00    +0.000 A 
ATOM     15  C   UNL     1       1.022  13.878  18.819  0.00  0.00    +0.000 A 
ATOM     16  C   UNL     1       1.372  12.825  19.633  0.00  0.00    +0.000 A 
ENDBRANCH   5  12
BRANCH   1  18
ATOM     17  O   UNL     1       1.235   9.683  18.127  0.00  0.00    +0.000 OA
ATOM     18  C   UNL     1       1.333   9.117  19.212  0.00  0.00    +0.000 C 
ATOM     19  N   UNL     1       2.088   7.980  19.374  0.00  0.00    +0.000 N 
ATOM     20  H   UNL     1       2.173   7.539  20.278  0.00  0.00    +0.000 HD
BRANCH  19  21
ATOM     21  C   UNL     1       2.715   7.351  18.232  0.00  0.00    +0.000 C 
BRANCH  21  22
ATOM     22  C   UNL     1       2.817   5.855  18.394  0.00  0.00    +0.000 A 
ATOM     23  C   UNL     1       1.797   5.012  17.893  0.00  0.00    +0.000 A 
ATOM     24  C   UNL     1       1.871   3.623  18.033  0.00  0.00    +0.000 A 
ATOM     25  C   UNL     1       2.972   3.107  18.679  0.00  0.00    +0.000 A 
ATOM     26  C   UNL     1       3.971   3.916  19.166  0.00  0.00    +0.000 A 
ATOM     27  C   UNL     1       3.930   5.288  19.033  0.00  0.00    +0.000 A 
ATOM     28  O   UNL     1       4.962   3.209  19.772  0.00  0.00    +0.000 OA
ATOM     29  C   UNL     1       4.443   1.868  19.659  0.00  0.00    +0.000 C 
ATOM     30  O   UNL     1       3.208   1.789  18.918  0.00  0.00    +0.000 OA
ENDBRANCH  21  22
ENDBRANCH  19  21
ENDBRANCH   1  18
TORSDOF 5
ENDMDL
MODEL 8
REMARK VINA RESULT:      -7.7      2.984      9.935
REMARK  Name = 
REMARK  5 active torsions:
REMARK  status: ('A' for Active; 'I' for Inactive)
REMARK    1  A    between atoms: C_2  and  C_14
REMARK    2  A    between atoms: N_3  and  C_4
REMARK    3  A    between atoms: C_4  and  C_5
REMARK    4  A    between atoms: N_17  and  C_18
REMARK    5  A    between atoms: C_24  and  N_25
REMARK                            x       y       z     vdW  Elec       q    Type
REMARK                         _______ _______ _______ _____ _____    ______ ____
ROOT
ATOM      1  C   UNL     1       0.292   9.735  20.358  0.00  0.00    +0.000 A 
ATOM      2  C   UNL     1      -0.025   8.990  21.512  0.00  0.00    +0.000 A 
ATOM      3  N   UNL     1      -0.513   9.736  22.505  0.00  0.00    +0.000 NA
ATOM      4  N   UNL     1      -0.624  10.987  21.975  0.00  0.00    +0.000 N 
ATOM      5  C   UNL     1      -0.077  11.030  20.700  0.00  0.00    +0.000 A 
ENDROOT
BRANCH   4   6
ATOM      6  C   UNL     1      -1.332  11.990  22.711  0.00  0.00    +0.000 A 
ATOM      7  C   UNL     1      -0.744  13.244  22.912  0.00  0.00    +0.000 A 
ATOM      8  C   UNL     1      -1.470  14.266  23.535  0.00  0.00    +0.000 A 
ATOM      9  C   UNL     1      -2.775  14.038  23.971  0.00  0.00    +0.000 A 
ATOM     10  C   UNL     1      -3.342  12.777  23.827  0.00  0.00    +0.000 A 
ATOM     11  C   UNL     1      -2.613  11.748  23.229  0.00  0.00    +0.000 A 
ENDBRANCH   4   6
BRANCH   5  12
ATOM     12  N   UNL     1       0.103  12.185  19.939  0.00  0.00    +0.000 N 
ATOM     13  C   UNL     1       1.275  12.909  19.817  0.00  0.00    +0.000 A 
ATOM     14  C   UNL     1       1.101  13.908  18.888  0.00  0.00    +0.000 A 
ATOM     15  C   UNL     1      -0.233  13.832  18.438  0.00  0.00    +0.000 A 
ATOM     16  C   UNL     1      -0.833  12.805  19.130  0.00  0.00    +0.000 A 
ENDBRANCH   5  12
BRANCH   1  18
ATOM     17  O   UNL     1       0.692   9.731  18.045  0.00  0.00    +0.000 OA
ATOM     18  C   UNL     1       0.989   9.304  19.157  0.00  0.00    +0.000 C 
ATOM     19  N   UNL     1       1.980   8.368  19.336  0.00  0.00    +0.000 N 
ATOM     20  H   UNL     1       2.222   8.042  20.259  0.00  0.00    +0.000 HD
BRANCH  19  21
ATOM     21  C   UNL     1       2.641   7.777  18.193  0.00  0.00    +0.000 C 
BRANCH  21  22
ATOM     22  C   UNL     1       2.921   6.309  18.397  0.00  0.00    +0.000 A 
ATOM     23  C   UNL     1       4.125   5.893  19.015  0.00  0.00    +0.000 A 
ATOM     24  C   UNL     1       4.405   4.537  19.213  0.00  0.00    +0.000 A 
ATOM     25  C   UNL     1       3.469   3.624  18.783  0.00  0.00    +0.000 A 
ATOM     26  C   UNL     1       2.294   4.018  18.187  0.00  0.00    +0.000 A 
ATOM     27  C   UNL     1       1.986   5.347  17.987  0.00  0.00    +0.000 A 
ATOM     28  O   UNL     1       1.513   2.963  17.833  0.00  0.00    +0.000 OA
ATOM     29  C   UNL     1       2.356   1.861  18.225  0.00  0.00    +0.000 C 
ATOM     30  O   UNL     1       3.574   2.272  18.880  0.00  0.00    +0.000 OA
ENDBRANCH  21  22
ENDBRANCH  19  21
ENDBRANCH   1  18
TORSDOF 5
ENDMDL
MODEL 9
REMARK VINA RESULT:      -7.7      3.005      9.927
REMARK  Name = 
REMARK  5 active torsions:
REMARK  status: ('A' for Active; 'I' for Inactive)
REMARK    1  A    between atoms: C_2  and  C_14
REMARK    2  A    between atoms: N_3  and  C_4
REMARK    3  A    between atoms: C_4  and  C_5
REMARK    4  A    between atoms: N_17  and  C_18
REMARK    5  A    between atoms: C_24  and  N_25
REMARK                            x       y       z     vdW  Elec       q    Type
REMARK                         _______ _______ _______ _____ _____    ______ ____
ROOT
ATOM      1  C   UNL     1       0.309   9.784  20.227  0.00  0.00    +0.000 A 
ATOM      2  C   UNL     1      -0.019   9.069  21.397  0.00  0.00    +0.000 A 
ATOM      3  N   UNL     1      -0.484   9.845  22.378  0.00  0.00    +0.000 NA
ATOM      4  N   UNL     1      -0.568  11.088  21.825  0.00  0.00    +0.000 N 
ATOM      5  C   UNL     1      -0.027  11.094  20.546  0.00  0.00    +0.000 A 
ENDROOT
BRANCH   4   6
ATOM      6  C   UNL     1      -1.248  12.122  22.545  0.00  0.00    +0.000 A 
ATOM      7  C   UNL     1      -2.545  11.894  23.020  0.00  0.00    +0.000 A 
ATOM      8  C   UNL     1      -3.177  12.856  23.817  0.00  0.00    +0.000 A 
ATOM      9  C   UNL     1      -2.526  14.050  24.130  0.00  0.00    +0.000 A 
ATOM     10  C   UNL     1      -1.262  14.305  23.611  0.00  0.00    +0.000 A 
ATOM     11  C   UNL     1      -0.638  13.360  22.796  0.00  0.00    +0.000 A 
ENDBRANCH   4   6
BRANCH   5  12
ATOM     12  N   UNL     1       0.176  12.230  19.763  0.00  0.00    +0.000 N 
ATOM     13  C   UNL     1      -0.774  12.865  18.983  0.00  0.00    +0.000 A 
ATOM     14  C   UNL     1      -0.238  14.018  18.458  0.00  0.00    +0.000 A 
ATOM     15  C   UNL     1       1.101  14.091  18.892  0.00  0.00    +0.000 A 
ATOM     16  C   UNL     1       1.343  12.964  19.645  0.00  0.00    +0.000 A 
ENDBRANCH   5  12
BRANCH   1  18
ATOM     17  O   UNL     1       0.685   9.715  17.911  0.00  0.00    +0.000 OA
ATOM     18  C   UNL     1       0.988   9.313  19.031  0.00  0.00    +0.000 C 
ATOM     19  N   UNL     1       1.971   8.372  19.225  0.00  0.00    +0.000 N 
ATOM     20  H   UNL     1       2.220   8.068  20.154  0.00  0.00    +0.000 HD
BRANCH  19  21
ATOM     21  C   UNL     1       2.614   7.743  18.092  0.00  0.00    +0.000 C 
BRANCH  21  22
ATOM     22  C   UNL     1       2.925   6.291  18.351  0.00  0.00    +0.000 A 
ATOM     23  C   UNL     1       4.108   5.928  19.038  0.00  0.00    +0.000 A 
ATOM     24  C   UNL     1       4.418   4.587  19.288  0.00  0.00    +0.000 A 
ATOM     25  C   UNL     1       3.530   3.635  18.839  0.00  0.00    +0.000 A 
ATOM     26  C   UNL     1       2.376   3.977  18.175  0.00  0.00    +0.000 A 
ATOM     27  C   UNL     1       2.040   5.290  17.923  0.00  0.00    +0.000 A 
ATOM     28  O   UNL     1       1.644   2.890  17.814  0.00  0.00    +0.000 OA
ATOM     29  C   UNL     1       2.498   1.824  18.278  0.00  0.00    +0.000 C 
ATOM     30  O   UNL     1       3.669   2.290  18.979  0.00  0.00    +0.000 OA
ENDBRANCH  21  22
ENDBRANCH  19  21
ENDBRANCH   1  18
TORSDOF 5
ENDMDL
