MODEL 1
REMARK VINA RESULT:      -6.8      0.000      0.000
REMARK  Name = 
REMARK  9 active torsions:
REMARK  status: ('A' for Active; 'I' for Inactive)
REMARK    1  A    between atoms: C_1  and  C_2
REMARK    2  A    between atoms: C_2  and  N_3
REMARK    3  A    between atoms: N_5  and  C_6
REMARK    4  A    between atoms: C_6  and  C_8
REMARK    5  A    between atoms: C_8  and  S_9
REMARK    6  A    between atoms: S_9  and  C_10
REMARK    7  A    between atoms: C_10  and  C_11
REMARK    8  A    between atoms: C_16  and  O_17
REMARK    9  A    between atoms: O_17  and  C_18
REMARK                            x       y       z     vdW  Elec       q    Type
REMARK                         _______ _______ _______ _____ _____    ______ ____
ROOT
ATOM      1  N   UNL     1       4.305   4.124  18.333  0.00  0.00    +0.000 N 
ATOM      2  C   UNL     1       5.015   4.536  17.202  0.00  0.00    +0.000 A 
ATOM      3  N   UNL     1       5.740   3.757  16.457  0.00  0.00    +0.000 NA
ATOM      4  S   UNL     1       4.795   6.290  16.951  0.00  0.00    +0.000 S 
ATOM      5  C   UNL     1       3.633   6.369  18.280  0.00  0.00    +0.000 A 
ATOM      6  C   UNL     1       2.904   7.485  18.657  0.00  0.00    +0.000 A 
ATOM      7  C   UNL     1       2.035   7.387  19.738  0.00  0.00    +0.000 A 
ATOM      8  C   UNL     1       1.922   6.168  20.421  0.00  0.00    +0.000 A 
ATOM      9  C   UNL     1       2.665   5.039  20.016  0.00  0.00    +0.000 A 
ATOM     10  C   UNL     1       3.521   5.128  18.923  0.00  0.00    +0.000 A 
ENDROOT
BRANCH   1  12
ATOM     11  C   UNL     1       3.165   1.961  18.110  0.00  0.00    +0.000 C 
ATOM     12  C   UNL     1       4.274   2.743  18.796  0.00  0.00    +0.000 C 
ENDBRANCH   1  12
BRANCH   3  13
ATOM     13  C   UNL     1       6.340   4.228  15.306  0.00  0.00    +0.000 C 
ATOM     14  O   UNL     1       7.448   4.757  15.246  0.00  0.00    +0.000 OA
BRANCH  13  15
ATOM     15  C   UNL     1       5.528   4.063  14.027  0.00  0.00    +0.000 C 
BRANCH  15  16
ATOM     16  S   UNL     1       6.539   3.741  12.550  0.00  0.00    +0.000 S 
BRANCH  16  17
ATOM     17  C   UNL     1       5.414   2.687  11.700  0.00  0.00    +0.000 C 
ATOM     18  C   UNL     1       4.118   3.328  11.300  0.00  0.00    +0.000 C 
ATOM     19  O   UNL     1       5.675   1.512  11.481  0.00  0.00    +0.000 OA
ENDBRANCH  16  17
ENDBRANCH  15  16
ENDBRANCH  13  15
ENDBRANCH   3  13
BRANCH   7  20
ATOM     20  O   UNL     1       1.366   8.545  20.011  0.00  0.00    +0.000 OA
ATOM     21  C   UNL     1       0.978   8.787  21.354  0.00  0.00    +0.000 C 
ENDBRANCH   7  20
TORSDOF 6
ENDMDL
MODEL 2
REMARK VINA RESULT:      -6.7      0.989      1.180
REMARK  Name = 
REMARK  9 active torsions:
REMARK  status: ('A' for Active; 'I' for Inactive)
REMARK    1  A    between atoms: C_1  and  C_2
REMARK    2  A    between atoms: C_2  and  N_3
REMARK    3  A    between atoms: N_5  and  C_6
REMARK    4  A    between atoms: C_6  and  C_8
REMARK    5  A    between atoms: C_8  and  S_9
REMARK    6  A    between atoms: S_9  and  C_10
REMARK    7  A    between atoms: C_10  and  C_11
REMARK    8  A    between atoms: C_16  and  O_17
REMARK    9  A    between atoms: O_17  and  C_18
REMARK                            x       y       z     vdW  Elec       q    Type
REMARK                         _______ _______ _______ _____ _____    ______ ____
ROOT
ATOM      1  N   UNL     1       4.503   4.625  18.294  0.00  0.00    +0.000 N 
ATOM      2  C   UNL     1       5.186   4.882  17.101  0.00  0.00    +0.000 A 
ATOM      3  N   UNL     1       5.953   4.032  16.487  0.00  0.00    +0.000 NA
ATOM      4  S   UNL     1       4.865   6.555  16.565  0.00  0.00    +0.000 S 
ATOM      5  C   UNL     1       3.703   6.789  17.877  0.00  0.00    +0.000 A 
ATOM      6  C   UNL     1       2.912   7.908  18.071  0.00  0.00    +0.000 A 
ATOM      7  C   UNL     1       2.052   7.943  19.163  0.00  0.00    +0.000 A 
ATOM      8  C   UNL     1       2.011   6.851  20.041  0.00  0.00    +0.000 A 
ATOM      9  C   UNL     1       2.816   5.713  19.820  0.00  0.00    +0.000 A 
ATOM     10  C   UNL     1       3.664   5.668  18.718  0.00  0.00    +0.000 A 
ENDROOT
BRANCH   1  12
ATOM     11  C   UNL     1       3.520   2.378  18.414  0.00  0.00    +0.000 C 
ATOM     12  C   UNL     1       4.553   3.340  18.980  0.00  0.00    +0.000 C 
ENDBRANCH   1  12
BRANCH   3  13
ATOM     13  C   UNL     1       6.522   4.338  15.268  0.00  0.00    +0.000 C 
ATOM     14  O   UNL     1       7.621   4.864  15.107  0.00  0.00    +0.000 OA
BRANCH  13  15
ATOM     15  C   UNL     1       5.685   3.981  14.044  0.00  0.00    +0.000 C 
BRANCH  15  16
ATOM     16  S   UNL     1       6.659   3.777  12.522  0.00  0.00    +0.000 S 
BRANCH  16  17
ATOM     17  C   UNL     1       5.585   2.662  11.685  0.00  0.00    +0.000 C 
ATOM     18  C   UNL     1       6.228   1.391  11.212  0.00  0.00    +0.000 C 
ATOM     19  O   UNL     1       4.408   2.929  11.488  0.00  0.00    +0.000 OA
ENDBRANCH  16  17
ENDBRANCH  15  16
ENDBRANCH  13  15
ENDBRANCH   3  13
BRANCH   7  20
ATOM     20  O   UNL     1       1.319   9.091  19.248  0.00  0.00    +0.000 OA
ATOM     21  C   UNL     1       1.457  10.045  18.207  0.00  0.00    +0.000 C 
ENDBRANCH   7  20
TORSDOF 6
ENDMDL
MODEL 3
REMARK VINA RESULT:      -6.5      3.004      4.253
REMARK  Name = 
REMARK  9 active torsions:
REMARK  status: ('A' for Active; 'I' for Inactive)
REMARK    1  A    between atoms: C_1  and  C_2
REMARK    2  A    between atoms: C_2  and  N_3
REMARK    3  A    between atoms: N_5  and  C_6
REMARK    4  A    between atoms: C_6  and  C_8
REMARK    5  A    between atoms: C_8  and  S_9
REMARK    6  A    between atoms: S_9  and  C_10
REMARK    7  A    between atoms: C_10  and  C_11
REMARK    8  A    between atoms: C_16  and  O_17
REMARK    9  A    between atoms: O_17  and  C_18
REMARK                            x       y       z     vdW  Elec       q    Type
REMARK                         _______ _______ _______ _____ _____    ______ ____
ROOT
ATOM      1  N   UNL     1       2.658   6.004  19.848  0.00  0.00    +0.000 N 
ATOM      2  C   UNL     1       3.443   5.650  18.747  0.00  0.00    +0.000 A 
ATOM      3  N   UNL     1       4.007   4.491  18.580  0.00  0.00    +0.000 NA
ATOM      4  S   UNL     1       3.573   7.031  17.623  0.00  0.00    +0.000 S 
ATOM      5  C   UNL     1       2.440   7.974  18.598  0.00  0.00    +0.000 A 
ATOM      6  C   UNL     1       1.942   9.226  18.279  0.00  0.00    +0.000 A 
ATOM      7  C   UNL     1       1.063   9.845  19.161  0.00  0.00    +0.000 A 
ATOM      8  C   UNL     1       0.709   9.191  20.349  0.00  0.00    +0.000 A 
ATOM      9  C   UNL     1       1.218   7.911  20.652  0.00  0.00    +0.000 A 
ATOM     10  C   UNL     1       2.083   7.282  19.763  0.00  0.00    +0.000 A 
ENDROOT
BRANCH   1  12
ATOM     11  C   UNL     1       1.182   4.185  20.584  0.00  0.00    +0.000 C 
ATOM     12  C   UNL     1       2.354   5.087  20.939  0.00  0.00    +0.000 C 
ENDBRANCH   1  12
BRANCH   3  13
ATOM     13  C   UNL     1       4.695   4.194  17.421  0.00  0.00    +0.000 C 
ATOM     14  O   UNL     1       4.185   3.836  16.362  0.00  0.00    +0.000 OA
BRANCH  13  15
ATOM     15  C   UNL     1       6.211   4.332  17.504  0.00  0.00    +0.000 C 
BRANCH  15  16
ATOM     16  S   UNL     1       6.912   5.487  16.286  0.00  0.00    +0.000 S 
BRANCH  16  17
ATOM     17  C   UNL     1       7.425   6.748  17.402  0.00  0.00    +0.000 C 
ATOM     18  C   UNL     1       7.799   6.270  18.775  0.00  0.00    +0.000 C 
ATOM     19  O   UNL     1       7.446   7.926  17.076  0.00  0.00    +0.000 OA
ENDBRANCH  16  17
ENDBRANCH  15  16
ENDBRANCH  13  15
ENDBRANCH   3  13
BRANCH   7  20
ATOM     20  O   UNL     1       0.633  11.070  18.738  0.00  0.00    +0.000 OA
ATOM     21  C   UNL     1      -0.766  11.283  18.637  0.00  0.00    +0.000 C 
ENDBRANCH   7  20
TORSDOF 6
ENDMDL
MODEL 4
REMARK VINA RESULT:      -6.5      4.305      6.400
REMARK  Name = 
REMARK  9 active torsions:
REMARK  status: ('A' for Active; 'I' for Inactive)
REMARK    1  A    between atoms: C_1  and  C_2
REMARK    2  A    between atoms: C_2  and  N_3
REMARK    3  A    between atoms: N_5  and  C_6
REMARK    4  A    between atoms: C_6  and  C_8
REMARK    5  A    between atoms: C_8  and  S_9
REMARK    6  A    between atoms: S_9  and  C_10
REMARK    7  A    between atoms: C_10  and  C_11
REMARK    8  A    between atoms: C_16  and  O_17
REMARK    9  A    between atoms: O_17  and  C_18
REMARK                            x       y       z     vdW  Elec       q    Type
REMARK                         _______ _______ _______ _____ _____    ______ ____
ROOT
ATOM      1  N   UNL     1       5.510   5.278  16.619  0.00  0.00    +0.000 N 
ATOM      2  C   UNL     1       6.364   5.988  17.468  0.00  0.00    +0.000 A 
ATOM      3  N   UNL     1       7.210   6.894  17.079  0.00  0.00    +0.000 NA
ATOM      4  S   UNL     1       6.133   5.449  19.154  0.00  0.00    +0.000 S 
ATOM      5  C   UNL     1       4.790   4.405  18.673  0.00  0.00    +0.000 A 
ATOM      6  C   UNL     1       3.984   3.673  19.527  0.00  0.00    +0.000 A 
ATOM      7  C   UNL     1       2.971   2.887  18.988  0.00  0.00    +0.000 A 
ATOM      8  C   UNL     1       2.795   2.851  17.598  0.00  0.00    +0.000 A 
ATOM      9  C   UNL     1       3.620   3.613  16.744  0.00  0.00    +0.000 A 
ATOM     10  C   UNL     1       4.622   4.415  17.281  0.00  0.00    +0.000 A 
ENDROOT
BRANCH   1  12
ATOM     11  C   UNL     1       6.349   4.516  14.441  0.00  0.00    +0.000 C 
ATOM     12  C   UNL     1       5.452   5.497  15.180  0.00  0.00    +0.000 C 
ENDBRANCH   1  12
BRANCH   3  13
ATOM     13  C   UNL     1       7.956   7.611  17.994  0.00  0.00    +0.000 C 
ATOM     14  O   UNL     1       8.552   7.133  18.956  0.00  0.00    +0.000 OA
BRANCH  13  15
ATOM     15  C   UNL     1       8.017   9.116  17.757  0.00  0.00    +0.000 C 
BRANCH  15  16
ATOM     16  S   UNL     1       9.057  10.007  18.953  0.00  0.00    +0.000 S 
BRANCH  16  17
ATOM     17  C   UNL     1       9.370  11.446  17.989  0.00  0.00    +0.000 C 
ATOM     18  C   UNL     1      10.819  11.732  17.723  0.00  0.00    +0.000 C 
ATOM     19  O   UNL     1       8.463  12.165  17.594  0.00  0.00    +0.000 OA
ENDBRANCH  16  17
ENDBRANCH  15  16
ENDBRANCH  13  15
ENDBRANCH   3  13
BRANCH   7  20
ATOM     20  O   UNL     1       2.238   2.218  19.926  0.00  0.00    +0.000 OA
ATOM     21  C   UNL     1       1.215   2.931  20.602  0.00  0.00    +0.000 C 
ENDBRANCH   7  20
TORSDOF 6
ENDMDL
MODEL 5
REMARK VINA RESULT:      -6.3      3.042      8.523
REMARK  Name = 
REMARK  9 active torsions:
REMARK  status: ('A' for Active; 'I' for Inactive)
REMARK    1  A    between atoms: C_1  and  C_2
REMARK    2  A    between atoms: C_2  and  N_3
REMARK    3  A    between atoms: N_5  and  C_6
REMARK    4  A    between atoms: C_6  and  C_8
REMARK    5  A    between atoms: C_8  and  S_9
REMARK    6  A    between atoms: S_9  and  C_10
REMARK    7  A    between atoms: C_10  and  C_11
REMARK    8  A    between atoms: C_16  and  O_17
REMARK    9  A    between atoms: O_17  and  C_18
REMARK                            x       y       z     vdW  Elec       q    Type
REMARK                         _______ _______ _______ _____ _____    ______ ____
ROOT
ATOM      1  N   UNL     1       2.697   5.717  19.621  0.00  0.00    +0.000 N 
ATOM      2  C   UNL     1       2.175   7.010  19.725  0.00  0.00    +0.000 A 
ATOM      3  N   UNL     1       1.425   7.431  20.699  0.00  0.00    +0.000 NA
ATOM      4  S   UNL     1       2.674   7.981  18.313  0.00  0.00    +0.000 S 
ATOM      5  C   UNL     1       3.690   6.663  17.721  0.00  0.00    +0.000 A 
ATOM      6  C   UNL     1       4.531   6.716  16.622  0.00  0.00    +0.000 A 
ATOM      7  C   UNL     1       5.260   5.583  16.278  0.00  0.00    +0.000 A 
ATOM      8  C   UNL     1       5.123   4.418  17.045  0.00  0.00    +0.000 A 
ATOM      9  C   UNL     1       4.269   4.386  18.167  0.00  0.00    +0.000 A 
ATOM     10  C   UNL     1       3.553   5.523  18.526  0.00  0.00    +0.000 A 
ENDROOT
BRANCH   1  12
ATOM     11  C   UNL     1       1.209   3.898  20.334  0.00  0.00    +0.000 C 
ATOM     12  C   UNL     1       2.477   4.685  20.627  0.00  0.00    +0.000 C 
ENDBRANCH   1  12
BRANCH   3  13
ATOM     13  C   UNL     1       1.023   8.750  20.768  0.00  0.00    +0.000 C 
ATOM     14  O   UNL     1       0.531   9.393  19.845  0.00  0.00    +0.000 OA
BRANCH  13  15
ATOM     15  C   UNL     1       1.227   9.428  22.118  0.00  0.00    +0.000 C 
BRANCH  15  16
ATOM     16  S   UNL     1      -0.303   9.615  23.085  0.00  0.00    +0.000 S 
BRANCH  16  17
ATOM     17  C   UNL     1      -0.681  11.275  22.638  0.00  0.00    +0.000 C 
ATOM     18  C   UNL     1      -2.052  11.744  23.028  0.00  0.00    +0.000 C 
ATOM     19  O   UNL     1       0.117  11.975  22.030  0.00  0.00    +0.000 OA
ENDBRANCH  16  17
ENDBRANCH  15  16
ENDBRANCH  13  15
ENDBRANCH   3  13
BRANCH   7  20
ATOM     20  O   UNL     1       6.059   5.755  15.184  0.00  0.00    +0.000 OA
ATOM     21  C   UNL     1       6.762   4.627  14.690  0.00  0.00    +0.000 C 
ENDBRANCH   7  20
TORSDOF 6
ENDMDL
MODEL 6
REMARK VINA RESULT:      -6.3      2.938      4.366
REMARK  Name = 
REMARK  9 active torsions:
REMARK  status: ('A' for Active; 'I' for Inactive)
REMARK    1  A    between atoms: C_1  and  C_2
REMARK    2  A    between atoms: C_2  and  N_3
REMARK    3  A    between atoms: N_5  and  C_6
REMARK    4  A    between atoms: C_6  and  C_8
REMARK    5  A    between atoms: C_8  and  S_9
REMARK    6  A    between atoms: S_9  and  C_10
REMARK    7  A    between atoms: C_10  and  C_11
REMARK    8  A    between atoms: C_16  and  O_17
REMARK    9  A    between atoms: O_17  and  C_18
REMARK                            x       y       z     vdW  Elec       q    Type
REMARK                         _______ _______ _______ _____ _____    ______ ____
ROOT
ATOM      1  N   UNL     1       2.880   5.964  19.595  0.00  0.00    +0.000 N 
ATOM      2  C   UNL     1       3.591   5.845  18.398  0.00  0.00    +0.000 A 
ATOM      3  N   UNL     1       4.252   4.788  18.029  0.00  0.00    +0.000 NA
ATOM      4  S   UNL     1       3.474   7.364  17.467  0.00  0.00    +0.000 S 
ATOM      5  C   UNL     1       2.347   8.041  18.648  0.00  0.00    +0.000 A 
ATOM      6  C   UNL     1       1.695   9.258  18.544  0.00  0.00    +0.000 A 
ATOM      7  C   UNL     1       0.844   9.655  19.569  0.00  0.00    +0.000 A 
ATOM      8  C   UNL     1       0.671   8.819  20.681  0.00  0.00    +0.000 A 
ATOM      9  C   UNL     1       1.334   7.577  20.764  0.00  0.00    +0.000 A 
ATOM     10  C   UNL     1       2.172   7.169  19.732  0.00  0.00    +0.000 A 
ENDROOT
BRANCH   1  12
ATOM     11  C   UNL     1       1.513   4.067  20.346  0.00  0.00    +0.000 C 
ATOM     12  C   UNL     1       2.775   4.887  20.571  0.00  0.00    +0.000 C 
ENDBRANCH   1  12
BRANCH   3  13
ATOM     13  C   UNL     1       4.855   4.723  16.789  0.00  0.00    +0.000 C 
ATOM     14  O   UNL     1       4.384   4.172  15.797  0.00  0.00    +0.000 OA
BRANCH  13  15
ATOM     15  C   UNL     1       6.218   5.398  16.685  0.00  0.00    +0.000 C 
BRANCH  15  16
ATOM     16  S   UNL     1       7.522   4.575  17.650  0.00  0.00    +0.000 S 
BRANCH  16  17
ATOM     17  C   UNL     1       7.667   5.763  18.940  0.00  0.00    +0.000 C 
ATOM     18  C   UNL     1       8.026   7.150  18.493  0.00  0.00    +0.000 C 
ATOM     19  O   UNL     1       7.509   5.459  20.115  0.00  0.00    +0.000 OA
ENDBRANCH  16  17
ENDBRANCH  15  16
ENDBRANCH  13  15
ENDBRANCH   3  13
BRANCH   7  20
ATOM     20  O   UNL     1       0.253  10.867  19.354  0.00  0.00    +0.000 OA
ATOM     21  C   UNL     1      -0.835  10.923  18.446  0.00  0.00    +0.000 C 
ENDBRANCH   7  20
TORSDOF 6
ENDMDL
MODEL 7
REMARK VINA RESULT:      -6.2      2.353      3.719
REMARK  Name = 
REMARK  9 active torsions:
REMARK  status: ('A' for Active; 'I' for Inactive)
REMARK    1  A    between atoms: C_1  and  C_2
REMARK    2  A    between atoms: C_2  and  N_3
REMARK    3  A    between atoms: N_5  and  C_6
REMARK    4  A    between atoms: C_6  and  C_8
REMARK    5  A    between atoms: C_8  and  S_9
REMARK    6  A    between atoms: S_9  and  C_10
REMARK    7  A    between atoms: C_10  and  C_11
REMARK    8  A    between atoms: C_16  and  O_17
REMARK    9  A    between atoms: O_17  and  C_18
REMARK                            x       y       z     vdW  Elec       q    Type
REMARK                         _______ _______ _______ _____ _____    ______ ____
ROOT
ATOM      1  N   UNL     1       3.361   4.416  18.743  0.00  0.00    +0.000 N 
ATOM      2  C   UNL     1       4.163   4.866  17.690  0.00  0.00    +0.000 A 
ATOM      3  N   UNL     1       4.844   4.096  16.895  0.00  0.00    +0.000 NA
ATOM      4  S   UNL     1       4.127   6.649  17.617  0.00  0.00    +0.000 S 
ATOM      5  C   UNL     1       2.915   6.712  18.902  0.00  0.00    +0.000 A 
ATOM      6  C   UNL     1       2.280   7.852  19.365  0.00  0.00    +0.000 A 
ATOM      7  C   UNL     1       1.354   7.734  20.395  0.00  0.00    +0.000 A 
ATOM      8  C   UNL     1       1.090   6.471  20.942  0.00  0.00    +0.000 A 
ATOM      9  C   UNL     1       1.738   5.319  20.449  0.00  0.00    +0.000 A 
ATOM     10  C   UNL     1       2.652   5.430  19.406  0.00  0.00    +0.000 A 
ENDROOT
BRANCH   1  12
ATOM     11  C   UNL     1       4.199   2.532  20.076  0.00  0.00    +0.000 C 
ATOM     12  C   UNL     1       3.174   3.005  19.057  0.00  0.00    +0.000 C 
ENDBRANCH   1  12
BRANCH   3  13
ATOM     13  C   UNL     1       5.542   4.618  15.825  0.00  0.00    +0.000 C 
ATOM     14  O   UNL     1       5.176   4.584  14.652  0.00  0.00    +0.000 OA
BRANCH  13  15
ATOM     15  C   UNL     1       6.873   5.279  16.167  0.00  0.00    +0.000 C 
BRANCH  15  16
ATOM     16  S   UNL     1       7.763   4.475  17.534  0.00  0.00    +0.000 S 
BRANCH  16  17
ATOM     17  C   UNL     1       7.637   5.775  18.714  0.00  0.00    +0.000 C 
ATOM     18  C   UNL     1       7.819   7.158  18.161  0.00  0.00    +0.000 C 
ATOM     19  O   UNL     1       7.441   5.550  19.900  0.00  0.00    +0.000 OA
ENDBRANCH  16  17
ENDBRANCH  15  16
ENDBRANCH  13  15
ENDBRANCH   3  13
BRANCH   7  20
ATOM     20  O   UNL     1       0.788   8.921  20.763  0.00  0.00    +0.000 OA
ATOM     21  C   UNL     1      -0.087   8.922  21.879  0.00  0.00    +0.000 C 
ENDBRANCH   7  20
TORSDOF 6
ENDMDL
MODEL 8
REMARK VINA RESULT:      -6.1      2.429      3.115
REMARK  Name = 
REMARK  9 active torsions:
REMARK  status: ('A' for Active; 'I' for Inactive)
REMARK    1  A    between atoms: C_1  and  C_2
REMARK    2  A    between atoms: C_2  and  N_3
REMARK    3  A    between atoms: N_5  and  C_6
REMARK    4  A    between atoms: C_6  and  C_8
REMARK    5  A    between atoms: C_8  and  S_9
REMARK    6  A    between atoms: S_9  and  C_10
REMARK    7  A    between atoms: C_10  and  C_11
REMARK    8  A    between atoms: C_16  and  O_17
REMARK    9  A    between atoms: O_17  and  C_18
REMARK                            x       y       z     vdW  Elec       q    Type
REMARK                         _______ _______ _______ _____ _____    ______ ____
ROOT
ATOM      1  N   UNL     1       6.426   4.870  17.652  0.00  0.00    +0.000 N 
ATOM      2  C   UNL     1       6.456   4.911  16.255  0.00  0.00    +0.000 A 
ATOM      3  N   UNL     1       7.531   5.050  15.539  0.00  0.00    +0.000 NA
ATOM      4  S   UNL     1       4.798   4.769  15.607  0.00  0.00    +0.000 S 
ATOM      5  C   UNL     1       4.150   4.501  17.229  0.00  0.00    +0.000 A 
ATOM      6  C   UNL     1       2.835   4.198  17.539  0.00  0.00    +0.000 A 
ATOM      7  C   UNL     1       2.481   4.028  18.873  0.00  0.00    +0.000 A 
ATOM      8  C   UNL     1       3.457   4.172  19.868  0.00  0.00    +0.000 A 
ATOM      9  C   UNL     1       4.795   4.470  19.532  0.00  0.00    +0.000 A 
ATOM     10  C   UNL     1       5.157   4.623  18.198  0.00  0.00    +0.000 A 
ENDROOT
BRANCH   1  12
ATOM     11  C   UNL     1       7.943   6.394  18.837  0.00  0.00    +0.000 C 
ATOM     12  C   UNL     1       7.624   4.951  18.477  0.00  0.00    +0.000 C 
ENDBRANCH   1  12
BRANCH   3  13
ATOM     13  C   UNL     1       7.481   4.993  14.160  0.00  0.00    +0.000 C 
ATOM     14  O   UNL     1       8.084   5.743  13.396  0.00  0.00    +0.000 OA
BRANCH  13  15
ATOM     15  C   UNL     1       6.594   3.899  13.579  0.00  0.00    +0.000 C 
BRANCH  15  16
ATOM     16  S   UNL     1       6.914   3.547  11.824  0.00  0.00    +0.000 S 
BRANCH  16  17
ATOM     17  C   UNL     1       5.525   2.509  11.518  0.00  0.00    +0.000 C 
ATOM     18  C   UNL     1       4.208   3.220  11.421  0.00  0.00    +0.000 C 
ATOM     19  O   UNL     1       5.639   1.296  11.421  0.00  0.00    +0.000 OA
ENDBRANCH  16  17
ENDBRANCH  15  16
ENDBRANCH  13  15
ENDBRANCH   3  13
BRANCH   7  20
ATOM     20  O   UNL     1       1.162   3.725  19.056  0.00  0.00    +0.000 OA
ATOM     21  C   UNL     1       0.755   2.381  18.857  0.00  0.00    +0.000 C 
ENDBRANCH   7  20
TORSDOF 6
ENDMDL
MODEL 9
REMARK VINA RESULT:      -6.1      1.906      3.102
REMARK  Name = 
REMARK  9 active torsions:
REMARK  status: ('A' for Active; 'I' for Inactive)
REMARK    1  A    between atoms: C_1  and  C_2
REMARK    2  A    between atoms: C_2  and  N_3
REMARK    3  A    between atoms: N_5  and  C_6
REMARK    4  A    between atoms: C_6  and  C_8
REMARK    5  A    between atoms: C_8  and  S_9
REMARK    6  A    between atoms: S_9  and  C_10
REMARK    7  A    between atoms: C_10  and  C_11
REMARK    8  A    between atoms: C_16  and  O_17
REMARK    9  A    between atoms: O_17  and  C_18
REMARK                            x       y       z     vdW  Elec       q    Type
REMARK                         _______ _______ _______ _____ _____    ______ ____
ROOT
ATOM      1  N   UNL     1       3.847   6.308  17.619  0.00  0.00    +0.000 N 
ATOM      2  C   UNL     1       4.593   5.430  16.826  0.00  0.00    +0.000 A 
ATOM      3  N   UNL     1       5.412   5.794  15.886  0.00  0.00    +0.000 NA
ATOM      4  S   UNL     1       4.233   3.742  17.283  0.00  0.00    +0.000 S 
ATOM      5  C   UNL     1       3.217   4.286  18.624  0.00  0.00    +0.000 A 
ATOM      6  C   UNL     1       2.613   3.472  19.567  0.00  0.00    +0.000 A 
ATOM      7  C   UNL     1       1.832   4.056  20.558  0.00  0.00    +0.000 A 
ATOM      8  C   UNL     1       1.669   5.448  20.573  0.00  0.00    +0.000 A 
ATOM      9  C   UNL     1       2.301   6.262  19.610  0.00  0.00    +0.000 A 
ATOM     10  C   UNL     1       3.099   5.683  18.629  0.00  0.00    +0.000 A 
ENDROOT
BRANCH   1  12
ATOM     11  C   UNL     1       2.544   8.387  17.538  0.00  0.00    +0.000 C 
ATOM     12  C   UNL     1       3.928   7.757  17.496  0.00  0.00    +0.000 C 
ENDBRANCH   1  12
BRANCH   3  13
ATOM     13  C   UNL     1       6.176   4.865  15.208  0.00  0.00    +0.000 C 
ATOM     14  O   UNL     1       7.338   4.569  15.474  0.00  0.00    +0.000 OA
BRANCH  13  15
ATOM     15  C   UNL     1       5.485   4.174  14.038  0.00  0.00    +0.000 C 
BRANCH  15  16
ATOM     16  S   UNL     1       6.601   3.766  12.661  0.00  0.00    +0.000 S 
BRANCH  16  17
ATOM     17  C   UNL     1       5.508   2.731  11.750  0.00  0.00    +0.000 C 
ATOM     18  C   UNL     1       4.170   3.334  11.437  0.00  0.00    +0.000 C 
ATOM     19  O   UNL     1       5.821   1.594  11.425  0.00  0.00    +0.000 OA
ENDBRANCH  16  17
ENDBRANCH  15  16
ENDBRANCH  13  15
ENDBRANCH   3  13
BRANCH   7  20
ATOM     20  O   UNL     1       1.295   3.157  21.434  0.00  0.00    +0.000 OA
ATOM     21  C   UNL     1       2.088   2.043  21.812  0.00  0.00    +0.000 C 
ENDBRANCH   7  20
TORSDOF 6
ENDMDL
