MODEL 1
REMARK VINA RESULT:      -8.2      0.000      0.000
REMARK  Name = 
REMARK  7 active torsions:
REMARK  status: ('A' for Active; 'I' for Inactive)
REMARK    1  A    between atoms: C_1  and  C_2
REMARK    2  A    between atoms: N_4  and  C_5
REMARK    3  A    between atoms: C_16  and  C_18
REMARK    4  A    between atoms: C_18  and  C_19
REMARK    5  A    between atoms: C_19  and  N_20
REMARK    6  A    between atoms: C_19  and  C_21
REMARK    7  A    between atoms: C_21  and  C_22
REMARK                            x       y       z     vdW  Elec       q    Type
REMARK                         _______ _______ _______ _____ _____    ______ ____
ROOT
ATOM      1  C   UNL     1      -0.375  11.024  22.547  0.00  0.00    +0.000 C 
ATOM      2  C   UNL     1       0.379  11.360  21.312  0.00  0.00    +0.000 A 
ATOM      3  N   UNL     1       0.800  12.612  21.098  0.00  0.00    +0.000 NA
ATOM      4  N   UNL     1       1.294  12.616  19.830  0.00  0.00    +0.000 N 
ATOM      5  C   UNL     1       1.262  11.351  19.284  0.00  0.00    +0.000 A 
ATOM      6  C   UNL     1       0.753  10.505  20.254  0.00  0.00    +0.000 A 
ATOM      7  C   UNL     1       0.659   9.022  20.109  0.00  0.00    +0.000 C 
ATOM      8  N   UNL     1       1.479   8.604  18.950  0.00  0.00    +0.000 N 
ATOM      9  C   UNL     1       2.353   7.542  19.098  0.00  0.00    +0.000 C 
ATOM     10  O   UNL     1       2.483   6.961  20.180  0.00  0.00    +0.000 OA
ATOM     11  C   UNL     1       1.312   9.426  17.740  0.00  0.00    +0.000 C 
ATOM     12  C   UNL     1       1.822  10.868  17.987  0.00  0.00    +0.000 C 
ENDROOT
BRANCH   4  13
ATOM     13  C   UNL     1       1.745  13.830  19.258  0.00  0.00    +0.000 A 
ATOM     14  C   UNL     1       3.060  13.907  18.763  0.00  0.00    +0.000 A 
ATOM     15  C   UNL     1       3.517  15.094  18.185  0.00  0.00    +0.000 A 
ATOM     16  C   UNL     1       2.676  16.201  18.140  0.00  0.00    +0.000 A 
ATOM     17  F   UNL     1       3.123  17.346  17.607  0.00  0.00    +0.000 F 
ATOM     18  C   UNL     1       1.387  16.144  18.652  0.00  0.00    +0.000 A 
ATOM     19  C   UNL     1       0.916  14.955  19.211  0.00  0.00    +0.000 A 
ENDBRANCH   4  13
BRANCH   9  20
ATOM     20  C   UNL     1       3.123   7.011  17.894  0.00  0.00    +0.000 C 
BRANCH  20  21
ATOM     21  C   UNL     1       4.279   6.032  18.165  0.00  0.00    +0.000 C 
BRANCH  21  22
ATOM     22  N   UNL     1       5.482   6.506  17.446  0.00  0.00    +0.000 NA
ATOM     23  H   UNL     1       5.937   5.747  16.940  0.00  0.00    +0.000 HD
ATOM     24  H   UNL     1       6.186   6.840  18.111  0.00  0.00    +0.000 HD
ENDBRANCH  21  22
BRANCH  21  25
ATOM     25  C   UNL     1       3.931   4.569  17.797  0.00  0.00    +0.000 C 
BRANCH  25  26
ATOM     26  C   UNL     1       2.982   3.912  18.781  0.00  0.00    +0.000 A 
ATOM     27  C   UNL     1       3.466   3.338  19.970  0.00  0.00    +0.000 A 
ATOM     28  C   UNL     1       2.581   2.736  20.861  0.00  0.00    +0.000 A 
ATOM     29  F   UNL     1       3.058   2.197  21.991  0.00  0.00    +0.000 F 
ATOM     30  C   UNL     1       1.216   2.689  20.607  0.00  0.00    +0.000 A 
ATOM     31  C   UNL     1       0.725   3.243  19.425  0.00  0.00    +0.000 A 
ATOM     32  C   UNL     1       1.607   3.844  18.526  0.00  0.00    +0.000 A 
ATOM     33  F   UNL     1       1.116   4.350  17.385  0.00  0.00    +0.000 F 
ENDBRANCH  25  26
ENDBRANCH  21  25
ENDBRANCH  20  21
ENDBRANCH   9  20
TORSDOF 6
ENDMDL
MODEL 2
REMARK VINA RESULT:      -8.2      1.077      1.203
REMARK  Name = 
REMARK  7 active torsions:
REMARK  status: ('A' for Active; 'I' for Inactive)
REMARK    1  A    between atoms: C_1  and  C_2
REMARK    2  A    between atoms: N_4  and  C_5
REMARK    3  A    between atoms: C_16  and  C_18
REMARK    4  A    between atoms: C_18  and  C_19
REMARK    5  A    between atoms: C_19  and  N_20
REMARK    6  A    between atoms: C_19  and  C_21
REMARK    7  A    between atoms: C_21  and  C_22
REMARK                            x       y       z     vdW  Elec       q    Type
REMARK                         _______ _______ _______ _____ _____    ______ ____
ROOT
ATOM      1  C   UNL     1       0.177   9.387  22.919  0.00  0.00    +0.000 C 
ATOM      2  C   UNL     1       0.647   9.996  21.648  0.00  0.00    +0.000 A 
ATOM      3  N   UNL     1       0.708  11.326  21.519  0.00  0.00    +0.000 NA
ATOM      4  N   UNL     1       1.007  11.549  20.211  0.00  0.00    +0.000 N 
ATOM      5  C   UNL     1       1.218  10.363  19.543  0.00  0.00    +0.000 A 
ATOM      6  C   UNL     1       1.075   9.346  20.472  0.00  0.00    +0.000 A 
ATOM      7  C   UNL     1       1.336   7.904  20.185  0.00  0.00    +0.000 C 
ATOM      8  N   UNL     1       2.068   7.799  18.903  0.00  0.00    +0.000 N 
ATOM      9  C   UNL     1       3.191   6.994  18.839  0.00  0.00    +0.000 C 
ATOM     10  O   UNL     1       3.609   6.392  19.832  0.00  0.00    +0.000 OA
ATOM     11  C   UNL     1       1.537   8.633  17.812  0.00  0.00    +0.000 C 
ATOM     12  C   UNL     1       1.698  10.136  18.147  0.00  0.00    +0.000 C 
ENDROOT
BRANCH   4  13
ATOM     13  C   UNL     1       1.057  12.876  19.720  0.00  0.00    +0.000 A 
ATOM     14  C   UNL     1       2.292  13.551  19.693  0.00  0.00    +0.000 A 
ATOM     15  C   UNL     1       2.361  14.856  19.202  0.00  0.00    +0.000 A 
ATOM     16  C   UNL     1       1.198  15.491  18.779  0.00  0.00    +0.000 A 
ATOM     17  F   UNL     1       1.261  16.751  18.330  0.00  0.00    +0.000 F 
ATOM     18  C   UNL     1      -0.030  14.845  18.829  0.00  0.00    +0.000 A 
ATOM     19  C   UNL     1      -0.103  13.532  19.298  0.00  0.00    +0.000 A 
ENDBRANCH   4  13
BRANCH   9  20
ATOM     20  C   UNL     1       3.897   6.770  17.507  0.00  0.00    +0.000 C 
BRANCH  20  21
ATOM     21  C   UNL     1       4.679   5.456  17.328  0.00  0.00    +0.000 C 
BRANCH  21  22
ATOM     22  N   UNL     1       5.704   5.652  16.279  0.00  0.00    +0.000 NA
ATOM     23  H   UNL     1       6.647   5.568  16.659  0.00  0.00    +0.000 HD
ATOM     24  H   UNL     1       5.653   6.604  15.905  0.00  0.00    +0.000 HD
ENDBRANCH  21  22
BRANCH  21  25
ATOM     25  C   UNL     1       3.765   4.246  17.018  0.00  0.00    +0.000 C 
BRANCH  25  26
ATOM     26  C   UNL     1       3.024   3.725  18.234  0.00  0.00    +0.000 A 
ATOM     27  C   UNL     1       3.723   3.124  19.296  0.00  0.00    +0.000 A 
ATOM     28  C   UNL     1       3.028   2.648  20.404  0.00  0.00    +0.000 A 
ATOM     29  F   UNL     1       3.709   2.079  21.408  0.00  0.00    +0.000 F 
ATOM     30  C   UNL     1       1.645   2.755  20.494  0.00  0.00    +0.000 A 
ATOM     31  C   UNL     1       0.940   3.339  19.442  0.00  0.00    +0.000 A 
ATOM     32  C   UNL     1       1.630   3.814  18.327  0.00  0.00    +0.000 A 
ATOM     33  F   UNL     1       0.929   4.350  17.317  0.00  0.00    +0.000 F 
ENDBRANCH  25  26
ENDBRANCH  21  25
ENDBRANCH  20  21
ENDBRANCH   9  20
TORSDOF 6
ENDMDL
MODEL 3
REMARK VINA RESULT:      -8.1      1.352      1.867
REMARK  Name = 
REMARK  7 active torsions:
REMARK  status: ('A' for Active; 'I' for Inactive)
REMARK    1  A    between atoms: C_1  and  C_2
REMARK    2  A    between atoms: N_4  and  C_5
REMARK    3  A    between atoms: C_16  and  C_18
REMARK    4  A    between atoms: C_18  and  C_19
REMARK    5  A    between atoms: C_19  and  N_20
REMARK    6  A    between atoms: C_19  and  C_21
REMARK    7  A    between atoms: C_21  and  C_22
REMARK                            x       y       z     vdW  Elec       q    Type
REMARK                         _______ _______ _______ _____ _____    ______ ____
ROOT
ATOM      1  C   UNL     1       0.044   9.630  22.966  0.00  0.00    +0.000 C 
ATOM      2  C   UNL     1       0.523  10.250  21.703  0.00  0.00    +0.000 A 
ATOM      3  N   UNL     1       0.638  11.579  21.605  0.00  0.00    +0.000 NA
ATOM      4  N   UNL     1       0.930  11.821  20.299  0.00  0.00    +0.000 N 
ATOM      5  C   UNL     1       1.083  10.643  19.600  0.00  0.00    +0.000 A 
ATOM      6  C   UNL     1       0.910   9.611  20.506  0.00  0.00    +0.000 A 
ATOM      7  C   UNL     1       1.106   8.167  20.182  0.00  0.00    +0.000 C 
ATOM      8  N   UNL     1       1.818   8.063  18.889  0.00  0.00    +0.000 N 
ATOM      9  C   UNL     1       2.906   7.214  18.791  0.00  0.00    +0.000 C 
ATOM     10  O   UNL     1       3.311   6.571  19.764  0.00  0.00    +0.000 OA
ATOM     11  C   UNL     1       1.309   8.944  17.825  0.00  0.00    +0.000 C 
ATOM     12  C   UNL     1       1.537  10.431  18.194  0.00  0.00    +0.000 C 
ENDROOT
BRANCH   4  13
ATOM     13  C   UNL     1       1.030  13.157  19.839  0.00  0.00    +0.000 A 
ATOM     14  C   UNL     1       2.245  13.848  20.000  0.00  0.00    +0.000 A 
ATOM     15  C   UNL     1       2.364  15.162  19.542  0.00  0.00    +0.000 A 
ATOM     16  C   UNL     1       1.264  15.788  18.964  0.00  0.00    +0.000 A 
ATOM     17  F   UNL     1       1.371  17.056  18.547  0.00  0.00    +0.000 F 
ATOM     18  C   UNL     1       0.052  15.125  18.828  0.00  0.00    +0.000 A 
ATOM     19  C   UNL     1      -0.068  13.804  19.263  0.00  0.00    +0.000 A 
ENDBRANCH   4  13
BRANCH   9  20
ATOM     20  C   UNL     1       3.586   6.994  17.445  0.00  0.00    +0.000 C 
BRANCH  20  21
ATOM     21  C   UNL     1       4.767   6.007  17.398  0.00  0.00    +0.000 C 
BRANCH  21  22
ATOM     22  N   UNL     1       5.847   6.598  16.576  0.00  0.00    +0.000 NA
ATOM     23  H   UNL     1       5.527   6.800  15.629  0.00  0.00    +0.000 HD
ATOM     24  H   UNL     1       6.612   5.927  16.460  0.00  0.00    +0.000 HD
ENDBRANCH  21  22
BRANCH  21  25
ATOM     25  C   UNL     1       4.361   4.603  16.887  0.00  0.00    +0.000 C 
BRANCH  25  26
ATOM     26  C   UNL     1       3.639   3.771  17.928  0.00  0.00    +0.000 A 
ATOM     27  C   UNL     1       2.278   3.450  17.772  0.00  0.00    +0.000 A 
ATOM     28  C   UNL     1       1.630   2.687  18.740  0.00  0.00    +0.000 A 
ATOM     29  F   UNL     1       0.333   2.389  18.575  0.00  0.00    +0.000 F 
ATOM     30  C   UNL     1       2.297   2.225  19.867  0.00  0.00    +0.000 A 
ATOM     31  C   UNL     1       3.643   2.547  20.039  0.00  0.00    +0.000 A 
ATOM     32  C   UNL     1       4.298   3.314  19.075  0.00  0.00    +0.000 A 
ATOM     33  F   UNL     1       5.587   3.631  19.273  0.00  0.00    +0.000 F 
ENDBRANCH  25  26
ENDBRANCH  21  25
ENDBRANCH  20  21
ENDBRANCH   9  20
TORSDOF 6
ENDMDL
MODEL 4
REMARK VINA RESULT:      -7.8      4.774      7.595
REMARK  Name = 
REMARK  7 active torsions:
REMARK  status: ('A' for Active; 'I' for Inactive)
REMARK    1  A    between atoms: C_1  and  C_2
REMARK    2  A    between atoms: N_4  and  C_5
REMARK    3  A    between atoms: C_16  and  C_18
REMARK    4  A    between atoms: C_18  and  C_19
REMARK    5  A    between atoms: C_19  and  N_20
REMARK    6  A    between atoms: C_19  and  C_21
REMARK    7  A    between atoms: C_21  and  C_22
REMARK                            x       y       z     vdW  Elec       q    Type
REMARK                         _______ _______ _______ _____ _____    ______ ____
ROOT
ATOM      1  C   UNL     1       6.045   3.954  14.084  0.00  0.00    +0.000 C 
ATOM      2  C   UNL     1       6.059   4.531  15.453  0.00  0.00    +0.000 A 
ATOM      3  N   UNL     1       6.687   5.688  15.691  0.00  0.00    +0.000 NA
ATOM      4  N   UNL     1       6.657   5.845  17.041  0.00  0.00    +0.000 N 
ATOM      5  C   UNL     1       5.937   4.834  17.640  0.00  0.00    +0.000 A 
ATOM      6  C   UNL     1       5.467   4.018  16.625  0.00  0.00    +0.000 A 
ATOM      7  C   UNL     1       4.543   2.864  16.836  0.00  0.00    +0.000 C 
ATOM      8  N   UNL     1       3.973   2.955  18.199  0.00  0.00    +0.000 N 
ATOM      9  C   UNL     1       2.608   2.802  18.363  0.00  0.00    +0.000 C 
ATOM     10  O   UNL     1       1.858   2.627  17.398  0.00  0.00    +0.000 OA
ATOM     11  C   UNL     1       4.945   3.261  19.261  0.00  0.00    +0.000 C 
ATOM     12  C   UNL     1       5.532   4.680  19.069  0.00  0.00    +0.000 C 
ENDROOT
BRANCH   4  13
ATOM     13  C   UNL     1       7.325   6.944  17.634  0.00  0.00    +0.000 A 
ATOM     14  C   UNL     1       7.160   8.227  17.079  0.00  0.00    +0.000 A 
ATOM     15  C   UNL     1       7.803   9.323  17.658  0.00  0.00    +0.000 A 
ATOM     16  C   UNL     1       8.631   9.128  18.759  0.00  0.00    +0.000 A 
ATOM     17  F   UNL     1       9.265  10.177  19.299  0.00  0.00    +0.000 F 
ATOM     18  C   UNL     1       8.823   7.863  19.296  0.00  0.00    +0.000 A 
ATOM     19  C   UNL     1       8.167   6.765  18.736  0.00  0.00    +0.000 A 
ENDBRANCH   4  13
BRANCH   9  20
ATOM     20  C   UNL     1       2.005   2.771  19.763  0.00  0.00    +0.000 C 
BRANCH  20  21
ATOM     21  C   UNL     1       2.309   3.957  20.695  0.00  0.00    +0.000 C 
BRANCH  21  22
ATOM     22  N   UNL     1       2.485   3.446  22.073  0.00  0.00    +0.000 NA
ATOM     23  H   UNL     1       1.830   3.885  22.720  0.00  0.00    +0.000 HD
ATOM     24  H   UNL     1       3.413   3.693  22.428  0.00  0.00    +0.000 HD
ENDBRANCH  21  22
BRANCH  21  25
ATOM     25  C   UNL     1       1.234   5.069  20.629  0.00  0.00    +0.000 C 
BRANCH  25  26
ATOM     26  C   UNL     1       1.681   6.291  19.851  0.00  0.00    +0.000 A 
ATOM     27  C   UNL     1       2.500   6.158  18.715  0.00  0.00    +0.000 A 
ATOM     28  C   UNL     1       2.904   7.290  18.014  0.00  0.00    +0.000 A 
ATOM     29  F   UNL     1       3.684   7.146  16.933  0.00  0.00    +0.000 F 
ATOM     30  C   UNL     1       2.513   8.565  18.406  0.00  0.00    +0.000 A 
ATOM     31  C   UNL     1       1.711   8.711  19.537  0.00  0.00    +0.000 A 
ATOM     32  C   UNL     1       1.305   7.580  20.247  0.00  0.00    +0.000 A 
ATOM     33  F   UNL     1       0.553   7.746  21.345  0.00  0.00    +0.000 F 
ENDBRANCH  25  26
ENDBRANCH  21  25
ENDBRANCH  20  21
ENDBRANCH   9  20
TORSDOF 6
ENDMDL
MODEL 5
REMARK VINA RESULT:      -7.8      2.249      3.518
REMARK  Name = 
REMARK  7 active torsions:
REMARK  status: ('A' for Active; 'I' for Inactive)
REMARK    1  A    between atoms: C_1  and  C_2
REMARK    2  A    between atoms: N_4  and  C_5
REMARK    3  A    between atoms: C_16  and  C_18
REMARK    4  A    between atoms: C_18  and  C_19
REMARK    5  A    between atoms: C_19  and  N_20
REMARK    6  A    between atoms: C_19  and  C_21
REMARK    7  A    between atoms: C_21  and  C_22
REMARK                            x       y       z     vdW  Elec       q    Type
REMARK                         _______ _______ _______ _____ _____    ______ ____
ROOT
ATOM      1  C   UNL     1      -0.505  10.275  22.951  0.00  0.00    +0.000 C 
ATOM      2  C   UNL     1       0.181  10.759  21.724  0.00  0.00    +0.000 A 
ATOM      3  N   UNL     1       0.462  12.059  21.576  0.00  0.00    +0.000 NA
ATOM      4  N   UNL     1       0.922  12.187  20.303  0.00  0.00    +0.000 N 
ATOM      5  C   UNL     1       1.011  10.959  19.685  0.00  0.00    +0.000 A 
ATOM      6  C   UNL     1       0.618  10.010  20.613  0.00  0.00    +0.000 A 
ATOM      7  C   UNL     1       0.677   8.536  20.383  0.00  0.00    +0.000 C 
ATOM      8  N   UNL     1       1.510   8.274  19.188  0.00  0.00    +0.000 N 
ATOM      9  C   UNL     1       2.494   7.304  19.258  0.00  0.00    +0.000 C 
ATOM     10  O   UNL     1       2.710   6.680  20.301  0.00  0.00    +0.000 OA
ATOM     11  C   UNL     1       1.229   9.140  18.031  0.00  0.00    +0.000 C 
ATOM     12  C   UNL     1       1.589  10.611  18.352  0.00  0.00    +0.000 C 
ENDROOT
BRANCH   4  13
ATOM     13  C   UNL     1       1.229  13.472  19.795  0.00  0.00    +0.000 A 
ATOM     14  C   UNL     1       0.183  14.302  19.352  0.00  0.00    +0.000 A 
ATOM     15  C   UNL     1       0.468  15.577  18.859  0.00  0.00    +0.000 A 
ATOM     16  C   UNL     1       1.790  15.999  18.775  0.00  0.00    +0.000 A 
ATOM     17  F   UNL     1       2.064  17.213  18.279  0.00  0.00    +0.000 F 
ATOM     18  C   UNL     1       2.832  15.177  19.181  0.00  0.00    +0.000 A 
ATOM     19  C   UNL     1       2.554  13.910  19.696  0.00  0.00    +0.000 A 
ENDBRANCH   4  13
BRANCH   9  20
ATOM     20  C   UNL     1       3.287   6.927  18.012  0.00  0.00    +0.000 C 
BRANCH  20  21
ATOM     21  C   UNL     1       3.122   5.496  17.470  0.00  0.00    +0.000 C 
BRANCH  21  22
ATOM     22  N   UNL     1       2.490   4.661  18.516  0.00  0.00    +0.000 NA
ATOM     23  H   UNL     1       3.178   4.076  18.991  0.00  0.00    +0.000 HD
ATOM     24  H   UNL     1       1.829   4.003  18.095  0.00  0.00    +0.000 HD
ENDBRANCH  21  22
BRANCH  21  25
ATOM     25  C   UNL     1       4.452   4.881  16.971  0.00  0.00    +0.000 C 
BRANCH  25  26
ATOM     26  C   UNL     1       5.676   5.471  17.643  0.00  0.00    +0.000 A 
ATOM     27  C   UNL     1       6.379   6.533  17.047  0.00  0.00    +0.000 A 
ATOM     28  C   UNL     1       7.503   7.061  17.676  0.00  0.00    +0.000 A 
ATOM     29  F   UNL     1       8.161   8.074  17.095  0.00  0.00    +0.000 F 
ATOM     30  C   UNL     1       7.953   6.567  18.894  0.00  0.00    +0.000 A 
ATOM     31  C   UNL     1       7.271   5.505  19.489  0.00  0.00    +0.000 A 
ATOM     32  C   UNL     1       6.146   4.969  18.862  0.00  0.00    +0.000 A 
ATOM     33  F   UNL     1       5.520   3.933  19.441  0.00  0.00    +0.000 F 
ENDBRANCH  25  26
ENDBRANCH  21  25
ENDBRANCH  20  21
ENDBRANCH   9  20
TORSDOF 6
ENDMDL
MODEL 6
REMARK VINA RESULT:      -7.7      2.249      3.578
REMARK  Name = 
REMARK  7 active torsions:
REMARK  status: ('A' for Active; 'I' for Inactive)
REMARK    1  A    between atoms: C_1  and  C_2
REMARK    2  A    between atoms: N_4  and  C_5
REMARK    3  A    between atoms: C_16  and  C_18
REMARK    4  A    between atoms: C_18  and  C_19
REMARK    5  A    between atoms: C_19  and  N_20
REMARK    6  A    between atoms: C_19  and  C_21
REMARK    7  A    between atoms: C_21  and  C_22
REMARK                            x       y       z     vdW  Elec       q    Type
REMARK                         _______ _______ _______ _____ _____    ______ ____
ROOT
ATOM      1  C   UNL     1      -0.796  10.687  22.983  0.00  0.00    +0.000 C 
ATOM      2  C   UNL     1      -0.009  11.083  21.786  0.00  0.00    +0.000 A 
ATOM      3  N   UNL     1       0.379  12.353  21.623  0.00  0.00    +0.000 NA
ATOM      4  N   UNL     1       0.917  12.409  20.375  0.00  0.00    +0.000 N 
ATOM      5  C   UNL     1       0.946  11.161  19.793  0.00  0.00    +0.000 A 
ATOM      6  C   UNL     1       0.430  10.271  20.720  0.00  0.00    +0.000 A 
ATOM      7  C   UNL     1       0.389   8.790  20.530  0.00  0.00    +0.000 C 
ATOM      8  N   UNL     1       1.264   8.433  19.391  0.00  0.00    +0.000 N 
ATOM      9  C   UNL     1       2.165   7.394  19.541  0.00  0.00    +0.000 C 
ATOM     10  O   UNL     1       2.275   6.786  20.610  0.00  0.00    +0.000 OA
ATOM     11  C   UNL     1       1.114   9.284  18.199  0.00  0.00    +0.000 C 
ATOM     12  C   UNL     1       1.568  10.733  18.505  0.00  0.00    +0.000 C 
ENDROOT
BRANCH   4  13
ATOM     13  C   UNL     1       1.350  13.653  19.854  0.00  0.00    +0.000 A 
ATOM     14  C   UNL     1       0.389  14.603  19.462  0.00  0.00    +0.000 A 
ATOM     15  C   UNL     1       0.798  15.839  18.956  0.00  0.00    +0.000 A 
ATOM     16  C   UNL     1       2.156  16.102  18.811  0.00  0.00    +0.000 A 
ATOM     17  F   UNL     1       2.548  17.279  18.304  0.00  0.00    +0.000 F 
ATOM     18  C   UNL     1       3.112  15.161  19.167  0.00  0.00    +0.000 A 
ATOM     19  C   UNL     1       2.710  13.932  19.694  0.00  0.00    +0.000 A 
ENDBRANCH   4  13
BRANCH   9  20
ATOM     20  C   UNL     1       2.994   6.923  18.352  0.00  0.00    +0.000 C 
BRANCH  20  21
ATOM     21  C   UNL     1       2.845   5.453  17.919  0.00  0.00    +0.000 C 
BRANCH  21  22
ATOM     22  N   UNL     1       1.640   4.887  18.566  0.00  0.00    +0.000 NA
ATOM     23  H   UNL     1       0.842   5.517  18.484  0.00  0.00    +0.000 HD
ATOM     24  H   UNL     1       1.793   4.783  19.573  0.00  0.00    +0.000 HD
ENDBRANCH  21  22
BRANCH  21  25
ATOM     25  C   UNL     1       4.106   4.605  18.213  0.00  0.00    +0.000 C 
BRANCH  25  26
ATOM     26  C   UNL     1       5.163   4.705  17.130  0.00  0.00    +0.000 A 
ATOM     27  C   UNL     1       4.960   4.108  15.874  0.00  0.00    +0.000 A 
ATOM     28  C   UNL     1       5.942   4.206  14.892  0.00  0.00    +0.000 A 
ATOM     29  F   UNL     1       5.732   3.633  13.698  0.00  0.00    +0.000 F 
ATOM     30  C   UNL     1       7.130   4.889  15.119  0.00  0.00    +0.000 A 
ATOM     31  C   UNL     1       7.348   5.475  16.366  0.00  0.00    +0.000 A 
ATOM     32  C   UNL     1       6.370   5.377  17.356  0.00  0.00    +0.000 A 
ATOM     33  F   UNL     1       6.611   5.928  18.555  0.00  0.00    +0.000 F 
ENDBRANCH  25  26
ENDBRANCH  21  25
ENDBRANCH  20  21
ENDBRANCH   9  20
TORSDOF 6
ENDMDL
MODEL 7
REMARK VINA RESULT:      -7.7      4.257      7.466
REMARK  Name = 
REMARK  7 active torsions:
REMARK  status: ('A' for Active; 'I' for Inactive)
REMARK    1  A    between atoms: C_1  and  C_2
REMARK    2  A    between atoms: N_4  and  C_5
REMARK    3  A    between atoms: C_16  and  C_18
REMARK    4  A    between atoms: C_18  and  C_19
REMARK    5  A    between atoms: C_19  and  N_20
REMARK    6  A    between atoms: C_19  and  C_21
REMARK    7  A    between atoms: C_21  and  C_22
REMARK                            x       y       z     vdW  Elec       q    Type
REMARK                         _______ _______ _______ _____ _____    ______ ____
ROOT
ATOM      1  C   UNL     1       5.579   4.224  14.103  0.00  0.00    +0.000 C 
ATOM      2  C   UNL     1       5.732   4.760  15.480  0.00  0.00    +0.000 A 
ATOM      3  N   UNL     1       6.411   5.893  15.692  0.00  0.00    +0.000 NA
ATOM      4  N   UNL     1       6.507   6.010  17.043  0.00  0.00    +0.000 N 
ATOM      5  C   UNL     1       5.815   5.001  17.676  0.00  0.00    +0.000 A 
ATOM      6  C   UNL     1       5.233   4.228  16.687  0.00  0.00    +0.000 A 
ATOM      7  C   UNL     1       4.299   3.093  16.948  0.00  0.00    +0.000 C 
ATOM      8  N   UNL     1       3.855   3.157  18.359  0.00  0.00    +0.000 N 
ATOM      9  C   UNL     1       2.507   3.036  18.642  0.00  0.00    +0.000 C 
ATOM     10  O   UNL     1       1.669   2.908  17.744  0.00  0.00    +0.000 OA
ATOM     11  C   UNL     1       4.927   3.407  19.338  0.00  0.00    +0.000 C 
ATOM     12  C   UNL     1       5.535   4.816  19.132  0.00  0.00    +0.000 C 
ENDROOT
BRANCH   4  13
ATOM     13  C   UNL     1       7.255   7.074  17.603  0.00  0.00    +0.000 A 
ATOM     14  C   UNL     1       8.102   6.815  18.697  0.00  0.00    +0.000 A 
ATOM     15  C   UNL     1       8.855   7.850  19.254  0.00  0.00    +0.000 A 
ATOM     16  C   UNL     1       8.732   9.138  18.743  0.00  0.00    +0.000 A 
ATOM     17  F   UNL     1       9.437  10.135  19.293  0.00  0.00    +0.000 F 
ATOM     18  C   UNL     1       7.878   9.410  17.683  0.00  0.00    +0.000 A 
ATOM     19  C   UNL     1       7.138   8.376  17.107  0.00  0.00    +0.000 A 
ENDBRANCH   4  13
BRANCH   9  20
ATOM     20  C   UNL     1       2.031   2.978  20.089  0.00  0.00    +0.000 C 
BRANCH  20  21
ATOM     21  C   UNL     1       1.574   4.296  20.740  0.00  0.00    +0.000 C 
BRANCH  21  22
ATOM     22  N   UNL     1       0.315   4.733  20.096  0.00  0.00    +0.000 NA
ATOM     23  H   UNL     1       0.454   4.941  19.108  0.00  0.00    +0.000 HD
ATOM     24  H   UNL     1      -0.009   5.612  20.509  0.00  0.00    +0.000 HD
ENDBRANCH  21  22
BRANCH  21  25
ATOM     25  C   UNL     1       2.657   5.401  20.690  0.00  0.00    +0.000 C 
BRANCH  25  26
ATOM     26  C   UNL     1       2.138   6.727  20.169  0.00  0.00    +0.000 A 
ATOM     27  C   UNL     1       1.488   7.631  21.029  0.00  0.00    +0.000 A 
ATOM     28  C   UNL     1       1.015   8.843  20.533  0.00  0.00    +0.000 A 
ATOM     29  F   UNL     1       0.401   9.694  21.366  0.00  0.00    +0.000 F 
ATOM     30  C   UNL     1       1.171   9.191  19.197  0.00  0.00    +0.000 A 
ATOM     31  C   UNL     1       1.803   8.298  18.332  0.00  0.00    +0.000 A 
ATOM     32  C   UNL     1       2.276   7.080  18.822  0.00  0.00    +0.000 A 
ATOM     33  F   UNL     1       2.859   6.226  17.966  0.00  0.00    +0.000 F 
ENDBRANCH  25  26
ENDBRANCH  21  25
ENDBRANCH  20  21
ENDBRANCH   9  20
TORSDOF 6
ENDMDL
MODEL 8
REMARK VINA RESULT:      -7.7      2.315      3.227
REMARK  Name = 
REMARK  7 active torsions:
REMARK  status: ('A' for Active; 'I' for Inactive)
REMARK    1  A    between atoms: C_1  and  C_2
REMARK    2  A    between atoms: N_4  and  C_5
REMARK    3  A    between atoms: C_16  and  C_18
REMARK    4  A    between atoms: C_18  and  C_19
REMARK    5  A    between atoms: C_19  and  N_20
REMARK    6  A    between atoms: C_19  and  C_21
REMARK    7  A    between atoms: C_21  and  C_22
REMARK                            x       y       z     vdW  Elec       q    Type
REMARK                         _______ _______ _______ _____ _____    ______ ____
ROOT
ATOM      1  C   UNL     1      -0.363  10.035  23.059  0.00  0.00    +0.000 C 
ATOM      2  C   UNL     1       0.278  10.502  21.803  0.00  0.00    +0.000 A 
ATOM      3  N   UNL     1       0.532  11.802  21.617  0.00  0.00    +0.000 NA
ATOM      4  N   UNL     1       0.953  11.908  20.328  0.00  0.00    +0.000 N 
ATOM      5  C   UNL     1       1.046  10.668  19.736  0.00  0.00    +0.000 A 
ATOM      6  C   UNL     1       0.697   9.734  20.696  0.00  0.00    +0.000 A 
ATOM      7  C   UNL     1       0.775   8.256  20.499  0.00  0.00    +0.000 C 
ATOM      8  N   UNL     1       1.578   7.980  19.286  0.00  0.00    +0.000 N 
ATOM      9  C   UNL     1       2.580   7.029  19.350  0.00  0.00    +0.000 C 
ATOM     10  O   UNL     1       2.837   6.434  20.401  0.00  0.00    +0.000 OA
ATOM     11  C   UNL     1       1.248   8.814  18.118  0.00  0.00    +0.000 C 
ATOM     12  C   UNL     1       1.592  10.299  18.395  0.00  0.00    +0.000 C 
ENDROOT
BRANCH   4  13
ATOM     13  C   UNL     1       1.223  13.186  19.782  0.00  0.00    +0.000 A 
ATOM     14  C   UNL     1       2.545  13.517  19.432  0.00  0.00    +0.000 A 
ATOM     15  C   UNL     1       2.826  14.770  18.881  0.00  0.00    +0.000 A 
ATOM     16  C   UNL     1       1.798  15.693  18.720  0.00  0.00    +0.000 A 
ATOM     17  F   UNL     1       2.073  16.902  18.214  0.00  0.00    +0.000 F 
ATOM     18  C   UNL     1       0.496  15.387  19.090  0.00  0.00    +0.000 A 
ATOM     19  C   UNL     1       0.203  14.129  19.620  0.00  0.00    +0.000 A 
ENDBRANCH   4  13
BRANCH   9  20
ATOM     20  C   UNL     1       3.344   6.637  18.091  0.00  0.00    +0.000 C 
BRANCH  20  21
ATOM     21  C   UNL     1       3.173   5.196  17.575  0.00  0.00    +0.000 C 
BRANCH  21  22
ATOM     22  N   UNL     1       2.468   4.403  18.607  0.00  0.00    +0.000 NA
ATOM     23  H   UNL     1       2.301   4.953  19.450  0.00  0.00    +0.000 HD
ATOM     24  H   UNL     1       3.051   3.620  18.913  0.00  0.00    +0.000 HD
ENDBRANCH  21  22
BRANCH  21  25
ATOM     25  C   UNL     1       4.512   4.539  17.162  0.00  0.00    +0.000 C 
BRANCH  25  26
ATOM     26  C   UNL     1       5.730   5.316  17.623  0.00  0.00    +0.000 A 
ATOM     27  C   UNL     1       6.346   5.020  18.852  0.00  0.00    +0.000 A 
ATOM     28  C   UNL     1       7.462   5.745  19.262  0.00  0.00    +0.000 A 
ATOM     29  F   UNL     1       8.039   5.449  20.434  0.00  0.00    +0.000 F 
ATOM     30  C   UNL     1       7.992   6.764  18.480  0.00  0.00    +0.000 A 
ATOM     31  C   UNL     1       7.382   7.076  17.265  0.00  0.00    +0.000 A 
ATOM     32  C   UNL     1       6.262   6.355  16.850  0.00  0.00    +0.000 A 
ATOM     33  F   UNL     1       5.677   6.688  15.689  0.00  0.00    +0.000 F 
ENDBRANCH  25  26
ENDBRANCH  21  25
ENDBRANCH  20  21
ENDBRANCH   9  20
TORSDOF 6
ENDMDL
MODEL 9
REMARK VINA RESULT:      -7.6      2.082      3.397
REMARK  Name = 
REMARK  7 active torsions:
REMARK  status: ('A' for Active; 'I' for Inactive)
REMARK    1  A    between atoms: C_1  and  C_2
REMARK    2  A    between atoms: N_4  and  C_5
REMARK    3  A    between atoms: C_16  and  C_18
REMARK    4  A    between atoms: C_18  and  C_19
REMARK    5  A    between atoms: C_19  and  N_20
REMARK    6  A    between atoms: C_19  and  C_21
REMARK    7  A    between atoms: C_21  and  C_22
REMARK                            x       y       z     vdW  Elec       q    Type
REMARK                         _______ _______ _______ _____ _____    ______ ____
ROOT
ATOM      1  C   UNL     1      -1.359  11.801  22.012  0.00  0.00    +0.000 C 
ATOM      2  C   UNL     1      -0.315  11.960  20.967  0.00  0.00    +0.000 A 
ATOM      3  N   UNL     1       0.204  13.166  20.709  0.00  0.00    +0.000 NA
ATOM      4  N   UNL     1       0.987  12.996  19.610  0.00  0.00    +0.000 N 
ATOM      5  C   UNL     1       1.027  11.671  19.233  0.00  0.00    +0.000 A 
ATOM      6  C   UNL     1       0.261  10.968  20.147  0.00  0.00    +0.000 A 
ATOM      7  C   UNL     1       0.134   9.480  20.168  0.00  0.00    +0.000 C 
ATOM      8  N   UNL     1       1.188   8.901  19.305  0.00  0.00    +0.000 N 
ATOM      9  C   UNL     1       1.949   7.853  19.792  0.00  0.00    +0.000 C 
ATOM     10  O   UNL     1       1.788   7.418  20.936  0.00  0.00    +0.000 OA
ATOM     11  C   UNL     1       1.355   9.560  17.999  0.00  0.00    +0.000 C 
ATOM     12  C   UNL     1       1.859  11.012  18.183  0.00  0.00    +0.000 C 
ENDROOT
BRANCH   4  13
ATOM     13  C   UNL     1       1.619  14.117  19.020  0.00  0.00    +0.000 A 
ATOM     14  C   UNL     1       0.936  15.347  18.979  0.00  0.00    +0.000 A 
ATOM     15  C   UNL     1       1.551  16.465  18.410  0.00  0.00    +0.000 A 
ATOM     16  C   UNL     1       2.820  16.340  17.855  0.00  0.00    +0.000 A 
ATOM     17  F   UNL     1       3.399  17.407  17.288  0.00  0.00    +0.000 F 
ATOM     18  C   UNL     1       3.490  15.124  17.863  0.00  0.00    +0.000 A 
ATOM     19  C   UNL     1       2.892  14.008  18.450  0.00  0.00    +0.000 A 
ENDBRANCH   4  13
BRANCH   9  20
ATOM     20  C   UNL     1       2.959   7.157  18.888  0.00  0.00    +0.000 C 
BRANCH  20  21
ATOM     21  C   UNL     1       2.580   5.772  18.333  0.00  0.00    +0.000 C 
BRANCH  21  22
ATOM     22  N   UNL     1       2.212   4.891  19.463  0.00  0.00    +0.000 NA
ATOM     23  H   UNL     1       1.646   5.386  20.152  0.00  0.00    +0.000 HD
ATOM     24  H   UNL     1       3.050   4.597  19.972  0.00  0.00    +0.000 HD
ENDBRANCH  21  22
BRANCH  21  25
ATOM     25  C   UNL     1       3.694   5.147  17.457  0.00  0.00    +0.000 C 
BRANCH  25  26
ATOM     26  C   UNL     1       5.090   5.571  17.868  0.00  0.00    +0.000 A 
ATOM     27  C   UNL     1       5.751   6.613  17.194  0.00  0.00    +0.000 A 
ATOM     28  C   UNL     1       7.034   6.987  17.582  0.00  0.00    +0.000 A 
ATOM     29  F   UNL     1       7.649   7.984  16.930  0.00  0.00    +0.000 F 
ATOM     30  C   UNL     1       7.688   6.356  18.633  0.00  0.00    +0.000 A 
ATOM     31  C   UNL     1       7.047   5.312  19.302  0.00  0.00    +0.000 A 
ATOM     32  C   UNL     1       5.763   4.930  18.915  0.00  0.00    +0.000 A 
ATOM     33  F   UNL     1       5.176   3.908  19.557  0.00  0.00    +0.000 F 
ENDBRANCH  25  26
ENDBRANCH  21  25
ENDBRANCH  20  21
ENDBRANCH   9  20
TORSDOF 6
ENDMDL
