MODEL 1
REMARK VINA RESULT:      -7.9      0.000      0.000
REMARK  Name = 
REMARK  4 active torsions:
REMARK  status: ('A' for Active; 'I' for Inactive)
REMARK    1  A    between atoms: N_11  and  C_12
REMARK    2  A    between atoms: C_12  and  C_13
REMARK    3  A    between atoms: C_13  and  N_14
REMARK    4  A    between atoms: N_17  and  C_18
REMARK                            x       y       z     vdW  Elec       q    Type
REMARK                         _______ _______ _______ _____ _____    ______ ____
ROOT
ATOM      1  N   UNL     1       2.475   5.707  19.248  0.00  0.00    +0.000 NA
ATOM      2  C   UNL     1       1.557   6.141  20.333  0.00  0.00    +0.000 C 
ATOM      3  C   UNL     1       1.748   7.605  20.782  0.00  0.00    +0.000 C 
ATOM      4  N   UNL     1       1.651   8.518  19.634  0.00  0.00    +0.000 N 
ATOM      5  C   UNL     1       2.431   8.157  18.441  0.00  0.00    +0.000 C 
ATOM      6  C   UNL     1       2.267   6.647  18.110  0.00  0.00    +0.000 C 
ENDROOT
BRANCH   4   7
ATOM      7  C   UNL     1       0.661   9.490  19.560  0.00  0.00    +0.000 A 
ATOM      8  C   UNL     1       0.187   9.917  18.304  0.00  0.00    +0.000 A 
ATOM      9  C   UNL     1      -0.851  10.840  18.172  0.00  0.00    +0.000 A 
ATOM     10  C   UNL     1      -1.439  11.383  19.305  0.00  0.00    +0.000 A 
ATOM     11  C   UNL     1      -0.974  11.017  20.565  0.00  0.00    +0.000 A 
ATOM     12  C   UNL     1       0.059  10.070  20.702  0.00  0.00    +0.000 A 
ATOM     13  O   UNL     1       0.491   9.658  21.948  0.00  0.00    +0.000 OA
ATOM     14  C   UNL     1      -0.416  10.023  22.992  0.00  0.00    +0.000 C 
ATOM     15  C   UNL     1      -0.867  11.463  22.833  0.00  0.00    +0.000 C 
ATOM     16  O   UNL     1      -1.606  11.623  21.623  0.00  0.00    +0.000 OA
ENDBRANCH   4   7
BRANCH   1  17
ATOM     17  C   UNL     1       3.894   5.699  19.667  0.00  0.00    +0.000 C 
BRANCH  17  18
ATOM     18  C   UNL     1       4.648   4.398  19.321  0.00  0.00    +0.000 C 
BRANCH  18  29
ATOM     19  O   UNL     1       7.279   5.341  18.320  0.00  0.00    +0.000 OA
ATOM     20  C   UNL     1       6.406   4.875  17.616  0.00  0.00    +0.000 C 
ATOM     21  C   UNL     1       6.513   4.710  16.168  0.00  0.00    +0.000 A 
ATOM     22  C   UNL     1       7.546   5.029  15.308  0.00  0.00    +0.000 A 
ATOM     23  C   UNL     1       7.354   4.754  13.950  0.00  0.00    +0.000 A 
ATOM     24  C   UNL     1       6.150   4.177  13.492  0.00  0.00    +0.000 A 
ATOM     25  C   UNL     1       5.119   3.864  14.383  0.00  0.00    +0.000 A 
ATOM     26  C   UNL     1       5.333   4.144  15.719  0.00  0.00    +0.000 A 
ATOM     27  C   UNL     1       4.472   3.944  16.883  0.00  0.00    +0.000 C 
ATOM     28  O   UNL     1       3.361   3.453  16.843  0.00  0.00    +0.000 OA
ATOM     29  N   UNL     1       5.168   4.409  17.967  0.00  0.00    +0.000 N 
ENDBRANCH  18  29
ENDBRANCH  17  18
ENDBRANCH   1  17
TORSDOF 4
ENDMDL
MODEL 2
REMARK VINA RESULT:      -7.9      0.105      1.624
REMARK  Name = 
REMARK  4 active torsions:
REMARK  status: ('A' for Active; 'I' for Inactive)
REMARK    1  A    between atoms: N_11  and  C_12
REMARK    2  A    between atoms: C_12  and  C_13
REMARK    3  A    between atoms: C_13  and  N_14
REMARK    4  A    between atoms: N_17  and  C_18
REMARK                            x       y       z     vdW  Elec       q    Type
REMARK                         _______ _______ _______ _____ _____    ______ ____
ROOT
ATOM      1  N   UNL     1       2.511   5.707  19.214  0.00  0.00    +0.000 NA
ATOM      2  C   UNL     1       1.553   6.112  20.274  0.00  0.00    +0.000 C 
ATOM      3  C   UNL     1       1.709   7.572  20.749  0.00  0.00    +0.000 C 
ATOM      4  N   UNL     1       1.634   8.500  19.611  0.00  0.00    +0.000 N 
ATOM      5  C   UNL     1       2.457   8.167  18.438  0.00  0.00    +0.000 C 
ATOM      6  C   UNL     1       2.326   6.659  18.083  0.00  0.00    +0.000 C 
ENDROOT
BRANCH   4   7
ATOM      7  C   UNL     1       0.634   9.459  19.519  0.00  0.00    +0.000 A 
ATOM      8  C   UNL     1       0.123   9.823  18.258  0.00  0.00    +0.000 A 
ATOM      9  C   UNL     1      -0.928  10.731  18.111  0.00  0.00    +0.000 A 
ATOM     10  C   UNL     1      -1.491  11.320  19.234  0.00  0.00    +0.000 A 
ATOM     11  C   UNL     1      -0.990  11.017  20.497  0.00  0.00    +0.000 A 
ATOM     12  C   UNL     1       0.055  10.086  20.649  0.00  0.00    +0.000 A 
ATOM     13  O   UNL     1       0.525   9.736  21.900  0.00  0.00    +0.000 OA
ATOM     14  C   UNL     1      -0.359  10.141  22.950  0.00  0.00    +0.000 C 
ATOM     15  C   UNL     1      -0.828  11.567  22.738  0.00  0.00    +0.000 C 
ATOM     16  O   UNL     1      -1.600  11.665  21.542  0.00  0.00    +0.000 OA
ENDBRANCH   4   7
BRANCH   1  17
ATOM     17  C   UNL     1       3.916   5.713  19.678  0.00  0.00    +0.000 C 
BRANCH  17  18
ATOM     18  C   UNL     1       4.702   4.432  19.328  0.00  0.00    +0.000 C 
BRANCH  18  29
ATOM     19  O   UNL     1       3.451   3.330  16.872  0.00  0.00    +0.000 OA
ATOM     20  C   UNL     1       4.525   3.897  16.898  0.00  0.00    +0.000 C 
ATOM     21  C   UNL     1       5.369   4.119  15.725  0.00  0.00    +0.000 A 
ATOM     22  C   UNL     1       5.176   3.760  14.406  0.00  0.00    +0.000 A 
ATOM     23  C   UNL     1       6.177   4.112  13.496  0.00  0.00    +0.000 A 
ATOM     24  C   UNL     1       7.331   4.804  13.921  0.00  0.00    +0.000 A 
ATOM     25  C   UNL     1       7.503   5.156  15.263  0.00  0.00    +0.000 A 
ATOM     26  C   UNL     1       6.499   4.799  16.143  0.00  0.00    +0.000 A 
ATOM     27  C   UNL     1       6.377   5.012  17.584  0.00  0.00    +0.000 C 
ATOM     28  O   UNL     1       7.197   5.591  18.268  0.00  0.00    +0.000 OA
ATOM     29  N   UNL     1       5.189   4.443  17.961  0.00  0.00    +0.000 N 
ENDBRANCH  18  29
ENDBRANCH  17  18
ENDBRANCH   1  17
TORSDOF 4
ENDMDL
MODEL 3
REMARK VINA RESULT:      -7.9      2.242      9.728
REMARK  Name = 
REMARK  4 active torsions:
REMARK  status: ('A' for Active; 'I' for Inactive)
REMARK    1  A    between atoms: N_11  and  C_12
REMARK    2  A    between atoms: C_12  and  C_13
REMARK    3  A    between atoms: C_13  and  N_14
REMARK    4  A    between atoms: N_17  and  C_18
REMARK                            x       y       z     vdW  Elec       q    Type
REMARK                         _______ _______ _______ _____ _____    ______ ____
ROOT
ATOM      1  N   UNL     1       0.551   9.678  19.341  0.00  0.00    +0.000 NA
ATOM      2  C   UNL     1       0.838   9.259  17.945  0.00  0.00    +0.000 C 
ATOM      3  C   UNL     1       2.245   8.663  17.735  0.00  0.00    +0.000 C 
ATOM      4  N   UNL     1       2.481   7.546  18.663  0.00  0.00    +0.000 N 
ATOM      5  C   UNL     1       2.142   7.784  20.074  0.00  0.00    +0.000 C 
ATOM      6  C   UNL     1       0.756   8.477  20.199  0.00  0.00    +0.000 C 
ENDROOT
BRANCH   4   7
ATOM      7  C   UNL     1       2.720   6.257  18.203  0.00  0.00    +0.000 A 
ATOM      8  C   UNL     1       1.678   5.310  18.197  0.00  0.00    +0.000 A 
ATOM      9  C   UNL     1       1.844   4.021  17.684  0.00  0.00    +0.000 A 
ATOM     10  C   UNL     1       3.075   3.636  17.175  0.00  0.00    +0.000 A 
ATOM     11  C   UNL     1       4.141   4.530  17.198  0.00  0.00    +0.000 A 
ATOM     12  C   UNL     1       3.972   5.836  17.694  0.00  0.00    +0.000 A 
ATOM     13  O   UNL     1       5.008   6.750  17.672  0.00  0.00    +0.000 OA
ATOM     14  C   UNL     1       6.082   6.340  16.821  0.00  0.00    +0.000 C 
ATOM     15  C   UNL     1       6.424   4.880  17.051  0.00  0.00    +0.000 C 
ATOM     16  O   UNL     1       5.322   4.048  16.689  0.00  0.00    +0.000 OA
ENDBRANCH   4   7
BRANCH   1  17
ATOM     17  C   UNL     1       1.409  10.795  19.792  0.00  0.00    +0.000 C 
BRANCH  17  18
ATOM     18  C   UNL     1       0.822  12.195  19.515  0.00  0.00    +0.000 C 
BRANCH  18  29
ATOM     19  O   UNL     1      -1.725  12.138  17.991  0.00  0.00    +0.000 OA
ATOM     20  C   UNL     1      -1.650  12.284  19.194  0.00  0.00    +0.000 C 
ATOM     21  C   UNL     1      -2.803  12.460  20.077  0.00  0.00    +0.000 A 
ATOM     22  C   UNL     1      -4.151  12.511  19.784  0.00  0.00    +0.000 A 
ATOM     23  C   UNL     1      -5.030  12.696  20.856  0.00  0.00    +0.000 A 
ATOM     24  C   UNL     1      -4.546  12.827  22.175  0.00  0.00    +0.000 A 
ATOM     25  C   UNL     1      -3.175  12.773  22.445  0.00  0.00    +0.000 A 
ATOM     26  C   UNL     1      -2.327  12.587  21.370  0.00  0.00    +0.000 A 
ATOM     27  C   UNL     1      -0.870  12.491  21.313  0.00  0.00    +0.000 C 
ATOM     28  O   UNL     1      -0.137  12.551  22.281  0.00  0.00    +0.000 OA
ATOM     29  N   UNL     1      -0.542  12.322  19.994  0.00  0.00    +0.000 N 
ENDBRANCH  18  29
ENDBRANCH  17  18
ENDBRANCH   1  17
TORSDOF 4
ENDMDL
MODEL 4
REMARK VINA RESULT:      -7.9      2.246      9.649
REMARK  Name = 
REMARK  4 active torsions:
REMARK  status: ('A' for Active; 'I' for Inactive)
REMARK    1  A    between atoms: N_11  and  C_12
REMARK    2  A    between atoms: C_12  and  C_13
REMARK    3  A    between atoms: C_13  and  N_14
REMARK    4  A    between atoms: N_17  and  C_18
REMARK                            x       y       z     vdW  Elec       q    Type
REMARK                         _______ _______ _______ _____ _____    ______ ____
ROOT
ATOM      1  N   UNL     1       0.529   9.663  19.353  0.00  0.00    +0.000 NA
ATOM      2  C   UNL     1       0.815   9.248  17.956  0.00  0.00    +0.000 C 
ATOM      3  C   UNL     1       2.226   8.661  17.742  0.00  0.00    +0.000 C 
ATOM      4  N   UNL     1       2.471   7.545  18.668  0.00  0.00    +0.000 N 
ATOM      5  C   UNL     1       2.134   7.778  20.080  0.00  0.00    +0.000 C 
ATOM      6  C   UNL     1       0.744   8.462  20.209  0.00  0.00    +0.000 C 
ENDROOT
BRANCH   4   7
ATOM      7  C   UNL     1       2.717   6.258  18.206  0.00  0.00    +0.000 A 
ATOM      8  C   UNL     1       1.677   5.309  18.183  0.00  0.00    +0.000 A 
ATOM      9  C   UNL     1       1.850   4.023  17.668  0.00  0.00    +0.000 A 
ATOM     10  C   UNL     1       3.088   3.641  17.172  0.00  0.00    +0.000 A 
ATOM     11  C   UNL     1       4.153   4.536  17.211  0.00  0.00    +0.000 A 
ATOM     12  C   UNL     1       3.976   5.839  17.711  0.00  0.00    +0.000 A 
ATOM     13  O   UNL     1       5.011   6.755  17.705  0.00  0.00    +0.000 OA
ATOM     14  C   UNL     1       6.096   6.349  16.866  0.00  0.00    +0.000 C 
ATOM     15  C   UNL     1       6.437   4.889  17.094  0.00  0.00    +0.000 C 
ATOM     16  O   UNL     1       5.341   4.058  16.715  0.00  0.00    +0.000 OA
ENDBRANCH   4   7
BRANCH   1  17
ATOM     17  C   UNL     1       1.382  10.785  19.803  0.00  0.00    +0.000 C 
BRANCH  17  18
ATOM     18  C   UNL     1       0.798  12.182  19.503  0.00  0.00    +0.000 C 
BRANCH  18  29
ATOM     19  O   UNL     1      -0.147  12.613  22.284  0.00  0.00    +0.000 OA
ATOM     20  C   UNL     1      -0.878  12.523  21.319  0.00  0.00    +0.000 C 
ATOM     21  C   UNL     1      -2.337  12.608  21.378  0.00  0.00    +0.000 A 
ATOM     22  C   UNL     1      -3.177  12.786  22.459  0.00  0.00    +0.000 A 
ATOM     23  C   UNL     1      -4.551  12.823  22.201  0.00  0.00    +0.000 A 
ATOM     24  C   UNL     1      -5.044  12.680  20.886  0.00  0.00    +0.000 A 
ATOM     25  C   UNL     1      -4.172  12.500  19.808  0.00  0.00    +0.000 A 
ATOM     26  C   UNL     1      -2.819  12.470  20.089  0.00  0.00    +0.000 A 
ATOM     27  C   UNL     1      -1.668  12.298  19.205  0.00  0.00    +0.000 C 
ATOM     28  O   UNL     1      -1.738  12.160  18.000  0.00  0.00    +0.000 OA
ATOM     29  N   UNL     1      -0.556  12.330  20.004  0.00  0.00    +0.000 N 
ENDBRANCH  18  29
ENDBRANCH  17  18
ENDBRANCH   1  17
TORSDOF 4
ENDMDL
MODEL 5
REMARK VINA RESULT:      -7.7      2.400      9.621
REMARK  Name = 
REMARK  4 active torsions:
REMARK  status: ('A' for Active; 'I' for Inactive)
REMARK    1  A    between atoms: N_11  and  C_12
REMARK    2  A    between atoms: C_12  and  C_13
REMARK    3  A    between atoms: C_13  and  N_14
REMARK    4  A    between atoms: N_17  and  C_18
REMARK                            x       y       z     vdW  Elec       q    Type
REMARK                         _______ _______ _______ _____ _____    ______ ____
ROOT
ATOM      1  N   UNL     1       0.551   9.993  19.003  0.00  0.00    +0.000 NA
ATOM      2  C   UNL     1       1.038   9.028  17.984  0.00  0.00    +0.000 C 
ATOM      3  C   UNL     1       2.338   8.293  18.372  0.00  0.00    +0.000 C 
ATOM      4  N   UNL     1       2.191   7.630  19.677  0.00  0.00    +0.000 N 
ATOM      5  C   UNL     1       1.620   8.440  20.763  0.00  0.00    +0.000 C 
ATOM      6  C   UNL     1       0.374   9.227  20.268  0.00  0.00    +0.000 C 
ENDROOT
BRANCH   4   7
ATOM      7  C   UNL     1       2.297   6.251  19.807  0.00  0.00    +0.000 A 
ATOM      8  C   UNL     1       1.319   5.536  20.525  0.00  0.00    +0.000 A 
ATOM      9  C   UNL     1       1.339   4.144  20.631  0.00  0.00    +0.000 A 
ATOM     10  C   UNL     1       2.360   3.422  20.030  0.00  0.00    +0.000 A 
ATOM     11  C   UNL     1       3.368   4.094  19.344  0.00  0.00    +0.000 A 
ATOM     12  C   UNL     1       3.339   5.495  19.218  0.00  0.00    +0.000 A 
ATOM     13  O   UNL     1       4.303   6.168  18.492  0.00  0.00    +0.000 OA
ATOM     14  C   UNL     1       5.070   5.296  17.658  0.00  0.00    +0.000 C 
ATOM     15  C   UNL     1       5.489   4.053  18.420  0.00  0.00    +0.000 C 
ATOM     16  O   UNL     1       4.343   3.293  18.801  0.00  0.00    +0.000 OA
ENDBRANCH   4   7
BRANCH   1  17
ATOM     17  C   UNL     1       1.476  11.130  19.204  0.00  0.00    +0.000 C 
BRANCH  17  18
ATOM     18  C   UNL     1       0.811  12.516  19.080  0.00  0.00    +0.000 C 
BRANCH  18  29
ATOM     19  O   UNL     1      -1.925  12.252  17.959  0.00  0.00    +0.000 OA
ATOM     20  C   UNL     1      -1.682  12.439  19.134  0.00  0.00    +0.000 C 
ATOM     21  C   UNL     1      -2.699  12.570  20.176  0.00  0.00    +0.000 A 
ATOM     22  C   UNL     1      -4.076  12.526  20.089  0.00  0.00    +0.000 A 
ATOM     23  C   UNL     1      -4.796  12.689  21.277  0.00  0.00    +0.000 A 
ATOM     24  C   UNL     1      -4.131  12.890  22.505  0.00  0.00    +0.000 A 
ATOM     25  C   UNL     1      -2.734  12.931  22.566  0.00  0.00    +0.000 A 
ATOM     26  C   UNL     1      -2.045  12.766  21.379  0.00  0.00    +0.000 A 
ATOM     27  C   UNL     1      -0.609  12.760  21.106  0.00  0.00    +0.000 C 
ATOM     28  O   UNL     1       0.254  12.896  21.950  0.00  0.00    +0.000 OA
ATOM     29  N   UNL     1      -0.471  12.572  19.756  0.00  0.00    +0.000 N 
ENDBRANCH  18  29
ENDBRANCH  17  18
ENDBRANCH   1  17
TORSDOF 4
ENDMDL
MODEL 6
REMARK VINA RESULT:      -7.6      2.190      9.782
REMARK  Name = 
REMARK  4 active torsions:
REMARK  status: ('A' for Active; 'I' for Inactive)
REMARK    1  A    between atoms: N_11  and  C_12
REMARK    2  A    between atoms: C_12  and  C_13
REMARK    3  A    between atoms: C_13  and  N_14
REMARK    4  A    between atoms: N_17  and  C_18
REMARK                            x       y       z     vdW  Elec       q    Type
REMARK                         _______ _______ _______ _____ _____    ______ ____
ROOT
ATOM      1  N   UNL     1       0.374   9.842  19.315  0.00  0.00    +0.000 NA
ATOM      2  C   UNL     1       0.549   9.329  17.932  0.00  0.00    +0.000 C 
ATOM      3  C   UNL     1       1.962   8.788  17.627  0.00  0.00    +0.000 C 
ATOM      4  N   UNL     1       2.348   7.761  18.606  0.00  0.00    +0.000 N 
ATOM      5  C   UNL     1       2.132   8.092  20.023  0.00  0.00    +0.000 C 
ATOM      6  C   UNL     1       0.728   8.724  20.234  0.00  0.00    +0.000 C 
ENDROOT
BRANCH   4   7
ATOM      7  C   UNL     1       2.614   6.453  18.221  0.00  0.00    +0.000 A 
ATOM      8  C   UNL     1       1.595   5.484  18.276  0.00  0.00    +0.000 A 
ATOM      9  C   UNL     1       1.788   4.172  17.839  0.00  0.00    +0.000 A 
ATOM     10  C   UNL     1       3.025   3.785  17.346  0.00  0.00    +0.000 A 
ATOM     11  C   UNL     1       4.071   4.703  17.310  0.00  0.00    +0.000 A 
ATOM     12  C   UNL     1       3.873   6.031  17.731  0.00  0.00    +0.000 A 
ATOM     13  O   UNL     1       4.888   6.966  17.649  0.00  0.00    +0.000 OA
ATOM     14  C   UNL     1       5.968   6.531  16.817  0.00  0.00    +0.000 C 
ATOM     15  C   UNL     1       6.344   5.096  17.130  0.00  0.00    +0.000 C 
ATOM     16  O   UNL     1       5.260   4.219  16.823  0.00  0.00    +0.000 OA
ENDBRANCH   4   7
BRANCH   1  17
ATOM     17  C   UNL     1       1.207  11.032  19.595  0.00  0.00    +0.000 C 
BRANCH  17  18
ATOM     18  C   UNL     1       1.165  11.501  21.064  0.00  0.00    +0.000 C 
BRANCH  18  29
ATOM     19  O   UNL     1      -0.640  13.459  19.752  0.00  0.00    +0.000 OA
ATOM     20  C   UNL     1      -0.905  12.863  20.777  0.00  0.00    +0.000 C 
ATOM     21  C   UNL     1      -2.151  13.022  21.525  0.00  0.00    +0.000 A 
ATOM     22  C   UNL     1      -3.243  13.830  21.278  0.00  0.00    +0.000 A 
ATOM     23  C   UNL     1      -4.303  13.767  22.189  0.00  0.00    +0.000 A 
ATOM     24  C   UNL     1      -4.245  12.910  23.308  0.00  0.00    +0.000 A 
ATOM     25  C   UNL     1      -3.127  12.101  23.536  0.00  0.00    +0.000 A 
ATOM     26  C   UNL     1      -2.094  12.180  22.621  0.00  0.00    +0.000 A 
ATOM     27  C   UNL     1      -0.811  11.482  22.573  0.00  0.00    +0.000 C 
ATOM     28  O   UNL     1      -0.443  10.658  23.387  0.00  0.00    +0.000 OA
ATOM     29  N   UNL     1      -0.158  11.945  21.461  0.00  0.00    +0.000 N 
ENDBRANCH  18  29
ENDBRANCH  17  18
ENDBRANCH   1  17
TORSDOF 4
ENDMDL
MODEL 7
REMARK VINA RESULT:      -7.6      2.240      9.830
REMARK  Name = 
REMARK  4 active torsions:
REMARK  status: ('A' for Active; 'I' for Inactive)
REMARK    1  A    between atoms: N_11  and  C_12
REMARK    2  A    between atoms: C_12  and  C_13
REMARK    3  A    between atoms: C_13  and  N_14
REMARK    4  A    between atoms: N_17  and  C_18
REMARK                            x       y       z     vdW  Elec       q    Type
REMARK                         _______ _______ _______ _____ _____    ______ ____
ROOT
ATOM      1  N   UNL     1       0.518   9.724  19.267  0.00  0.00    +0.000 NA
ATOM      2  C   UNL     1       0.860   9.307  17.883  0.00  0.00    +0.000 C 
ATOM      3  C   UNL     1       2.279   8.721  17.726  0.00  0.00    +0.000 C 
ATOM      4  N   UNL     1       2.487   7.606  18.662  0.00  0.00    +0.000 N 
ATOM      5  C   UNL     1       2.092   7.840  20.059  0.00  0.00    +0.000 C 
ATOM      6  C   UNL     1       0.698   8.524  20.132  0.00  0.00    +0.000 C 
ENDROOT
BRANCH   4   7
ATOM      7  C   UNL     1       2.752   6.319  18.212  0.00  0.00    +0.000 A 
ATOM      8  C   UNL     1       1.723   5.357  18.189  0.00  0.00    +0.000 A 
ATOM      9  C   UNL     1       1.916   4.069  17.684  0.00  0.00    +0.000 A 
ATOM     10  C   UNL     1       3.162   3.699  17.200  0.00  0.00    +0.000 A 
ATOM     11  C   UNL     1       4.215   4.607  17.240  0.00  0.00    +0.000 A 
ATOM     12  C   UNL     1       4.019   5.912  17.729  0.00  0.00    +0.000 A 
ATOM     13  O   UNL     1       5.043   6.840  17.724  0.00  0.00    +0.000 OA
ATOM     14  C   UNL     1       6.139   6.442  16.895  0.00  0.00    +0.000 C 
ATOM     15  C   UNL     1       6.496   4.988  17.137  0.00  0.00    +0.000 C 
ATOM     16  O   UNL     1       5.412   4.140  16.757  0.00  0.00    +0.000 OA
ENDBRANCH   4   7
BRANCH   1  17
ATOM     17  C   UNL     1       1.351  10.847  19.750  0.00  0.00    +0.000 C 
BRANCH  17  18
ATOM     18  C   UNL     1       0.733  12.240  19.512  0.00  0.00    +0.000 C 
BRANCH  18  29
ATOM     19  O   UNL     1       1.194  13.799  21.996  0.00  0.00    +0.000 OA
ATOM     20  C   UNL     1       0.121  13.335  21.669  0.00  0.00    +0.000 C 
ATOM     21  C   UNL     1      -1.108  13.468  22.450  0.00  0.00    +0.000 A 
ATOM     22  C   UNL     1      -1.332  14.093  23.660  0.00  0.00    +0.000 A 
ATOM     23  C   UNL     1      -2.635  14.050  24.169  0.00  0.00    +0.000 A 
ATOM     24  C   UNL     1      -3.665  13.389  23.466  0.00  0.00    +0.000 A 
ATOM     25  C   UNL     1      -3.411  12.763  22.241  0.00  0.00    +0.000 A 
ATOM     26  C   UNL     1      -2.118  12.821  21.759  0.00  0.00    +0.000 A 
ATOM     27  C   UNL     1      -1.534  12.276  20.535  0.00  0.00    +0.000 C 
ATOM     28  O   UNL     1      -2.152  11.656  19.693  0.00  0.00    +0.000 OA
ATOM     29  N   UNL     1      -0.205  12.611  20.555  0.00  0.00    +0.000 N 
ENDBRANCH  18  29
ENDBRANCH  17  18
ENDBRANCH   1  17
TORSDOF 4
ENDMDL
MODEL 8
REMARK VINA RESULT:      -7.6      2.153      9.743
REMARK  Name = 
REMARK  4 active torsions:
REMARK  status: ('A' for Active; 'I' for Inactive)
REMARK    1  A    between atoms: N_11  and  C_12
REMARK    2  A    between atoms: C_12  and  C_13
REMARK    3  A    between atoms: C_13  and  N_14
REMARK    4  A    between atoms: N_17  and  C_18
REMARK                            x       y       z     vdW  Elec       q    Type
REMARK                         _______ _______ _______ _____ _____    ______ ____
ROOT
ATOM      1  N   UNL     1       0.420   9.784  19.232  0.00  0.00    +0.000 NA
ATOM      2  C   UNL     1       0.646   9.282  17.852  0.00  0.00    +0.000 C 
ATOM      3  C   UNL     1       2.068   8.737  17.597  0.00  0.00    +0.000 C 
ATOM      4  N   UNL     1       2.412   7.701  18.582  0.00  0.00    +0.000 N 
ATOM      5  C   UNL     1       2.143   8.020  19.992  0.00  0.00    +0.000 C 
ATOM      6  C   UNL     1       0.734   8.656  20.154  0.00  0.00    +0.000 C 
ENDROOT
BRANCH   4   7
ATOM      7  C   UNL     1       2.687   6.395  18.196  0.00  0.00    +0.000 A 
ATOM      8  C   UNL     1       1.667   5.425  18.221  0.00  0.00    +0.000 A 
ATOM      9  C   UNL     1       1.870   4.115  17.782  0.00  0.00    +0.000 A 
ATOM     10  C   UNL     1       3.119   3.731  17.316  0.00  0.00    +0.000 A 
ATOM     11  C   UNL     1       4.165   4.649  17.310  0.00  0.00    +0.000 A 
ATOM     12  C   UNL     1       3.958   5.975  17.733  0.00  0.00    +0.000 A 
ATOM     13  O   UNL     1       4.974   6.910  17.681  0.00  0.00    +0.000 OA
ATOM     14  C   UNL     1       6.073   6.481  16.873  0.00  0.00    +0.000 C 
ATOM     15  C   UNL     1       6.442   5.043  17.186  0.00  0.00    +0.000 C 
ATOM     16  O   UNL     1       5.366   4.169  16.850  0.00  0.00    +0.000 OA
ENDBRANCH   4   7
BRANCH   1  17
ATOM     17  C   UNL     1       1.247  10.968  19.553  0.00  0.00    +0.000 C 
BRANCH  17  18
ATOM     18  C   UNL     1       1.209  11.380  21.040  0.00  0.00    +0.000 C 
BRANCH  18  29
ATOM     19  O   UNL     1      -0.405  10.628  23.416  0.00  0.00    +0.000 OA
ATOM     20  C   UNL     1      -0.761  11.424  22.571  0.00  0.00    +0.000 C 
ATOM     21  C   UNL     1      -2.040  12.131  22.590  0.00  0.00    +0.000 A 
ATOM     22  C   UNL     1      -3.082  12.066  23.494  0.00  0.00    +0.000 A 
ATOM     23  C   UNL     1      -4.198  12.870  23.242  0.00  0.00    +0.000 A 
ATOM     24  C   UNL     1      -4.245  13.706  22.106  0.00  0.00    +0.000 A 
ATOM     25  C   UNL     1      -3.177  13.754  21.204  0.00  0.00    +0.000 A 
ATOM     26  C   UNL     1      -2.085  12.951  21.477  0.00  0.00    +0.000 A 
ATOM     27  C   UNL     1      -0.832  12.770  20.746  0.00  0.00    +0.000 C 
ATOM     28  O   UNL     1      -0.541  13.354  19.721  0.00  0.00    +0.000 OA
ATOM     29  N   UNL     1      -0.104  11.845  21.447  0.00  0.00    +0.000 N 
ENDBRANCH  18  29
ENDBRANCH  17  18
ENDBRANCH   1  17
TORSDOF 4
ENDMDL
MODEL 9
REMARK VINA RESULT:      -7.5      3.831      6.440
REMARK  Name = 
REMARK  4 active torsions:
REMARK  status: ('A' for Active; 'I' for Inactive)
REMARK    1  A    between atoms: N_11  and  C_12
REMARK    2  A    between atoms: C_12  and  C_13
REMARK    3  A    between atoms: C_13  and  N_14
REMARK    4  A    between atoms: N_17  and  C_18
REMARK                            x       y       z     vdW  Elec       q    Type
REMARK                         _______ _______ _______ _____ _____    ______ ____
ROOT
ATOM      1  N   UNL     1      -0.950  11.419  18.293  0.00  0.00    +0.000 NA
ATOM      2  C   UNL     1      -1.989  11.075  17.289  0.00  0.00    +0.000 C 
ATOM      3  C   UNL     1      -3.330  10.608  17.893  0.00  0.00    +0.000 C 
ATOM      4  N   UNL     1      -3.846  11.603  18.845  0.00  0.00    +0.000 N 
ATOM      5  C   UNL     1      -2.893  12.115  19.840  0.00  0.00    +0.000 C 
ATOM      6  C   UNL     1      -1.535  12.470  19.172  0.00  0.00    +0.000 C 
ENDROOT
BRANCH   4   7
ATOM      7  C   UNL     1      -5.060  12.245  18.637  0.00  0.00    +0.000 A 
ATOM      8  C   UNL     1      -5.576  12.368  17.333  0.00  0.00    +0.000 A 
ATOM      9  C   UNL     1      -6.821  12.944  17.072  0.00  0.00    +0.000 A 
ATOM     10  C   UNL     1      -7.585  13.434  18.121  0.00  0.00    +0.000 A 
ATOM     11  C   UNL     1      -7.095  13.367  19.422  0.00  0.00    +0.000 A 
ATOM     12  C   UNL     1      -5.850  12.768  19.689  0.00  0.00    +0.000 A 
ATOM     13  O   UNL     1      -5.377  12.647  20.982  0.00  0.00    +0.000 OA
ATOM     14  C   UNL     1      -6.396  12.868  21.961  0.00  0.00    +0.000 C 
ATOM     15  C   UNL     1      -7.218  14.096  21.615  0.00  0.00    +0.000 C 
ATOM     16  O   UNL     1      -7.917  13.896  20.387  0.00  0.00    +0.000 OA
ENDBRANCH   4   7
BRANCH   1  17
ATOM     17  C   UNL     1      -0.516  10.251  19.091  0.00  0.00    +0.000 C 
BRANCH  17  18
ATOM     18  C   UNL     1       0.989  10.242  19.432  0.00  0.00    +0.000 C 
BRANCH  18  29
ATOM     19  O   UNL     1       1.081   8.104  21.490  0.00  0.00    +0.000 OA
ATOM     20  C   UNL     1       1.550   8.001  20.374  0.00  0.00    +0.000 C 
ATOM     21  C   UNL     1       2.237   6.812  19.875  0.00  0.00    +0.000 A 
ATOM     22  C   UNL     1       2.510   5.611  20.500  0.00  0.00    +0.000 A 
ATOM     23  C   UNL     1       3.198   4.647  19.756  0.00  0.00    +0.000 A 
ATOM     24  C   UNL     1       3.592   4.903  18.426  0.00  0.00    +0.000 A 
ATOM     25  C   UNL     1       3.303   6.129  17.815  0.00  0.00    +0.000 A 
ATOM     26  C   UNL     1       2.621   7.064  18.570  0.00  0.00    +0.000 A 
ATOM     27  C   UNL     1       2.178   8.416  18.235  0.00  0.00    +0.000 C 
ATOM     28  O   UNL     1       2.347   8.950  17.156  0.00  0.00    +0.000 OA
ATOM     29  N   UNL     1       1.562   8.911  19.353  0.00  0.00    +0.000 N 
ENDBRANCH  18  29
ENDBRANCH  17  18
ENDBRANCH   1  17
TORSDOF 4
ENDMDL
