MODEL 1
REMARK VINA RESULT:      -8.7      0.000      0.000
REMARK  Name = 
REMARK  7 active torsions:
REMARK  status: ('A' for Active; 'I' for Inactive)
REMARK    1  A    between atoms: C_1  and  C_2
REMARK    2  A    between atoms: N_5  and  C_6
REMARK    3  A    between atoms: C_6  and  C_7
REMARK    4  A    between atoms: C_7  and  O_8
REMARK    5  A    between atoms: C_11  and  C_12
REMARK    6  A    between atoms: N_14  and  C_15
REMARK    7  A    between atoms: C_20  and  C_21
REMARK                            x       y       z     vdW  Elec       q    Type
REMARK                         _______ _______ _______ _____ _____    ______ ____
ROOT
ATOM      1  C   UNL     1       1.551   7.710  20.287  0.00  0.00    +0.000 C 
ATOM      2  O   UNL     1       2.087   7.961  19.210  0.00  0.00    +0.000 OA
ATOM      3  N   UNL     1       1.447   6.445  20.850  0.00  0.00    +0.000 N 
ATOM      4  H   UNL     1       0.801   6.312  21.615  0.00  0.00    +0.000 HD
ENDROOT
BRANCH   1  12
ATOM      5  C   UNL     1      -0.007  10.070  18.894  0.00  0.00    +0.000 C 
ATOM      6  C   UNL     1       0.154   9.885  20.371  0.00  0.00    +0.000 A 
ATOM      7  N   UNL     1      -0.523  10.818  21.107  0.00  0.00    +0.000 NA
ATOM      8  C   UNL     1      -0.503  10.761  22.453  0.00  0.00    +0.000 A 
ATOM      9  N   UNL     1      -1.302  11.616  23.179  0.00  0.00    +0.000 N 
ATOM     10  C   UNL     1       0.197   9.768  23.112  0.00  0.00    +0.000 A 
ATOM     11  C   UNL     1       0.882   8.810  22.367  0.00  0.00    +0.000 A 
ATOM     12  C   UNL     1       0.878   8.852  20.965  0.00  0.00    +0.000 A 
ATOM     13  H   UNL     1      -1.117  11.769  24.159  0.00  0.00    +0.000 HD
BRANCH   9  14
ATOM     14  C   UNL     1      -2.454  12.269  22.572  0.00  0.00    +0.000 C 
BRANCH  14  15
ATOM     15  C   UNL     1      -3.336  12.907  23.655  0.00  0.00    +0.000 C 
BRANCH  15  16
ATOM     16  O   UNL     1      -4.226  11.935  24.210  0.00  0.00    +0.000 OA
ATOM     17  H   UNL     1      -4.973  11.891  23.583  0.00  0.00    +0.000 HD
ENDBRANCH  15  16
ENDBRANCH  14  15
ENDBRANCH   9  14
ENDBRANCH   1  12
BRANCH   3  18
ATOM     18  C   UNL     1       1.972   5.260  20.271  0.00  0.00    +0.000 A 
ATOM     19  C   UNL     1       1.414   3.996  20.495  0.00  0.00    +0.000 A 
ATOM     20  C   UNL     1       2.017   2.857  19.988  0.00  0.00    +0.000 A 
ATOM     21  C   UNL     1       3.190   2.940  19.234  0.00  0.00    +0.000 A 
ATOM     22 CL   UNL     1       3.889   1.405  18.826  0.00  0.00    +0.000 Cl
ATOM     23  C   UNL     1       3.751   4.198  18.912  0.00  0.00    +0.000 A 
ATOM     24  C   UNL     1       3.110   5.346  19.452  0.00  0.00    +0.000 A 
BRANCH  23  25
ATOM     25  C   UNL     1       4.973   4.371  18.087  0.00  0.00    +0.000 A 
ATOM     26  C   UNL     1       4.979   4.288  16.693  0.00  0.00    +0.000 A 
ATOM     27  C   UNL     1       6.179   4.357  15.994  0.00  0.00    +0.000 A 
ATOM     28  C   UNL     1       7.351   4.579  16.694  0.00  0.00    +0.000 A 
ATOM     29  C   UNL     1       7.270   4.725  18.067  0.00  0.00    +0.000 A 
ATOM     30  N   UNL     1       6.120   4.625  18.773  0.00  0.00    +0.000 NA
ENDBRANCH  23  25
ENDBRANCH   3  18
TORSDOF 6
ENDMDL
MODEL 2
REMARK VINA RESULT:      -8.5      0.648      1.014
REMARK  Name = 
REMARK  7 active torsions:
REMARK  status: ('A' for Active; 'I' for Inactive)
REMARK    1  A    between atoms: C_1  and  C_2
REMARK    2  A    between atoms: N_5  and  C_6
REMARK    3  A    between atoms: C_6  and  C_7
REMARK    4  A    between atoms: C_7  and  O_8
REMARK    5  A    between atoms: C_11  and  C_12
REMARK    6  A    between atoms: N_14  and  C_15
REMARK    7  A    between atoms: C_20  and  C_21
REMARK                            x       y       z     vdW  Elec       q    Type
REMARK                         _______ _______ _______ _____ _____    ______ ____
ROOT
ATOM      1  C   UNL     1       1.530   7.963  20.337  0.00  0.00    +0.000 C 
ATOM      2  O   UNL     1       1.992   8.182  19.220  0.00  0.00    +0.000 OA
ATOM      3  N   UNL     1       1.483   6.719  20.951  0.00  0.00    +0.000 N 
ATOM      4  H   UNL     1       0.890   6.605  21.760  0.00  0.00    +0.000 HD
ENDROOT
BRANCH   1  12
ATOM      5  C   UNL     1       0.714  10.705  19.012  0.00  0.00    +0.000 C 
ATOM      6  C   UNL     1       0.481  10.325  20.441  0.00  0.00    +0.000 A 
ATOM      7  N   UNL     1      -0.214  11.271  21.143  0.00  0.00    +0.000 NA
ATOM      8  C   UNL     1      -0.532  11.057  22.434  0.00  0.00    +0.000 A 
ATOM      9  N   UNL     1      -1.353  11.949  23.088  0.00  0.00    +0.000 N 
ATOM     10  C   UNL     1      -0.164   9.887  23.072  0.00  0.00    +0.000 A 
ATOM     11  C   UNL     1       0.538   8.917  22.360  0.00  0.00    +0.000 A 
ATOM     12  C   UNL     1       0.883   9.120  21.016  0.00  0.00    +0.000 A 
ATOM     13  H   UNL     1      -1.393  11.953  24.096  0.00  0.00    +0.000 HD
BRANCH   9  14
ATOM     14  C   UNL     1      -2.216  12.860  22.347  0.00  0.00    +0.000 C 
BRANCH  14  15
ATOM     15  C   UNL     1      -3.684  12.645  22.746  0.00  0.00    +0.000 C 
BRANCH  15  16
ATOM     16  O   UNL     1      -3.765  11.946  23.991  0.00  0.00    +0.000 OA
ATOM     17  H   UNL     1      -2.931  11.444  24.052  0.00  0.00    +0.000 HD
ENDBRANCH  15  16
ENDBRANCH  14  15
ENDBRANCH   9  14
ENDBRANCH   1  12
BRANCH   3  18
ATOM     18  C   UNL     1       1.991   5.521  20.382  0.00  0.00    +0.000 A 
ATOM     19  C   UNL     1       1.353   4.283  20.530  0.00  0.00    +0.000 A 
ATOM     20  C   UNL     1       1.935   3.126  20.039  0.00  0.00    +0.000 A 
ATOM     21  C   UNL     1       3.165   3.164  19.379  0.00  0.00    +0.000 A 
ATOM     22 CL   UNL     1       3.815   1.604  18.984  0.00  0.00    +0.000 Cl
ATOM     23  C   UNL     1       3.813   4.397  19.133  0.00  0.00    +0.000 A 
ATOM     24  C   UNL     1       3.191   5.565  19.654  0.00  0.00    +0.000 A 
BRANCH  23  25
ATOM     25  C   UNL     1       5.102   4.524  18.408  0.00  0.00    +0.000 A 
ATOM     26  C   UNL     1       6.272   5.006  18.997  0.00  0.00    +0.000 A 
ATOM     27  C   UNL     1       7.415   5.195  18.228  0.00  0.00    +0.000 A 
ATOM     28  C   UNL     1       7.392   4.833  16.893  0.00  0.00    +0.000 A 
ATOM     29  C   UNL     1       6.223   4.294  16.385  0.00  0.00    +0.000 A 
ATOM     30  N   UNL     1       5.088   4.135  17.105  0.00  0.00    +0.000 NA
ENDBRANCH  23  25
ENDBRANCH   3  18
TORSDOF 6
ENDMDL
MODEL 3
REMARK VINA RESULT:      -8.4      1.061      1.063
REMARK  Name = 
REMARK  7 active torsions:
REMARK  status: ('A' for Active; 'I' for Inactive)
REMARK    1  A    between atoms: C_1  and  C_2
REMARK    2  A    between atoms: N_5  and  C_6
REMARK    3  A    between atoms: C_6  and  C_7
REMARK    4  A    between atoms: C_7  and  O_8
REMARK    5  A    between atoms: C_11  and  C_12
REMARK    6  A    between atoms: N_14  and  C_15
REMARK    7  A    between atoms: C_20  and  C_21
REMARK                            x       y       z     vdW  Elec       q    Type
REMARK                         _______ _______ _______ _____ _____    ______ ____
ROOT
ATOM      1  C   UNL     1       1.484   8.060  20.298  0.00  0.00    +0.000 C 
ATOM      2  O   UNL     1       1.775   8.227  19.116  0.00  0.00    +0.000 OA
ATOM      3  N   UNL     1       1.569   6.853  20.977  0.00  0.00    +0.000 N 
ATOM      4  H   UNL     1       1.101   6.769  21.868  0.00  0.00    +0.000 HD
ENDROOT
BRANCH   1  12
ATOM      5  C   UNL     1       1.186  10.980  19.148  0.00  0.00    +0.000 C 
ATOM      6  C   UNL     1       0.722  10.524  20.496  0.00  0.00    +0.000 A 
ATOM      7  N   UNL     1       0.060  11.495  21.195  0.00  0.00    +0.000 NA
ATOM      8  C   UNL     1      -0.450  11.224  22.412  0.00  0.00    +0.000 A 
ATOM      9  N   UNL     1      -1.236  12.163  23.043  0.00  0.00    +0.000 N 
ATOM     10  C   UNL     1      -0.313   9.970  22.976  0.00  0.00    +0.000 A 
ATOM     11  C   UNL     1       0.355   8.974  22.266  0.00  0.00    +0.000 A 
ATOM     12  C   UNL     1       0.896   9.235  20.999  0.00  0.00    +0.000 A 
ATOM     13  H   UNL     1      -1.408  12.093  24.034  0.00  0.00    +0.000 HD
BRANCH   9  14
ATOM     14  C   UNL     1      -1.877  13.234  22.292  0.00  0.00    +0.000 C 
BRANCH  14  15
ATOM     15  C   UNL     1      -3.160  12.720  21.621  0.00  0.00    +0.000 C 
BRANCH  15  16
ATOM     16  O   UNL     1      -2.905  12.379  20.256  0.00  0.00    +0.000 OA
ATOM     17  H   UNL     1      -2.010  12.721  20.074  0.00  0.00    +0.000 HD
ENDBRANCH  15  16
ENDBRANCH  14  15
ENDBRANCH   9  14
ENDBRANCH   1  12
BRANCH   3  18
ATOM     18  C   UNL     1       2.035   5.638  20.407  0.00  0.00    +0.000 A 
ATOM     19  C   UNL     1       1.385   4.414  20.598  0.00  0.00    +0.000 A 
ATOM     20  C   UNL     1       1.929   3.240  20.102  0.00  0.00    +0.000 A 
ATOM     21  C   UNL     1       3.132   3.249  19.393  0.00  0.00    +0.000 A 
ATOM     22 CL   UNL     1       3.741   1.673  18.996  0.00  0.00    +0.000 Cl
ATOM     23  C   UNL     1       3.789   4.468  19.104  0.00  0.00    +0.000 A 
ATOM     24  C   UNL     1       3.206   5.653  19.631  0.00  0.00    +0.000 A 
BRANCH  23  25
ATOM     25  C   UNL     1       5.049   4.564  18.326  0.00  0.00    +0.000 A 
ATOM     26  C   UNL     1       5.114   4.396  16.942  0.00  0.00    +0.000 A 
ATOM     27  C   UNL     1       6.345   4.397  16.294  0.00  0.00    +0.000 A 
ATOM     28  C   UNL     1       7.490   4.635  17.032  0.00  0.00    +0.000 A 
ATOM     29  C   UNL     1       7.353   4.866  18.389  0.00  0.00    +0.000 A 
ATOM     30  N   UNL     1       6.170   4.834  19.047  0.00  0.00    +0.000 NA
ENDBRANCH  23  25
ENDBRANCH   3  18
TORSDOF 6
ENDMDL
MODEL 4
REMARK VINA RESULT:      -8.2      1.213      1.485
REMARK  Name = 
REMARK  7 active torsions:
REMARK  status: ('A' for Active; 'I' for Inactive)
REMARK    1  A    between atoms: C_1  and  C_2
REMARK    2  A    between atoms: N_5  and  C_6
REMARK    3  A    between atoms: C_6  and  C_7
REMARK    4  A    between atoms: C_7  and  O_8
REMARK    5  A    between atoms: C_11  and  C_12
REMARK    6  A    between atoms: N_14  and  C_15
REMARK    7  A    between atoms: C_20  and  C_21
REMARK                            x       y       z     vdW  Elec       q    Type
REMARK                         _______ _______ _______ _____ _____    ______ ____
ROOT
ATOM      1  C   UNL     1       1.434   8.003  20.326  0.00  0.00    +0.000 C 
ATOM      2  O   UNL     1       1.997   8.209  19.254  0.00  0.00    +0.000 OA
ATOM      3  N   UNL     1       1.372   6.775  20.971  0.00  0.00    +0.000 N 
ATOM      4  H   UNL     1       0.705   6.659  21.721  0.00  0.00    +0.000 HD
ENDROOT
BRANCH   1  12
ATOM      5  C   UNL     1      -0.124  10.221  18.717  0.00  0.00    +0.000 C 
ATOM      6  C   UNL     1      -0.047  10.120  20.209  0.00  0.00    +0.000 A 
ATOM      7  N   UNL     1      -0.801  11.062  20.852  0.00  0.00    +0.000 NA
ATOM      8  C   UNL     1      -0.862  11.076  22.197  0.00  0.00    +0.000 A 
ATOM      9  N   UNL     1      -1.735  11.935  22.828  0.00  0.00    +0.000 N 
ATOM     10  C   UNL     1      -0.167  10.148  22.950  0.00  0.00    +0.000 A 
ATOM     11  C   UNL     1       0.598   9.182  22.300  0.00  0.00    +0.000 A 
ATOM     12  C   UNL     1       0.678   9.150  20.900  0.00  0.00    +0.000 A 
ATOM     13  H   UNL     1      -1.616  12.146  23.808  0.00  0.00    +0.000 HD
BRANCH   9  14
ATOM     14  C   UNL     1      -2.871  12.508  22.119  0.00  0.00    +0.000 C 
BRANCH  14  15
ATOM     15  C   UNL     1      -2.517  13.906  21.589  0.00  0.00    +0.000 C 
BRANCH  15  16
ATOM     16  O   UNL     1      -2.225  13.849  20.191  0.00  0.00    +0.000 OA
ATOM     17  H   UNL     1      -2.983  13.381  19.794  0.00  0.00    +0.000 HD
ENDBRANCH  15  16
ENDBRANCH  14  15
ENDBRANCH   9  14
ENDBRANCH   1  12
BRANCH   3  18
ATOM     18  C   UNL     1       1.979   5.583  20.494  0.00  0.00    +0.000 A 
ATOM     19  C   UNL     1       1.422   4.315  20.701  0.00  0.00    +0.000 A 
ATOM     20  C   UNL     1       2.098   3.174  20.301  0.00  0.00    +0.000 A 
ATOM     21  C   UNL     1       3.343   3.257  19.676  0.00  0.00    +0.000 A 
ATOM     22 CL   UNL     1       4.111   1.726  19.399  0.00  0.00    +0.000 Cl
ATOM     23  C   UNL     1       3.914   4.516  19.371  0.00  0.00    +0.000 A 
ATOM     24  C   UNL     1       3.197   5.667  19.799  0.00  0.00    +0.000 A 
BRANCH  23  25
ATOM     25  C   UNL     1       5.214   4.689  18.676  0.00  0.00    +0.000 A 
ATOM     26  C   UNL     1       6.332   5.277  19.271  0.00  0.00    +0.000 A 
ATOM     27  C   UNL     1       7.484   5.499  18.525  0.00  0.00    +0.000 A 
ATOM     28  C   UNL     1       7.527   5.067  17.212  0.00  0.00    +0.000 A 
ATOM     29  C   UNL     1       6.412   4.426  16.702  0.00  0.00    +0.000 A 
ATOM     30  N   UNL     1       5.267   4.231  17.397  0.00  0.00    +0.000 NA
ENDBRANCH  23  25
ENDBRANCH   3  18
TORSDOF 6
ENDMDL
MODEL 5
REMARK VINA RESULT:      -8.1      4.075      9.574
REMARK  Name = 
REMARK  7 active torsions:
REMARK  status: ('A' for Active; 'I' for Inactive)
REMARK    1  A    between atoms: C_1  and  C_2
REMARK    2  A    between atoms: N_5  and  C_6
REMARK    3  A    between atoms: C_6  and  C_7
REMARK    4  A    between atoms: C_7  and  O_8
REMARK    5  A    between atoms: C_11  and  C_12
REMARK    6  A    between atoms: N_14  and  C_15
REMARK    7  A    between atoms: C_20  and  C_21
REMARK                            x       y       z     vdW  Elec       q    Type
REMARK                         _______ _______ _______ _____ _____    ______ ____
ROOT
ATOM      1  C   UNL     1       2.012   8.500  18.511  0.00  0.00    +0.000 C 
ATOM      2  O   UNL     1       2.091   9.059  17.420  0.00  0.00    +0.000 OA
ATOM      3  N   UNL     1       1.350   9.007  19.621  0.00  0.00    +0.000 N 
ATOM      4  H   UNL     1       1.530   8.586  20.521  0.00  0.00    +0.000 HD
ENDROOT
BRANCH   1  12
ATOM      5  C   UNL     1       1.563   6.262  20.686  0.00  0.00    +0.000 C 
ATOM      6  C   UNL     1       2.578   6.216  19.586  0.00  0.00    +0.000 A 
ATOM      7  N   UNL     1       3.277   5.042  19.547  0.00  0.00    +0.000 NA
ATOM      8  C   UNL     1       4.202   4.837  18.590  0.00  0.00    +0.000 A 
ATOM      9  N   UNL     1       4.796   3.600  18.473  0.00  0.00    +0.000 N 
ATOM     10  C   UNL     1       4.463   5.803  17.636  0.00  0.00    +0.000 A 
ATOM     11  C   UNL     1       3.749   6.999  17.666  0.00  0.00    +0.000 A 
ATOM     12  C   UNL     1       2.784   7.235  18.656  0.00  0.00    +0.000 A 
ATOM     13  H   UNL     1       5.654   3.498  17.952  0.00  0.00    +0.000 HD
BRANCH   9  14
ATOM     14  C   UNL     1       4.178   2.412  19.046  0.00  0.00    +0.000 C 
BRANCH  14  15
ATOM     15  C   UNL     1       3.189   1.792  18.048  0.00  0.00    +0.000 C 
BRANCH  15  16
ATOM     16  O   UNL     1       1.965   1.452  18.704  0.00  0.00    +0.000 OA
ATOM     17  H   UNL     1       1.334   2.146  18.434  0.00  0.00    +0.000 HD
ENDBRANCH  15  16
ENDBRANCH  14  15
ENDBRANCH   9  14
ENDBRANCH   1  12
BRANCH   3  18
ATOM     18  C   UNL     1       0.642  10.238  19.644  0.00  0.00    +0.000 A 
ATOM     19  C   UNL     1       1.113  11.369  20.322  0.00  0.00    +0.000 A 
ATOM     20  C   UNL     1       0.343  12.518  20.397  0.00  0.00    +0.000 A 
ATOM     21  C   UNL     1      -0.915  12.582  19.794  0.00  0.00    +0.000 A 
ATOM     22 CL   UNL     1      -1.800  14.035  20.133  0.00  0.00    +0.000 Cl
ATOM     23  C   UNL     1      -1.403  11.496  19.029  0.00  0.00    +0.000 A 
ATOM     24  C   UNL     1      -0.590  10.330  18.976  0.00  0.00    +0.000 A 
BRANCH  23  25
ATOM     25  C   UNL     1      -2.711  11.500  18.327  0.00  0.00    +0.000 A 
ATOM     26  C   UNL     1      -2.865  11.153  16.984  0.00  0.00    +0.000 A 
ATOM     27  C   UNL     1      -4.104  11.280  16.367  0.00  0.00    +0.000 A 
ATOM     28  C   UNL     1      -5.190  11.688  17.121  0.00  0.00    +0.000 A 
ATOM     29  C   UNL     1      -4.987  11.949  18.464  0.00  0.00    +0.000 A 
ATOM     30  N   UNL     1      -3.784  11.867  19.078  0.00  0.00    +0.000 NA
ENDBRANCH  23  25
ENDBRANCH   3  18
TORSDOF 6
ENDMDL
MODEL 6
REMARK VINA RESULT:      -7.9      4.119      9.679
REMARK  Name = 
REMARK  7 active torsions:
REMARK  status: ('A' for Active; 'I' for Inactive)
REMARK    1  A    between atoms: C_1  and  C_2
REMARK    2  A    between atoms: N_5  and  C_6
REMARK    3  A    between atoms: C_6  and  C_7
REMARK    4  A    between atoms: C_7  and  O_8
REMARK    5  A    between atoms: C_11  and  C_12
REMARK    6  A    between atoms: N_14  and  C_15
REMARK    7  A    between atoms: C_20  and  C_21
REMARK                            x       y       z     vdW  Elec       q    Type
REMARK                         _______ _______ _______ _____ _____    ______ ____
ROOT
ATOM      1  C   UNL     1       2.076   8.008  19.249  0.00  0.00    +0.000 C 
ATOM      2  O   UNL     1       1.810   8.245  20.425  0.00  0.00    +0.000 OA
ATOM      3  N   UNL     1       1.767   8.836  18.179  0.00  0.00    +0.000 N 
ATOM      4  H   UNL     1       1.824   8.455  17.245  0.00  0.00    +0.000 HD
ENDROOT
BRANCH   1  12
ATOM      5  C   UNL     1       1.425   5.302  20.731  0.00  0.00    +0.000 C 
ATOM      6  C   UNL     1       2.379   5.462  19.589  0.00  0.00    +0.000 A 
ATOM      7  N   UNL     1       2.916   4.277  19.166  0.00  0.00    +0.000 NA
ATOM      8  C   UNL     1       3.766   4.253  18.122  0.00  0.00    +0.000 A 
ATOM      9  N   UNL     1       4.187   3.044  17.616  0.00  0.00    +0.000 N 
ATOM     10  C   UNL     1       4.113   5.418  17.463  0.00  0.00    +0.000 A 
ATOM     11  C   UNL     1       3.565   6.627  17.884  0.00  0.00    +0.000 A 
ATOM     12  C   UNL     1       2.680   6.675  18.971  0.00  0.00    +0.000 A 
ATOM     13  H   UNL     1       5.001   3.000  17.022  0.00  0.00    +0.000 HD
BRANCH   9  14
ATOM     14  C   UNL     1       3.441   1.819  17.875  0.00  0.00    +0.000 C 
BRANCH  14  15
ATOM     15  C   UNL     1       4.132   0.998  18.974  0.00  0.00    +0.000 C 
BRANCH  15  16
ATOM     16  O   UNL     1       5.002   1.830  19.746  0.00  0.00    +0.000 OA
ATOM     17  H   UNL     1       5.741   1.249  20.004  0.00  0.00    +0.000 HD
ENDBRANCH  15  16
ENDBRANCH  14  15
ENDBRANCH   9  14
ENDBRANCH   1  12
BRANCH   3  18
ATOM     18  C   UNL     1       1.122  10.095  18.295  0.00  0.00    +0.000 A 
ATOM     19  C   UNL     1       1.795  11.258  18.687  0.00  0.00    +0.000 A 
ATOM     20  C   UNL     1       1.103  12.443  18.879  0.00  0.00    +0.000 A 
ATOM     21  C   UNL     1      -0.276  12.512  18.678  0.00  0.00    +0.000 A 
ATOM     22 CL   UNL     1      -0.992  14.028  19.126  0.00  0.00    +0.000 Cl
ATOM     23  C   UNL     1      -0.992  11.387  18.204  0.00  0.00    +0.000 A 
ATOM     24  C   UNL     1      -0.254  10.185  18.022  0.00  0.00    +0.000 A 
BRANCH  23  25
ATOM     25  C   UNL     1      -2.451  11.389  17.931  0.00  0.00    +0.000 A 
ATOM     26  C   UNL     1      -3.003  11.055  16.693  0.00  0.00    +0.000 A 
ATOM     27  C   UNL     1      -4.371  11.181  16.480  0.00  0.00    +0.000 A 
ATOM     28  C   UNL     1      -5.179  11.574  17.532  0.00  0.00    +0.000 A 
ATOM     29  C   UNL     1      -4.580  11.822  18.754  0.00  0.00    +0.000 A 
ATOM     30  N   UNL     1      -3.248  11.741  18.975  0.00  0.00    +0.000 NA
ENDBRANCH  23  25
ENDBRANCH   3  18
TORSDOF 6
ENDMDL
MODEL 7
REMARK VINA RESULT:      -7.8      1.388      1.956
REMARK  Name = 
REMARK  7 active torsions:
REMARK  status: ('A' for Active; 'I' for Inactive)
REMARK    1  A    between atoms: C_1  and  C_2
REMARK    2  A    between atoms: N_5  and  C_6
REMARK    3  A    between atoms: C_6  and  C_7
REMARK    4  A    between atoms: C_7  and  O_8
REMARK    5  A    between atoms: C_11  and  C_12
REMARK    6  A    between atoms: N_14  and  C_15
REMARK    7  A    between atoms: C_20  and  C_21
REMARK                            x       y       z     vdW  Elec       q    Type
REMARK                         _______ _______ _______ _____ _____    ______ ____
ROOT
ATOM      1  C   UNL     1       1.753   8.299  19.540  0.00  0.00    +0.000 C 
ATOM      2  O   UNL     1       2.118   8.236  18.368  0.00  0.00    +0.000 OA
ATOM      3  N   UNL     1       1.802   7.250  20.448  0.00  0.00    +0.000 N 
ATOM      4  H   UNL     1       1.278   7.335  21.307  0.00  0.00    +0.000 HD
ENDROOT
BRANCH   1  12
ATOM      5  C   UNL     1       1.200   9.244  22.496  0.00  0.00    +0.000 C 
ATOM      6  C   UNL     1       0.896  10.031  21.259  0.00  0.00    +0.000 A 
ATOM      7  N   UNL     1       0.408  11.281  21.522  0.00  0.00    +0.000 NA
ATOM      8  C   UNL     1       0.120  12.122  20.510  0.00  0.00    +0.000 A 
ATOM      9  N   UNL     1      -0.233  13.423  20.789  0.00  0.00    +0.000 N 
ATOM     10  C   UNL     1       0.309  11.741  19.195  0.00  0.00    +0.000 A 
ATOM     11  C   UNL     1       0.813  10.471  18.921  0.00  0.00    +0.000 A 
ATOM     12  C   UNL     1       1.116   9.578  19.959  0.00  0.00    +0.000 A 
ATOM     13  H   UNL     1      -0.694  13.983  20.087  0.00  0.00    +0.000 HD
BRANCH   9  14
ATOM     14  C   UNL     1       0.095  14.035  22.070  0.00  0.00    +0.000 C 
BRANCH  14  15
ATOM     15  C   UNL     1      -1.140  14.055  22.983  0.00  0.00    +0.000 C 
BRANCH  15  16
ATOM     16  O   UNL     1      -1.318  12.781  23.608  0.00  0.00    +0.000 OA
ATOM     17  H   UNL     1      -1.037  12.914  24.533  0.00  0.00    +0.000 HD
ENDBRANCH  15  16
ENDBRANCH  14  15
ENDBRANCH   9  14
ENDBRANCH   1  12
BRANCH   3  18
ATOM     18  C   UNL     1       2.309   5.957  20.157  0.00  0.00    +0.000 A 
ATOM     19  C   UNL     1       1.834   4.799  20.784  0.00  0.00    +0.000 A 
ATOM     20  C   UNL     1       2.426   3.570  20.539  0.00  0.00    +0.000 A 
ATOM     21  C   UNL     1       3.502   3.452  19.658  0.00  0.00    +0.000 A 
ATOM     22 CL   UNL     1       4.217   1.872  19.605  0.00  0.00    +0.000 Cl
ATOM     23  C   UNL     1       3.969   4.578  18.938  0.00  0.00    +0.000 A 
ATOM     24  C   UNL     1       3.344   5.824  19.216  0.00  0.00    +0.000 A 
BRANCH  23  25
ATOM     25  C   UNL     1       5.082   4.528  17.957  0.00  0.00    +0.000 A 
ATOM     26  C   UNL     1       4.893   4.329  16.588  0.00  0.00    +0.000 A 
ATOM     27  C   UNL     1       5.989   4.190  15.744  0.00  0.00    +0.000 A 
ATOM     28  C   UNL     1       7.262   4.321  16.271  0.00  0.00    +0.000 A 
ATOM     29  C   UNL     1       7.381   4.589  17.623  0.00  0.00    +0.000 A 
ATOM     30  N   UNL     1       6.331   4.693  18.470  0.00  0.00    +0.000 NA
ENDBRANCH  23  25
ENDBRANCH   3  18
TORSDOF 6
ENDMDL
MODEL 8
REMARK VINA RESULT:      -7.7      2.160      2.611
REMARK  Name = 
REMARK  7 active torsions:
REMARK  status: ('A' for Active; 'I' for Inactive)
REMARK    1  A    between atoms: C_1  and  C_2
REMARK    2  A    between atoms: N_5  and  C_6
REMARK    3  A    between atoms: C_6  and  C_7
REMARK    4  A    between atoms: C_7  and  O_8
REMARK    5  A    between atoms: C_11  and  C_12
REMARK    6  A    between atoms: N_14  and  C_15
REMARK    7  A    between atoms: C_20  and  C_21
REMARK                            x       y       z     vdW  Elec       q    Type
REMARK                         _______ _______ _______ _____ _____    ______ ____
ROOT
ATOM      1  C   UNL     1       1.660   8.448  19.357  0.00  0.00    +0.000 C 
ATOM      2  O   UNL     1       1.789   8.294  18.144  0.00  0.00    +0.000 OA
ATOM      3  N   UNL     1       1.903   7.472  20.314  0.00  0.00    +0.000 N 
ATOM      4  H   UNL     1       1.557   7.622  21.251  0.00  0.00    +0.000 HD
ENDROOT
BRANCH   1  12
ATOM      5  C   UNL     1       0.921   9.283  22.306  0.00  0.00    +0.000 C 
ATOM      6  C   UNL     1       0.798  10.156  21.096  0.00  0.00    +0.000 A 
ATOM      7  N   UNL     1       0.394  11.430  21.390  0.00  0.00    +0.000 NA
ATOM      8  C   UNL     1       0.271  12.344  20.410  0.00  0.00    +0.000 A 
ATOM      9  N   UNL     1       0.003  13.655  20.734  0.00  0.00    +0.000 N 
ATOM     10  C   UNL     1       0.546  12.017  19.095  0.00  0.00    +0.000 A 
ATOM     11  C   UNL     1       0.965  10.723  18.790  0.00  0.00    +0.000 A 
ATOM     12  C   UNL     1       1.096   9.755  19.795  0.00  0.00    +0.000 A 
ATOM     13  H   UNL     1      -0.343  14.290  20.029  0.00  0.00    +0.000 HD
BRANCH   9  14
ATOM     14  C   UNL     1       0.264  14.168  22.072  0.00  0.00    +0.000 C 
BRANCH  14  15
ATOM     15  C   UNL     1       1.251  15.344  22.009  0.00  0.00    +0.000 C 
BRANCH  15  16
ATOM     16  O   UNL     1       2.509  14.969  22.576  0.00  0.00    +0.000 OA
ATOM     17  H   UNL     1       2.557  15.452  23.423  0.00  0.00    +0.000 HD
ENDBRANCH  15  16
ENDBRANCH  14  15
ENDBRANCH   9  14
ENDBRANCH   1  12
BRANCH   3  18
ATOM     18  C   UNL     1       2.365   6.160  20.028  0.00  0.00    +0.000 A 
ATOM     19  C   UNL     1       1.837   5.020  20.646  0.00  0.00    +0.000 A 
ATOM     20  C   UNL     1       2.385   3.771  20.407  0.00  0.00    +0.000 A 
ATOM     21  C   UNL     1       3.468   3.613  19.540  0.00  0.00    +0.000 A 
ATOM     22 CL   UNL     1       4.123   2.007  19.494  0.00  0.00    +0.000 Cl
ATOM     23  C   UNL     1       3.988   4.721  18.829  0.00  0.00    +0.000 A 
ATOM     24  C   UNL     1       3.407   5.990  19.101  0.00  0.00    +0.000 A 
BRANCH  23  25
ATOM     25  C   UNL     1       5.112   4.630  17.864  0.00  0.00    +0.000 A 
ATOM     26  C   UNL     1       4.934   4.480  16.488  0.00  0.00    +0.000 A 
ATOM     27  C   UNL     1       6.034   4.298  15.657  0.00  0.00    +0.000 A 
ATOM     28  C   UNL     1       7.303   4.337  16.206  0.00  0.00    +0.000 A 
ATOM     29  C   UNL     1       7.416   4.561  17.566  0.00  0.00    +0.000 A 
ATOM     30  N   UNL     1       6.360   4.705  18.400  0.00  0.00    +0.000 NA
ENDBRANCH  23  25
ENDBRANCH   3  18
TORSDOF 6
ENDMDL
MODEL 9
REMARK VINA RESULT:      -7.7      4.077      9.881
REMARK  Name = 
REMARK  7 active torsions:
REMARK  status: ('A' for Active; 'I' for Inactive)
REMARK    1  A    between atoms: C_1  and  C_2
REMARK    2  A    between atoms: N_5  and  C_6
REMARK    3  A    between atoms: C_6  and  C_7
REMARK    4  A    between atoms: C_7  and  O_8
REMARK    5  A    between atoms: C_11  and  C_12
REMARK    6  A    between atoms: N_14  and  C_15
REMARK    7  A    between atoms: C_20  and  C_21
REMARK                            x       y       z     vdW  Elec       q    Type
REMARK                         _______ _______ _______ _____ _____    ______ ____
ROOT
ATOM      1  C   UNL     1       2.036   8.731  18.343  0.00  0.00    +0.000 C 
ATOM      2  O   UNL     1       1.959   9.038  17.156  0.00  0.00    +0.000 OA
ATOM      3  N   UNL     1       1.607   9.522  19.400  0.00  0.00    +0.000 N 
ATOM      4  H   UNL     1       1.915   9.286  20.332  0.00  0.00    +0.000 HD
ENDROOT
BRANCH   1  12
ATOM      5  C   UNL     1       1.431   6.766  20.733  0.00  0.00    +0.000 C 
ATOM      6  C   UNL     1       2.469   6.556  19.674  0.00  0.00    +0.000 A 
ATOM      7  N   UNL     1       3.114   5.355  19.782  0.00  0.00    +0.000 NA
ATOM      8  C   UNL     1       4.051   5.006  18.880  0.00  0.00    +0.000 A 
ATOM      9  N   UNL     1       4.589   3.739  18.915  0.00  0.00    +0.000 N 
ATOM     10  C   UNL     1       4.379   5.850  17.835  0.00  0.00    +0.000 A 
ATOM     11  C   UNL     1       3.721   7.072  17.716  0.00  0.00    +0.000 A 
ATOM     12  C   UNL     1       2.744   7.457  18.646  0.00  0.00    +0.000 A 
ATOM     13  H   UNL     1       5.453   3.544  18.432  0.00  0.00    +0.000 HD
BRANCH   9  14
ATOM     14  C   UNL     1       3.903   2.649  19.594  0.00  0.00    +0.000 C 
BRANCH  14  15
ATOM     15  C   UNL     1       3.226   1.725  18.570  0.00  0.00    +0.000 C 
BRANCH  15  16
ATOM     16  O   UNL     1       4.063   0.602  18.283  0.00  0.00    +0.000 OA
ATOM     17  H   UNL     1       4.973   0.926  18.417  0.00  0.00    +0.000 HD
ENDBRANCH  15  16
ENDBRANCH  14  15
ENDBRANCH   9  14
ENDBRANCH   1  12
BRANCH   3  18
ATOM     18  C   UNL     1       0.989  10.793  19.257  0.00  0.00    +0.000 A 
ATOM     19  C   UNL     1       1.718  11.972  19.062  0.00  0.00    +0.000 A 
ATOM     20  C   UNL     1       1.078  13.199  19.024  0.00  0.00    +0.000 A 
ATOM     21  C   UNL     1      -0.308  13.293  19.168  0.00  0.00    +0.000 A 
ATOM     22 CL   UNL     1      -0.911  14.917  19.261  0.00  0.00    +0.000 Cl
ATOM     23  C   UNL     1      -1.100  12.126  19.287  0.00  0.00    +0.000 A 
ATOM     24  C   UNL     1      -0.411  10.883  19.328  0.00  0.00    +0.000 A 
BRANCH  23  25
ATOM     25  C   UNL     1      -2.579  12.140  19.408  0.00  0.00    +0.000 A 
ATOM     26  C   UNL     1      -3.436  11.646  18.423  0.00  0.00    +0.000 A 
ATOM     27  C   UNL     1      -4.813  11.787  18.559  0.00  0.00    +0.000 A 
ATOM     28  C   UNL     1      -5.317  12.359  19.713  0.00  0.00    +0.000 A 
ATOM     29  C   UNL     1      -4.418  12.763  20.684  0.00  0.00    +0.000 A 
ATOM     30  N   UNL     1      -3.074  12.670  20.558  0.00  0.00    +0.000 NA
ENDBRANCH  23  25
ENDBRANCH   3  18
TORSDOF 6
ENDMDL
