MODEL 1
REMARK VINA RESULT:      -8.8      0.000      0.000
REMARK  Name = 
REMARK  6 active torsions:
REMARK  status: ('A' for Active; 'I' for Inactive)
REMARK    1  A    between atoms: C_1  and  C_2
REMARK    2  A    between atoms: C_7  and  C_8
REMARK    3  A    between atoms: C_13  and  N_14
REMARK    4  A    between atoms: N_17  and  C_18
REMARK    5  A    between atoms: C_18  and  C_19
REMARK    6  A    between atoms: C_19  and  C_20
REMARK                            x       y       z     vdW  Elec       q    Type
REMARK                         _______ _______ _______ _____ _____    ______ ____
ROOT
ATOM      1  N   UNL     1       5.213   5.714  17.972  0.00  0.00    +0.000 N 
ATOM      2  C   UNL     1       6.045   5.656  19.179  0.00  0.00    +0.000 C 
ATOM      3  C   UNL     1       7.527   5.547  18.732  0.00  0.00    +0.000 C 
ATOM      4  N   UNL     1       8.025   6.685  17.927  0.00  0.00    +0.000 NA
ATOM      5  C   UNL     1       7.070   6.938  16.822  0.00  0.00    +0.000 C 
ATOM      6  C   UNL     1       5.549   6.907  17.157  0.00  0.00    +0.000 C 
ENDROOT
BRANCH   1  12
ATOM      7  C   UNL     1       2.692   5.506  18.128  0.00  0.00    +0.000 A 
ATOM      8  C   UNL     1       1.602   4.601  18.035  0.00  0.00    +0.000 A 
ATOM      9  C   UNL     1       1.740   3.288  17.589  0.00  0.00    +0.000 A 
ATOM     10  C   UNL     1       2.992   2.816  17.260  0.00  0.00    +0.000 A 
ATOM     11  C   UNL     1       4.099   3.656  17.387  0.00  0.00    +0.000 A 
ATOM     12  C   UNL     1       4.016   5.006  17.825  0.00  0.00    +0.000 A 
BRANCH   7  19
ATOM     13  C   UNL     1       2.102   6.382  21.086  0.00  0.00    +0.000 C 
ATOM     14  C   UNL     1       1.939   7.267  19.878  0.00  0.00    +0.000 A 
ATOM     15  C   UNL     1       1.381   8.543  20.110  0.00  0.00    +0.000 A 
ATOM     16  C   UNL     1       1.256   9.474  19.089  0.00  0.00    +0.000 A 
ATOM     17  C   UNL     1       1.819   9.193  17.854  0.00  0.00    +0.000 A 
ATOM     18  C   UNL     1       2.424   7.949  17.626  0.00  0.00    +0.000 A 
ATOM     19  C   UNL     1       2.373   6.910  18.569  0.00  0.00    +0.000 A 
ENDBRANCH   7  19
ENDBRANCH   1  12
BRANCH   4  20
ATOM     20  C   UNL     1       8.321   7.865  18.742  0.00  0.00    +0.000 C 
BRANCH  20  21
ATOM     21  C   UNL     1       8.323   9.133  17.866  0.00  0.00    +0.000 C 
BRANCH  21  22
ATOM     22  C   UNL     1       8.922  10.325  18.561  0.00  0.00    +0.000 A 
ATOM     23  C   UNL     1       9.401  10.203  19.867  0.00  0.00    +0.000 A 
ATOM     24  C   UNL     1       9.923  11.318  20.529  0.00  0.00    +0.000 A 
ATOM     25  C   UNL     1       9.983  12.553  19.874  0.00  0.00    +0.000 A 
ATOM     26 CL   UNL     1      10.648  13.891  20.747  0.00  0.00    +0.000 Cl
ATOM     27  C   UNL     1       9.504  12.680  18.565  0.00  0.00    +0.000 A 
ATOM     28 CL   UNL     1       9.529  14.176  17.700  0.00  0.00    +0.000 Cl
ATOM     29  C   UNL     1       8.975  11.567  17.912  0.00  0.00    +0.000 A 
ENDBRANCH  21  22
ENDBRANCH  20  21
ENDBRANCH   4  20
TORSDOF 5
ENDMDL
MODEL 2
REMARK VINA RESULT:      -8.7      0.808      1.263
REMARK  Name = 
REMARK  6 active torsions:
REMARK  status: ('A' for Active; 'I' for Inactive)
REMARK    1  A    between atoms: C_1  and  C_2
REMARK    2  A    between atoms: C_7  and  C_8
REMARK    3  A    between atoms: C_13  and  N_14
REMARK    4  A    between atoms: N_17  and  C_18
REMARK    5  A    between atoms: C_18  and  C_19
REMARK    6  A    between atoms: C_19  and  C_20
REMARK                            x       y       z     vdW  Elec       q    Type
REMARK                         _______ _______ _______ _____ _____    ______ ____
ROOT
ATOM      1  N   UNL     1       5.348   5.727  17.992  0.00  0.00    +0.000 N 
ATOM      2  C   UNL     1       6.142   5.676  19.225  0.00  0.00    +0.000 C 
ATOM      3  C   UNL     1       7.638   5.573  18.825  0.00  0.00    +0.000 C 
ATOM      4  N   UNL     1       8.155   6.712  18.033  0.00  0.00    +0.000 NA
ATOM      5  C   UNL     1       7.234   6.957  16.898  0.00  0.00    +0.000 C 
ATOM      6  C   UNL     1       5.703   6.919  17.185  0.00  0.00    +0.000 C 
ENDROOT
BRANCH   1  12
ATOM      7  C   UNL     1       2.825   5.502  18.083  0.00  0.00    +0.000 A 
ATOM      8  C   UNL     1       1.744   4.591  17.954  0.00  0.00    +0.000 A 
ATOM      9  C   UNL     1       1.901   3.282  17.503  0.00  0.00    +0.000 A 
ATOM     10  C   UNL     1       3.164   2.821  17.203  0.00  0.00    +0.000 A 
ATOM     11  C   UNL     1       4.263   3.666  17.364  0.00  0.00    +0.000 A 
ATOM     12  C   UNL     1       4.159   5.013  17.809  0.00  0.00    +0.000 A 
BRANCH   7  19
ATOM     13  C   UNL     1       2.055   6.333  21.012  0.00  0.00    +0.000 C 
ATOM     14  C   UNL     1       1.973   7.239  19.810  0.00  0.00    +0.000 A 
ATOM     15  C   UNL     1       1.407   8.515  20.028  0.00  0.00    +0.000 A 
ATOM     16  C   UNL     1       1.352   9.462  19.016  0.00  0.00    +0.000 A 
ATOM     17  C   UNL     1       1.990   9.198  17.814  0.00  0.00    +0.000 A 
ATOM     18  C   UNL     1       2.602   7.954  17.605  0.00  0.00    +0.000 A 
ATOM     19  C   UNL     1       2.486   6.900  18.525  0.00  0.00    +0.000 A 
ENDBRANCH   7  19
ENDBRANCH   1  12
BRANCH   4  20
ATOM     20  C   UNL     1       8.420   7.896  18.854  0.00  0.00    +0.000 C 
BRANCH  20  21
ATOM     21  C   UNL     1       8.267   9.176  18.010  0.00  0.00    +0.000 C 
BRANCH  21  22
ATOM     22  C   UNL     1       9.134  10.305  18.495  0.00  0.00    +0.000 A 
ATOM     23  C   UNL     1      10.069  10.885  17.636  0.00  0.00    +0.000 A 
ATOM     24  C   UNL     1      10.902  11.909  18.095  0.00  0.00    +0.000 A 
ATOM     25  C   UNL     1      10.785  12.366  19.412  0.00  0.00    +0.000 A 
ATOM     26 CL   UNL     1      11.840  13.642  19.915  0.00  0.00    +0.000 Cl
ATOM     27  C   UNL     1       9.849  11.788  20.278  0.00  0.00    +0.000 A 
ATOM     28 CL   UNL     1       9.659  12.287  21.920  0.00  0.00    +0.000 Cl
ATOM     29  C   UNL     1       9.026  10.759  19.817  0.00  0.00    +0.000 A 
ENDBRANCH  21  22
ENDBRANCH  20  21
ENDBRANCH   4  20
TORSDOF 5
ENDMDL
MODEL 3
REMARK VINA RESULT:      -8.5      5.218      8.201
REMARK  Name = 
REMARK  6 active torsions:
REMARK  status: ('A' for Active; 'I' for Inactive)
REMARK    1  A    between atoms: C_1  and  C_2
REMARK    2  A    between atoms: C_7  and  C_8
REMARK    3  A    between atoms: C_13  and  N_14
REMARK    4  A    between atoms: N_17  and  C_18
REMARK    5  A    between atoms: C_18  and  C_19
REMARK    6  A    between atoms: C_19  and  C_20
REMARK                            x       y       z     vdW  Elec       q    Type
REMARK                         _______ _______ _______ _____ _____    ______ ____
ROOT
ATOM      1  N   UNL     1       2.349   6.068  19.503  0.00  0.00    +0.000 N 
ATOM      2  C   UNL     1       1.432   7.006  20.158  0.00  0.00    +0.000 C 
ATOM      3  C   UNL     1       2.028   8.432  20.018  0.00  0.00    +0.000 C 
ATOM      4  N   UNL     1       2.198   8.906  18.626  0.00  0.00    +0.000 NA
ATOM      5  C   UNL     1       2.917   7.865  17.855  0.00  0.00    +0.000 C 
ATOM      6  C   UNL     1       2.484   6.383  18.060  0.00  0.00    +0.000 C 
ENDROOT
BRANCH   1  12
ATOM      7  C   UNL     1       3.890   4.067  19.718  0.00  0.00    +0.000 A 
ATOM      8  C   UNL     1       4.023   2.770  20.279  0.00  0.00    +0.000 A 
ATOM      9  C   UNL     1       3.110   2.235  21.186  0.00  0.00    +0.000 A 
ATOM     10  C   UNL     1       1.998   2.971  21.533  0.00  0.00    +0.000 A 
ATOM     11  C   UNL     1       1.800   4.231  20.966  0.00  0.00    +0.000 A 
ATOM     12  C   UNL     1       2.704   4.829  20.046  0.00  0.00    +0.000 A 
BRANCH   7  19
ATOM     13  C   UNL     1       4.005   3.533  16.625  0.00  0.00    +0.000 C 
ATOM     14  C   UNL     1       5.123   4.135  17.437  0.00  0.00    +0.000 A 
ATOM     15  C   UNL     1       6.336   4.369  16.752  0.00  0.00    +0.000 A 
ATOM     16  C   UNL     1       7.409   4.991  17.374  0.00  0.00    +0.000 A 
ATOM     17  C   UNL     1       7.234   5.515  18.645  0.00  0.00    +0.000 A 
ATOM     18  C   UNL     1       6.017   5.336  19.316  0.00  0.00    +0.000 A 
ATOM     19  C   UNL     1       4.992   4.526  18.800  0.00  0.00    +0.000 A 
ENDBRANCH   7  19
ENDBRANCH   1  12
BRANCH   4  20
ATOM     20  C   UNL     1       0.937   9.336  18.018  0.00  0.00    +0.000 C 
BRANCH  20  21
ATOM     21  C   UNL     1       0.093  10.123  19.039  0.00  0.00    +0.000 C 
BRANCH  21  22
ATOM     22  C   UNL     1      -1.224  10.585  18.479  0.00  0.00    +0.000 A 
ATOM     23  C   UNL     1      -2.018  11.475  19.205  0.00  0.00    +0.000 A 
ATOM     24  C   UNL     1      -3.259  11.877  18.704  0.00  0.00    +0.000 A 
ATOM     25  C   UNL     1      -3.699  11.401  17.464  0.00  0.00    +0.000 A 
ATOM     26 CL   UNL     1      -5.241  11.943  16.897  0.00  0.00    +0.000 Cl
ATOM     27  C   UNL     1      -2.907  10.508  16.732  0.00  0.00    +0.000 A 
ATOM     28 CL   UNL     1      -3.391   9.863  15.204  0.00  0.00    +0.000 Cl
ATOM     29  C   UNL     1      -1.672  10.102  17.241  0.00  0.00    +0.000 A 
ENDBRANCH  21  22
ENDBRANCH  20  21
ENDBRANCH   4  20
TORSDOF 5
ENDMDL
MODEL 4
REMARK VINA RESULT:      -8.4      4.735      7.945
REMARK  Name = 
REMARK  6 active torsions:
REMARK  status: ('A' for Active; 'I' for Inactive)
REMARK    1  A    between atoms: C_1  and  C_2
REMARK    2  A    between atoms: C_7  and  C_8
REMARK    3  A    between atoms: C_13  and  N_14
REMARK    4  A    between atoms: N_17  and  C_18
REMARK    5  A    between atoms: C_18  and  C_19
REMARK    6  A    between atoms: C_19  and  C_20
REMARK                            x       y       z     vdW  Elec       q    Type
REMARK                         _______ _______ _______ _____ _____    ______ ____
ROOT
ATOM      1  N   UNL     1       2.288   5.870  18.836  0.00  0.00    +0.000 N 
ATOM      2  C   UNL     1       1.618   6.106  20.121  0.00  0.00    +0.000 C 
ATOM      3  C   UNL     1       2.160   7.438  20.704  0.00  0.00    +0.000 C 
ATOM      4  N   UNL     1       1.912   8.635  19.869  0.00  0.00    +0.000 NA
ATOM      5  C   UNL     1       2.357   8.348  18.485  0.00  0.00    +0.000 C 
ATOM      6  C   UNL     1       1.989   6.962  17.878  0.00  0.00    +0.000 C 
ENDROOT
BRANCH   1  12
ATOM      7  C   UNL     1       4.150   4.314  18.108  0.00  0.00    +0.000 A 
ATOM      8  C   UNL     1       4.438   3.019  17.603  0.00  0.00    +0.000 A 
ATOM      9  C   UNL     1       3.478   2.015  17.490  0.00  0.00    +0.000 A 
ATOM     10  C   UNL     1       2.174   2.288  17.839  0.00  0.00    +0.000 A 
ATOM     11  C   UNL     1       1.836   3.565  18.291  0.00  0.00    +0.000 A 
ATOM     12  C   UNL     1       2.775   4.622  18.438  0.00  0.00    +0.000 A 
BRANCH   7  19
ATOM     13  C   UNL     1       4.894   6.522  16.002  0.00  0.00    +0.000 C 
ATOM     14  C   UNL     1       5.739   6.148  17.192  0.00  0.00    +0.000 A 
ATOM     15  C   UNL     1       6.999   6.778  17.286  0.00  0.00    +0.000 A 
ATOM     16  C   UNL     1       7.830   6.574  18.377  0.00  0.00    +0.000 A 
ATOM     17  C   UNL     1       7.352   5.849  19.457  0.00  0.00    +0.000 A 
ATOM     18  C   UNL     1       6.080   5.262  19.399  0.00  0.00    +0.000 A 
ATOM     19  C   UNL     1       5.308   5.269  18.226  0.00  0.00    +0.000 A 
ENDBRANCH   7  19
ENDBRANCH   1  12
BRANCH   4  20
ATOM     20  C   UNL     1       0.532   9.115  19.966  0.00  0.00    +0.000 C 
BRANCH  20  21
ATOM     21  C   UNL     1       0.418  10.536  19.381  0.00  0.00    +0.000 C 
BRANCH  21  22
ATOM     22  C   UNL     1      -0.923  10.807  18.757  0.00  0.00    +0.000 A 
ATOM     23  C   UNL     1      -1.829  11.659  19.393  0.00  0.00    +0.000 A 
ATOM     24  C   UNL     1      -3.090  11.884  18.835  0.00  0.00    +0.000 A 
ATOM     25  C   UNL     1      -3.439  11.269  17.627  0.00  0.00    +0.000 A 
ATOM     26 CL   UNL     1      -5.012  11.595  16.986  0.00  0.00    +0.000 Cl
ATOM     27  C   UNL     1      -2.535  10.414  16.986  0.00  0.00    +0.000 A 
ATOM     28 CL   UNL     1      -2.901   9.606  15.504  0.00  0.00    +0.000 Cl
ATOM     29  C   UNL     1      -1.280  10.185  17.552  0.00  0.00    +0.000 A 
ENDBRANCH  21  22
ENDBRANCH  20  21
ENDBRANCH   4  20
TORSDOF 5
ENDMDL
MODEL 5
REMARK VINA RESULT:      -8.3      4.686      8.085
REMARK  Name = 
REMARK  6 active torsions:
REMARK  status: ('A' for Active; 'I' for Inactive)
REMARK    1  A    between atoms: C_1  and  C_2
REMARK    2  A    between atoms: C_7  and  C_8
REMARK    3  A    between atoms: C_13  and  N_14
REMARK    4  A    between atoms: N_17  and  C_18
REMARK    5  A    between atoms: C_18  and  C_19
REMARK    6  A    between atoms: C_19  and  C_20
REMARK                            x       y       z     vdW  Elec       q    Type
REMARK                         _______ _______ _______ _____ _____    ______ ____
ROOT
ATOM      1  N   UNL     1       2.278   5.949  18.724  0.00  0.00    +0.000 N 
ATOM      2  C   UNL     1       1.534   6.270  19.948  0.00  0.00    +0.000 C 
ATOM      3  C   UNL     1       2.088   7.609  20.504  0.00  0.00    +0.000 C 
ATOM      4  N   UNL     1       1.943   8.772  19.600  0.00  0.00    +0.000 NA
ATOM      5  C   UNL     1       2.466   8.403  18.264  0.00  0.00    +0.000 C 
ATOM      6  C   UNL     1       2.085   7.002  17.698  0.00  0.00    +0.000 C 
ENDROOT
BRANCH   1  12
ATOM      7  C   UNL     1       4.115   4.303  18.144  0.00  0.00    +0.000 A 
ATOM      8  C   UNL     1       4.381   2.972  17.729  0.00  0.00    +0.000 A 
ATOM      9  C   UNL     1       3.398   1.987  17.654  0.00  0.00    +0.000 A 
ATOM     10  C   UNL     1       2.094   2.315  17.952  0.00  0.00    +0.000 A 
ATOM     11  C   UNL     1       1.778   3.625  18.314  0.00  0.00    +0.000 A 
ATOM     12  C   UNL     1       2.741   4.666  18.418  0.00  0.00    +0.000 A 
BRANCH   7  19
ATOM     13  C   UNL     1       4.968   6.354  15.923  0.00  0.00    +0.000 C 
ATOM     14  C   UNL     1       5.773   6.036  17.156  0.00  0.00    +0.000 A 
ATOM     15  C   UNL     1       7.048   6.639  17.241  0.00  0.00    +0.000 A 
ATOM     16  C   UNL     1       7.846   6.484  18.365  0.00  0.00    +0.000 A 
ATOM     17  C   UNL     1       7.323   5.842  19.476  0.00  0.00    +0.000 A 
ATOM     18  C   UNL     1       6.038   5.284  19.422  0.00  0.00    +0.000 A 
ATOM     19  C   UNL     1       5.294   5.235  18.232  0.00  0.00    +0.000 A 
ENDBRANCH   7  19
ENDBRANCH   1  12
BRANCH   4  20
ATOM     20  C   UNL     1       0.578   9.305  19.581  0.00  0.00    +0.000 C 
BRANCH  20  21
ATOM     21  C   UNL     1       0.285   9.974  18.224  0.00  0.00    +0.000 C 
BRANCH  21  22
ATOM     22  C   UNL     1      -1.154  10.382  18.070  0.00  0.00    +0.000 A 
ATOM     23  C   UNL     1      -1.903   9.904  16.993  0.00  0.00    +0.000 A 
ATOM     24  C   UNL     1      -3.229  10.310  16.826  0.00  0.00    +0.000 A 
ATOM     25  C   UNL     1      -3.814  11.182  17.751  0.00  0.00    +0.000 A 
ATOM     26 CL   UNL     1      -5.462  11.640  17.492  0.00  0.00    +0.000 Cl
ATOM     27  C   UNL     1      -3.067  11.664  18.833  0.00  0.00    +0.000 A 
ATOM     28 CL   UNL     1      -3.714  12.757  20.004  0.00  0.00    +0.000 Cl
ATOM     29  C   UNL     1      -1.740  11.263  18.990  0.00  0.00    +0.000 A 
ENDBRANCH  21  22
ENDBRANCH  20  21
ENDBRANCH   4  20
TORSDOF 5
ENDMDL
MODEL 6
REMARK VINA RESULT:      -8.3      5.138      8.234
REMARK  Name = 
REMARK  6 active torsions:
REMARK  status: ('A' for Active; 'I' for Inactive)
REMARK    1  A    between atoms: C_1  and  C_2
REMARK    2  A    between atoms: C_7  and  C_8
REMARK    3  A    between atoms: C_13  and  N_14
REMARK    4  A    between atoms: N_17  and  C_18
REMARK    5  A    between atoms: C_18  and  C_19
REMARK    6  A    between atoms: C_19  and  C_20
REMARK                            x       y       z     vdW  Elec       q    Type
REMARK                         _______ _______ _______ _____ _____    ______ ____
ROOT
ATOM      1  N   UNL     1       2.357   6.022  19.493  0.00  0.00    +0.000 N 
ATOM      2  C   UNL     1       1.445   6.960  20.156  0.00  0.00    +0.000 C 
ATOM      3  C   UNL     1       2.035   8.388  20.002  0.00  0.00    +0.000 C 
ATOM      4  N   UNL     1       2.186   8.857  18.606  0.00  0.00    +0.000 NA
ATOM      5  C   UNL     1       2.898   7.814  17.830  0.00  0.00    +0.000 C 
ATOM      6  C   UNL     1       2.472   6.332  18.047  0.00  0.00    +0.000 C 
ENDROOT
BRANCH   1  12
ATOM      7  C   UNL     1       3.922   4.042  19.719  0.00  0.00    +0.000 A 
ATOM      8  C   UNL     1       4.066   2.745  20.277  0.00  0.00    +0.000 A 
ATOM      9  C   UNL     1       3.152   2.196  21.174  0.00  0.00    +0.000 A 
ATOM     10  C   UNL     1       2.027   2.916  21.512  0.00  0.00    +0.000 A 
ATOM     11  C   UNL     1       1.818   4.174  20.946  0.00  0.00    +0.000 A 
ATOM     12  C   UNL     1       2.723   4.787  20.036  0.00  0.00    +0.000 A 
BRANCH   7  19
ATOM     13  C   UNL     1       4.072   3.521  16.625  0.00  0.00    +0.000 C 
ATOM     14  C   UNL     1       5.175   4.133  17.449  0.00  0.00    +0.000 A 
ATOM     15  C   UNL     1       6.391   4.384  16.776  0.00  0.00    +0.000 A 
ATOM     16  C   UNL     1       7.451   5.016  17.410  0.00  0.00    +0.000 A 
ATOM     17  C   UNL     1       7.258   5.533  18.682  0.00  0.00    +0.000 A 
ATOM     18  C   UNL     1       6.037   5.337  19.341  0.00  0.00    +0.000 A 
ATOM     19  C   UNL     1       5.027   4.517  18.812  0.00  0.00    +0.000 A 
ENDBRANCH   7  19
ENDBRANCH   1  12
BRANCH   4  20
ATOM     20  C   UNL     1       0.916   9.280  18.013  0.00  0.00    +0.000 C 
BRANCH  20  21
ATOM     21  C   UNL     1       0.288  10.413  18.847  0.00  0.00    +0.000 C 
BRANCH  21  22
ATOM     22  C   UNL     1      -1.157  10.657  18.510  0.00  0.00    +0.000 A 
ATOM     23  C   UNL     1      -1.729  10.034  17.399  0.00  0.00    +0.000 A 
ATOM     24  C   UNL     1      -3.062  10.288  17.061  0.00  0.00    +0.000 A 
ATOM     25  C   UNL     1      -3.829  11.154  17.850  0.00  0.00    +0.000 A 
ATOM     26 CL   UNL     1      -5.473  11.419  17.382  0.00  0.00    +0.000 Cl
ATOM     27  C   UNL     1      -3.260  11.780  18.965  0.00  0.00    +0.000 A 
ATOM     28 CL   UNL     1      -4.138  12.874  19.973  0.00  0.00    +0.000 Cl
ATOM     29  C   UNL     1      -1.926  11.531  19.292  0.00  0.00    +0.000 A 
ENDBRANCH  21  22
ENDBRANCH  20  21
ENDBRANCH   4  20
TORSDOF 5
ENDMDL
MODEL 7
REMARK VINA RESULT:      -8.2      5.235      8.071
REMARK  Name = 
REMARK  6 active torsions:
REMARK  status: ('A' for Active; 'I' for Inactive)
REMARK    1  A    between atoms: C_1  and  C_2
REMARK    2  A    between atoms: C_7  and  C_8
REMARK    3  A    between atoms: C_13  and  N_14
REMARK    4  A    between atoms: N_17  and  C_18
REMARK    5  A    between atoms: C_18  and  C_19
REMARK    6  A    between atoms: C_19  and  C_20
REMARK                            x       y       z     vdW  Elec       q    Type
REMARK                         _______ _______ _______ _____ _____    ______ ____
ROOT
ATOM      1  N   UNL     1       2.559   5.966  19.309  0.00  0.00    +0.000 N 
ATOM      2  C   UNL     1       1.608   6.835  20.012  0.00  0.00    +0.000 C 
ATOM      3  C   UNL     1       2.133   8.292  19.917  0.00  0.00    +0.000 C 
ATOM      4  N   UNL     1       2.260   8.825  18.542  0.00  0.00    +0.000 NA
ATOM      5  C   UNL     1       3.015   7.848  17.722  0.00  0.00    +0.000 C 
ATOM      6  C   UNL     1       2.656   6.341  17.877  0.00  0.00    +0.000 C 
ENDROOT
BRANCH   1  12
ATOM      7  C   UNL     1       4.029   3.903  19.237  0.00  0.00    +0.000 A 
ATOM      8  C   UNL     1       4.235   2.615  19.798  0.00  0.00    +0.000 A 
ATOM      9  C   UNL     1       3.535   2.147  20.908  0.00  0.00    +0.000 A 
ATOM     10  C   UNL     1       2.562   2.941  21.474  0.00  0.00    +0.000 A 
ATOM     11  C   UNL     1       2.289   4.194  20.923  0.00  0.00    +0.000 A 
ATOM     12  C   UNL     1       2.980   4.726  19.800  0.00  0.00    +0.000 A 
BRANCH   7  19
ATOM     13  C   UNL     1       6.711   5.523  19.458  0.00  0.00    +0.000 C 
ATOM     14  C   UNL     1       6.025   5.164  18.165  0.00  0.00    +0.000 A 
ATOM     15  C   UNL     1       6.596   5.696  16.987  0.00  0.00    +0.000 A 
ATOM     16  C   UNL     1       6.100   5.370  15.733  0.00  0.00    +0.000 A 
ATOM     17  C   UNL     1       5.119   4.397  15.632  0.00  0.00    +0.000 A 
ATOM     18  C   UNL     1       4.581   3.822  16.792  0.00  0.00    +0.000 A 
ATOM     19  C   UNL     1       4.907   4.287  18.076  0.00  0.00    +0.000 A 
ENDBRANCH   7  19
ENDBRANCH   1  12
BRANCH   4  20
ATOM     20  C   UNL     1       0.970   9.216  17.968  0.00  0.00    +0.000 C 
BRANCH  20  21
ATOM     21  C   UNL     1       0.149  10.017  18.996  0.00  0.00    +0.000 C 
BRANCH  21  22
ATOM     22  C   UNL     1      -1.162  10.506  18.446  0.00  0.00    +0.000 A 
ATOM     23  C   UNL     1      -1.940  11.400  19.186  0.00  0.00    +0.000 A 
ATOM     24  C   UNL     1      -3.176  11.827  18.693  0.00  0.00    +0.000 A 
ATOM     25  C   UNL     1      -3.627  11.373  17.449  0.00  0.00    +0.000 A 
ATOM     26 CL   UNL     1      -5.162  11.946  16.893  0.00  0.00    +0.000 Cl
ATOM     27  C   UNL     1      -2.851  10.478  16.703  0.00  0.00    +0.000 A 
ATOM     28 CL   UNL     1      -3.349   9.861  15.168  0.00  0.00    +0.000 Cl
ATOM     29  C   UNL     1      -1.621  10.047  17.203  0.00  0.00    +0.000 A 
ENDBRANCH  21  22
ENDBRANCH  20  21
ENDBRANCH   4  20
TORSDOF 5
ENDMDL
MODEL 8
REMARK VINA RESULT:      -8.0      5.163      8.094
REMARK  Name = 
REMARK  6 active torsions:
REMARK  status: ('A' for Active; 'I' for Inactive)
REMARK    1  A    between atoms: C_1  and  C_2
REMARK    2  A    between atoms: C_7  and  C_8
REMARK    3  A    between atoms: C_13  and  N_14
REMARK    4  A    between atoms: N_17  and  C_18
REMARK    5  A    between atoms: C_18  and  C_19
REMARK    6  A    between atoms: C_19  and  C_20
REMARK                            x       y       z     vdW  Elec       q    Type
REMARK                         _______ _______ _______ _____ _____    ______ ____
ROOT
ATOM      1  N   UNL     1       2.555   5.970  19.318  0.00  0.00    +0.000 N 
ATOM      2  C   UNL     1       1.642   6.866  20.037  0.00  0.00    +0.000 C 
ATOM      3  C   UNL     1       2.188   8.312  19.899  0.00  0.00    +0.000 C 
ATOM      4  N   UNL     1       2.277   8.820  18.511  0.00  0.00    +0.000 NA
ATOM      5  C   UNL     1       2.989   7.817  17.685  0.00  0.00    +0.000 C 
ATOM      6  C   UNL     1       2.611   6.318  17.878  0.00  0.00    +0.000 C 
ENDROOT
BRANCH   1  12
ATOM      7  C   UNL     1       4.017   3.901  19.258  0.00  0.00    +0.000 A 
ATOM      8  C   UNL     1       4.220   2.616  19.827  0.00  0.00    +0.000 A 
ATOM      9  C   UNL     1       3.519   2.158  20.941  0.00  0.00    +0.000 A 
ATOM     10  C   UNL     1       2.550   2.959  21.503  0.00  0.00    +0.000 A 
ATOM     11  C   UNL     1       2.281   4.209  20.944  0.00  0.00    +0.000 A 
ATOM     12  C   UNL     1       2.973   4.732  19.817  0.00  0.00    +0.000 A 
BRANCH   7  19
ATOM     13  C   UNL     1       6.703   5.517  19.464  0.00  0.00    +0.000 C 
ATOM     14  C   UNL     1       6.016   5.149  18.174  0.00  0.00    +0.000 A 
ATOM     15  C   UNL     1       6.587   5.670  16.992  0.00  0.00    +0.000 A 
ATOM     16  C   UNL     1       6.089   5.336  15.741  0.00  0.00    +0.000 A 
ATOM     17  C   UNL     1       5.106   4.364  15.649  0.00  0.00    +0.000 A 
ATOM     18  C   UNL     1       4.567   3.799  16.813  0.00  0.00    +0.000 A 
ATOM     19  C   UNL     1       4.896   4.273  18.094  0.00  0.00    +0.000 A 
ENDBRANCH   7  19
ENDBRANCH   1  12
BRANCH   4  20
ATOM     20  C   UNL     1       0.976   9.222  17.973  0.00  0.00    +0.000 C 
BRANCH  20  21
ATOM     21  C   UNL     1       0.229  10.109  18.988  0.00  0.00    +0.000 C 
BRANCH  21  22
ATOM     22  C   UNL     1      -1.144  10.506  18.521  0.00  0.00    +0.000 A 
ATOM     23  C   UNL     1      -1.629  10.032  17.300  0.00  0.00    +0.000 A 
ATOM     24  C   UNL     1      -2.890  10.429  16.846  0.00  0.00    +0.000 A 
ATOM     25  C   UNL     1      -3.675  11.287  17.625  0.00  0.00    +0.000 A 
ATOM     26 CL   UNL     1      -5.228  11.734  17.009  0.00  0.00    +0.000 Cl
ATOM     27  C   UNL     1      -3.193  11.764  18.850  0.00  0.00    +0.000 A 
ATOM     28 CL   UNL     1      -4.095  12.839  19.856  0.00  0.00    +0.000 Cl
ATOM     29  C   UNL     1      -1.929  11.372  19.295  0.00  0.00    +0.000 A 
ENDBRANCH  21  22
ENDBRANCH  20  21
ENDBRANCH   4  20
TORSDOF 5
ENDMDL
MODEL 9
REMARK VINA RESULT:      -7.8      5.441      8.379
REMARK  Name = 
REMARK  6 active torsions:
REMARK  status: ('A' for Active; 'I' for Inactive)
REMARK    1  A    between atoms: C_1  and  C_2
REMARK    2  A    between atoms: C_7  and  C_8
REMARK    3  A    between atoms: C_13  and  N_14
REMARK    4  A    between atoms: N_17  and  C_18
REMARK    5  A    between atoms: C_18  and  C_19
REMARK    6  A    between atoms: C_19  and  C_20
REMARK                            x       y       z     vdW  Elec       q    Type
REMARK                         _______ _______ _______ _____ _____    ______ ____
ROOT
ATOM      1  N   UNL     1       2.692   7.381  18.607  0.00  0.00    +0.000 N 
ATOM      2  C   UNL     1       1.881   7.020  19.776  0.00  0.00    +0.000 C 
ATOM      3  C   UNL     1       1.764   8.274  20.681  0.00  0.00    +0.000 C 
ATOM      4  N   UNL     1       1.107   9.442  20.053  0.00  0.00    +0.000 NA
ATOM      5  C   UNL     1       1.743   9.694  18.738  0.00  0.00    +0.000 C 
ATOM      6  C   UNL     1       2.042   8.465  17.830  0.00  0.00    +0.000 C 
ENDROOT
BRANCH   1  12
ATOM      7  C   UNL     1       3.858   5.147  18.345  0.00  0.00    +0.000 A 
ATOM      8  C   UNL     1       5.004   4.500  17.813  0.00  0.00    +0.000 A 
ATOM      9  C   UNL     1       5.922   5.140  16.982  0.00  0.00    +0.000 A 
ATOM     10  C   UNL     1       5.747   6.475  16.688  0.00  0.00    +0.000 A 
ATOM     11  C   UNL     1       4.662   7.163  17.232  0.00  0.00    +0.000 A 
ATOM     12  C   UNL     1       3.690   6.558  18.075  0.00  0.00    +0.000 A 
BRANCH   7  19
ATOM     13  C   UNL     1       1.101   3.999  17.372  0.00  0.00    +0.000 C 
ATOM     14  C   UNL     1       1.609   3.933  18.789  0.00  0.00    +0.000 A 
ATOM     15  C   UNL     1       0.717   3.405  19.748  0.00  0.00    +0.000 A 
ATOM     16  C   UNL     1       1.101   3.221  21.069  0.00  0.00    +0.000 A 
ATOM     17  C   UNL     1       2.426   3.429  21.416  0.00  0.00    +0.000 A 
ATOM     18  C   UNL     1       3.335   3.903  20.460  0.00  0.00    +0.000 A 
ATOM     19  C   UNL     1       2.928   4.304  19.177  0.00  0.00    +0.000 A 
ENDBRANCH   7  19
ENDBRANCH   1  12
BRANCH   4  20
ATOM     20  C   UNL     1      -0.350   9.306  19.994  0.00  0.00    +0.000 C 
BRANCH  20  21
ATOM     21  C   UNL     1      -0.997  10.646  19.596  0.00  0.00    +0.000 C 
BRANCH  21  22
ATOM     22  C   UNL     1      -1.827  10.548  18.345  0.00  0.00    +0.000 A 
ATOM     23  C   UNL     1      -1.400   9.744  17.287  0.00  0.00    +0.000 A 
ATOM     24  C   UNL     1      -2.150   9.679  16.109  0.00  0.00    +0.000 A 
ATOM     25  C   UNL     1      -3.339  10.408  15.998  0.00  0.00    +0.000 A 
ATOM     26 CL   UNL     1      -4.224  10.278  14.517  0.00  0.00    +0.000 Cl
ATOM     27  C   UNL     1      -3.771  11.216  17.057  0.00  0.00    +0.000 A 
ATOM     28 CL   UNL     1      -5.218  12.157  16.986  0.00  0.00    +0.000 Cl
ATOM     29  C   UNL     1      -3.014  11.284  18.227  0.00  0.00    +0.000 A 
ENDBRANCH  21  22
ENDBRANCH  20  21
ENDBRANCH   4  20
TORSDOF 5
ENDMDL
