MODEL 1
REMARK VINA RESULT:      -9.4      0.000      0.000
REMARK  Name = 
REMARK  2 active torsions:
REMARK  status: ('A' for Active; 'I' for Inactive)
REMARK    1  A    between atoms: N_3  and  C_4
REMARK    2  A    between atoms: C_23  and  C_24
REMARK                            x       y       z     vdW  Elec       q    Type
REMARK                         _______ _______ _______ _____ _____    ______ ____
ROOT
ATOM      1  C   UNL     1       2.617   6.146  19.496  0.00  0.00    +0.000 A 
ATOM      2  N   UNL     1       3.567   6.521  18.615  0.00  0.00    +0.000 NA
ATOM      3  C   UNL     1       3.910   5.713  17.589  0.00  0.00    +0.000 A 
ATOM      4  N   UNL     1       4.906   6.126  16.721  0.00  0.00    +0.000 N 
ATOM      5  C   UNL     1       5.241   5.312  15.567  0.00  0.00    +0.000 C 
ATOM      6  C   UNL     1       6.615   4.644  15.671  0.00  0.00    +0.000 C 
ATOM      7  C   UNL     1       6.941   4.011  17.025  0.00  0.00    +0.000 C 
ATOM      8  C   UNL     1       7.820   4.862  17.949  0.00  0.00    +0.000 C 
ATOM      9  C   UNL     1       7.238   6.174  18.486  0.00  0.00    +0.000 C 
ATOM     10  C   UNL     1       7.012   7.255  17.427  0.00  0.00    +0.000 C 
ATOM     11  C   UNL     1       5.570   7.402  16.931  0.00  0.00    +0.000 C 
ATOM     12  N   UNL     1       3.342   4.512  17.402  0.00  0.00    +0.000 NA
ATOM     13  C   UNL     1       2.428   4.147  18.303  0.00  0.00    +0.000 A 
ATOM     14  C   UNL     1       2.028   4.919  19.366  0.00  0.00    +0.000 A 
ATOM     15  C   UNL     1       0.978   4.239  20.172  0.00  0.00    +0.000 C 
ATOM     16  C   UNL     1       1.112   2.787  19.685  0.00  0.00    +0.000 C 
ATOM     17  C   UNL     1       1.680   2.848  18.260  0.00  0.00    +0.000 C 
ENDROOT
BRANCH   1  20
ATOM     18  C   UNL     1       1.265   8.922  19.513  0.00  0.00    +0.000 A 
ATOM     19  C   UNL     1       1.563   8.101  20.624  0.00  0.00    +0.000 A 
ATOM     20  N   UNL     1       2.281   6.960  20.595  0.00  0.00    +0.000 N 
ATOM     21  N   UNL     1       1.071   8.620  21.755  0.00  0.00    +0.000 NA
ATOM     22  N   UNL     1       0.451   9.747  21.356  0.00  0.00    +0.000 N 
ATOM     23  C   UNL     1       0.524   9.962  20.013  0.00  0.00    +0.000 A 
ATOM     24  H   UNL     1       2.285   6.452  21.469  0.00  0.00    +0.000 HD
ATOM     25  H   UNL     1      -0.009  10.316  22.057  0.00  0.00    +0.000 HD
BRANCH  23  26
ATOM     26  C   UNL     1      -0.102  11.111  19.253  0.00  0.00    +0.000 C 
ATOM     27  C   UNL     1      -1.143  10.815  18.193  0.00  0.00    +0.000 C 
ATOM     28  C   UNL     1      -1.572  11.402  19.494  0.00  0.00    +0.000 C 
ENDBRANCH  23  26
ENDBRANCH   1  20
TORSDOF 2
ENDMDL
MODEL 2
REMARK VINA RESULT:      -8.4      2.791      7.438
REMARK  Name = 
REMARK  2 active torsions:
REMARK  status: ('A' for Active; 'I' for Inactive)
REMARK    1  A    between atoms: N_3  and  C_4
REMARK    2  A    between atoms: C_23  and  C_24
REMARK                            x       y       z     vdW  Elec       q    Type
REMARK                         _______ _______ _______ _____ _____    ______ ____
ROOT
ATOM      1  C   UNL     1       4.541   5.465  17.144  0.00  0.00    +0.000 A 
ATOM      2  N   UNL     1       4.000   4.270  17.457  0.00  0.00    +0.000 NA
ATOM      3  C   UNL     1       2.735   4.188  17.923  0.00  0.00    +0.000 A 
ATOM      4  N   UNL     1       2.227   2.945  18.254  0.00  0.00    +0.000 N 
ATOM      5  C   UNL     1       0.845   2.821  18.684  0.00  0.00    +0.000 C 
ATOM      6  C   UNL     1       0.699   2.469  20.168  0.00  0.00    +0.000 C 
ATOM      7  C   UNL     1       1.607   3.247  21.123  0.00  0.00    +0.000 C 
ATOM      8  C   UNL     1       2.873   2.505  21.568  0.00  0.00    +0.000 C 
ATOM      9  C   UNL     1       3.934   2.194  20.507  0.00  0.00    +0.000 C 
ATOM     10  C   UNL     1       3.505   1.172  19.452  0.00  0.00    +0.000 C 
ATOM     11  C   UNL     1       3.055   1.759  18.110  0.00  0.00    +0.000 C 
ATOM     12  N   UNL     1       1.968   5.274  18.106  0.00  0.00    +0.000 NA
ATOM     13  C   UNL     1       2.533   6.448  17.820  0.00  0.00    +0.000 A 
ATOM     14  C   UNL     1       3.810   6.604  17.340  0.00  0.00    +0.000 A 
ATOM     15  C   UNL     1       4.135   8.037  17.101  0.00  0.00    +0.000 C 
ATOM     16  C   UNL     1       3.026   8.738  17.902  0.00  0.00    +0.000 C 
ATOM     17  C   UNL     1       1.836   7.770  17.954  0.00  0.00    +0.000 C 
ENDROOT
BRANCH   1  20
ATOM     18  C   UNL     1       5.786   4.465  14.502  0.00  0.00    +0.000 A 
ATOM     19  C   UNL     1       6.396   5.268  15.493  0.00  0.00    +0.000 A 
ATOM     20  N   UNL     1       5.873   5.567  16.699  0.00  0.00    +0.000 N 
ATOM     21  N   UNL     1       7.608   5.677  15.105  0.00  0.00    +0.000 NA
ATOM     22  N   UNL     1       7.752   5.155  13.872  0.00  0.00    +0.000 N 
ATOM     23  C   UNL     1       6.675   4.433  13.457  0.00  0.00    +0.000 A 
ATOM     24  H   UNL     1       6.404   6.251  17.221  0.00  0.00    +0.000 HD
ATOM     25  H   UNL     1       8.612   5.342  13.368  0.00  0.00    +0.000 HD
BRANCH  23  26
ATOM     26  C   UNL     1       6.511   3.757  12.113  0.00  0.00    +0.000 C 
ATOM     27  C   UNL     1       6.079   2.306  12.065  0.00  0.00    +0.000 C 
ATOM     28  C   UNL     1       5.109   3.372  11.681  0.00  0.00    +0.000 C 
ENDBRANCH  23  26
ENDBRANCH   1  20
TORSDOF 2
ENDMDL
MODEL 3
REMARK VINA RESULT:      -8.4      1.976      4.688
REMARK  Name = 
REMARK  2 active torsions:
REMARK  status: ('A' for Active; 'I' for Inactive)
REMARK    1  A    between atoms: N_3  and  C_4
REMARK    2  A    between atoms: C_23  and  C_24
REMARK                            x       y       z     vdW  Elec       q    Type
REMARK                         _______ _______ _______ _____ _____    ______ ____
ROOT
ATOM      1  C   UNL     1       3.836   6.678  17.527  0.00  0.00    +0.000 A 
ATOM      2  N   UNL     1       3.428   5.987  18.611  0.00  0.00    +0.000 NA
ATOM      3  C   UNL     1       3.922   4.757  18.867  0.00  0.00    +0.000 A 
ATOM      4  N   UNL     1       3.459   4.072  19.977  0.00  0.00    +0.000 N 
ATOM      5  C   UNL     1       4.029   2.780  20.318  0.00  0.00    +0.000 C 
ATOM      6  C   UNL     1       3.064   1.612  20.097  0.00  0.00    +0.000 C 
ATOM      7  C   UNL     1       2.275   1.645  18.787  0.00  0.00    +0.000 C 
ATOM      8  C   UNL     1       0.842   2.177  18.901  0.00  0.00    +0.000 C 
ATOM      9  C   UNL     1       0.650   3.651  19.276  0.00  0.00    +0.000 C 
ATOM     10  C   UNL     1       1.076   4.009  20.702  0.00  0.00    +0.000 C 
ATOM     11  C   UNL     1       2.451   4.673  20.833  0.00  0.00    +0.000 C 
ATOM     12  N   UNL     1       4.821   4.164  18.065  0.00  0.00    +0.000 NA
ATOM     13  C   UNL     1       5.186   4.853  16.983  0.00  0.00    +0.000 A 
ATOM     14  C   UNL     1       4.729   6.107  16.663  0.00  0.00    +0.000 A 
ATOM     15  C   UNL     1       5.345   6.611  15.406  0.00  0.00    +0.000 C 
ATOM     16  C   UNL     1       5.908   5.315  14.802  0.00  0.00    +0.000 C 
ATOM     17  C   UNL     1       6.182   4.362  15.973  0.00  0.00    +0.000 C 
ENDROOT
BRANCH   1  20
ATOM     18  C   UNL     1       1.704   8.297  19.066  0.00  0.00    +0.000 A 
ATOM     19  C   UNL     1       2.478   8.721  17.963  0.00  0.00    +0.000 A 
ATOM     20  N   UNL     1       3.297   7.944  17.225  0.00  0.00    +0.000 N 
ATOM     21  N   UNL     1       2.270  10.015  17.696  0.00  0.00    +0.000 NA
ATOM     22  N   UNL     1       1.390  10.407  18.636  0.00  0.00    +0.000 N 
ATOM     23  C   UNL     1       1.033   9.413  19.496  0.00  0.00    +0.000 A 
ATOM     24  H   UNL     1       3.855   8.453  16.553  0.00  0.00    +0.000 HD
ATOM     25  H   UNL     1       1.082  11.373  18.634  0.00  0.00    +0.000 HD
BRANCH  23  26
ATOM     26  C   UNL     1       0.099   9.543  20.679  0.00  0.00    +0.000 C 
ATOM     27  C   UNL     1      -0.066   8.369  21.622  0.00  0.00    +0.000 C 
ATOM     28  C   UNL     1       0.712   9.560  22.067  0.00  0.00    +0.000 C 
ENDBRANCH  23  26
ENDBRANCH   1  20
TORSDOF 2
ENDMDL
MODEL 4
REMARK VINA RESULT:      -7.4      6.212     10.059
REMARK  Name = 
REMARK  2 active torsions:
REMARK  status: ('A' for Active; 'I' for Inactive)
REMARK    1  A    between atoms: N_3  and  C_4
REMARK    2  A    between atoms: C_23  and  C_24
REMARK                            x       y       z     vdW  Elec       q    Type
REMARK                         _______ _______ _______ _____ _____    ______ ____
ROOT
ATOM      1  C   UNL     1      -1.192  11.485  20.206  0.00  0.00    +0.000 A 
ATOM      2  N   UNL     1      -1.686  12.611  20.761  0.00  0.00    +0.000 NA
ATOM      3  C   UNL     1      -1.594  12.820  22.092  0.00  0.00    +0.000 A 
ATOM      4  N   UNL     1      -2.134  13.977  22.623  0.00  0.00    +0.000 N 
ATOM      5  C   UNL     1      -1.982  14.261  24.039  0.00  0.00    +0.000 C 
ATOM      6  C   UNL     1      -3.292  14.156  24.825  0.00  0.00    +0.000 C 
ATOM      7  C   UNL     1      -4.161  12.940  24.499  0.00  0.00    +0.000 C 
ATOM      8  C   UNL     1      -5.323  13.208  23.535  0.00  0.00    +0.000 C 
ATOM      9  C   UNL     1      -4.984  13.593  22.091  0.00  0.00    +0.000 C 
ATOM     10  C   UNL     1      -4.317  14.961  21.933  0.00  0.00    +0.000 C 
ATOM     11  C   UNL     1      -2.796  14.936  21.754  0.00  0.00    +0.000 C 
ATOM     12  N   UNL     1      -1.027  11.927  22.919  0.00  0.00    +0.000 NA
ATOM     13  C   UNL     1      -0.575  10.807  22.354  0.00  0.00    +0.000 A 
ATOM     14  C   UNL     1      -0.631  10.532  21.010  0.00  0.00    +0.000 A 
ATOM     15  C   UNL     1      -0.022   9.211  20.695  0.00  0.00    +0.000 C 
ATOM     16  C   UNL     1       0.022   8.557  22.085  0.00  0.00    +0.000 C 
ATOM     17  C   UNL     1       0.094   9.697  23.110  0.00  0.00    +0.000 C 
ENDROOT
BRANCH   1  20
ATOM     18  C   UNL     1      -3.737  11.510  18.457  0.00  0.00    +0.000 A 
ATOM     19  C   UNL     1      -2.397  11.387  18.027  0.00  0.00    +0.000 A 
ATOM     20  N   UNL     1      -1.320  11.237  18.826  0.00  0.00    +0.000 N 
ATOM     21  N   UNL     1      -2.315  11.395  16.692  0.00  0.00    +0.000 NA
ATOM     22  N   UNL     1      -3.589  11.544  16.286  0.00  0.00    +0.000 N 
ATOM     23  C   UNL     1      -4.480  11.637  17.312  0.00  0.00    +0.000 A 
ATOM     24  H   UNL     1      -0.435  11.286  18.340  0.00  0.00    +0.000 HD
ATOM     25  H   UNL     1      -3.775  11.582  15.290  0.00  0.00    +0.000 HD
BRANCH  23  26
ATOM     26  C   UNL     1      -5.974  11.848  17.187  0.00  0.00    +0.000 C 
ATOM     27  C   UNL     1      -6.748  12.364  18.381  0.00  0.00    +0.000 C 
ATOM     28  C   UNL     1      -6.493  13.273  17.228  0.00  0.00    +0.000 C 
ENDBRANCH  23  26
ENDBRANCH   1  20
TORSDOF 2
ENDMDL
MODEL 5
REMARK VINA RESULT:      -7.1      5.784     11.840
REMARK  Name = 
REMARK  2 active torsions:
REMARK  status: ('A' for Active; 'I' for Inactive)
REMARK    1  A    between atoms: N_3  and  C_4
REMARK    2  A    between atoms: C_23  and  C_24
REMARK                            x       y       z     vdW  Elec       q    Type
REMARK                         _______ _______ _______ _____ _____    ______ ____
ROOT
ATOM      1  C   UNL     1      -3.914  12.645  20.215  0.00  0.00    +0.000 A 
ATOM      2  N   UNL     1      -4.147  13.051  21.480  0.00  0.00    +0.000 NA
ATOM      3  C   UNL     1      -5.345  12.833  22.063  0.00  0.00    +0.000 A 
ATOM      4  N   UNL     1      -5.550  13.287  23.354  0.00  0.00    +0.000 N 
ATOM      5  C   UNL     1      -6.803  12.999  24.030  0.00  0.00    +0.000 C 
ATOM      6  C   UNL     1      -7.684  14.235  24.233  0.00  0.00    +0.000 C 
ATOM      7  C   UNL     1      -7.800  15.168  23.025  0.00  0.00    +0.000 C 
ATOM      8  C   UNL     1      -6.892  16.403  23.065  0.00  0.00    +0.000 C 
ATOM      9  C   UNL     1      -5.377  16.184  22.992  0.00  0.00    +0.000 C 
ATOM     10  C   UNL     1      -4.771  15.491  24.214  0.00  0.00    +0.000 C 
ATOM     11  C   UNL     1      -4.490  13.994  24.052  0.00  0.00    +0.000 C 
ATOM     12  N   UNL     1      -6.353  12.222  21.420  0.00  0.00    +0.000 NA
ATOM     13  C   UNL     1      -6.112  11.857  20.160  0.00  0.00    +0.000 A 
ATOM     14  C   UNL     1      -4.918  12.043  19.508  0.00  0.00    +0.000 A 
ATOM     15  C   UNL     1      -4.962  11.507  18.121  0.00  0.00    +0.000 C 
ATOM     16  C   UNL     1      -6.476  11.358  17.900  0.00  0.00    +0.000 C 
ATOM     17  C   UNL     1      -7.108  11.158  19.284  0.00  0.00    +0.000 C 
ENDROOT
BRANCH   1  20
ATOM     18  C   UNL     1      -1.130  11.453  20.820  0.00  0.00    +0.000 A 
ATOM     19  C   UNL     1      -1.495  12.287  19.738  0.00  0.00    +0.000 A 
ATOM     20  N   UNL     1      -2.684  12.905  19.582  0.00  0.00    +0.000 N 
ATOM     21  N   UNL     1      -0.482  12.432  18.878  0.00  0.00    +0.000 NA
ATOM     22  N   UNL     1       0.504  11.681  19.401  0.00  0.00    +0.000 N 
ATOM     23  C   UNL     1       0.156  11.056  20.560  0.00  0.00    +0.000 A 
ATOM     24  H   UNL     1      -2.797  13.361  18.687  0.00  0.00    +0.000 HD
ATOM     25  H   UNL     1       1.388  11.634  18.906  0.00  0.00    +0.000 HD
BRANCH  23  26
ATOM     26  C   UNL     1       1.023  10.114  21.367  0.00  0.00    +0.000 C 
ATOM     27  C   UNL     1       0.407   9.348  22.519  0.00  0.00    +0.000 C 
ATOM     28  C   UNL     1       0.744   8.627  21.259  0.00  0.00    +0.000 C 
ENDBRANCH  23  26
ENDBRANCH   1  20
TORSDOF 2
ENDMDL
MODEL 6
REMARK VINA RESULT:      -7.0      3.219      8.277
REMARK  Name = 
REMARK  2 active torsions:
REMARK  status: ('A' for Active; 'I' for Inactive)
REMARK    1  A    between atoms: N_3  and  C_4
REMARK    2  A    between atoms: C_23  and  C_24
REMARK                            x       y       z     vdW  Elec       q    Type
REMARK                         _______ _______ _______ _____ _____    ______ ____
ROOT
ATOM      1  C   UNL     1       0.994  10.661  18.605  0.00  0.00    +0.000 A 
ATOM      2  N   UNL     1       1.477  11.656  19.376  0.00  0.00    +0.000 NA
ATOM      3  C   UNL     1       0.649  12.589  19.893  0.00  0.00    +0.000 A 
ATOM      4  N   UNL     1       1.189  13.606  20.660  0.00  0.00    +0.000 N 
ATOM      5  C   UNL     1       0.313  14.578  21.290  0.00  0.00    +0.000 C 
ATOM      6  C   UNL     1       0.410  15.976  20.674  0.00  0.00    +0.000 C 
ATOM      7  C   UNL     1       0.434  16.022  19.144  0.00  0.00    +0.000 C 
ATOM      8  C   UNL     1       1.825  16.176  18.517  0.00  0.00    +0.000 C 
ATOM      9  C   UNL     1       2.820  15.023  18.688  0.00  0.00    +0.000 C 
ATOM     10  C   UNL     1       3.307  14.805  20.122  0.00  0.00    +0.000 C 
ATOM     11  C   UNL     1       2.624  13.664  20.884  0.00  0.00    +0.000 C 
ATOM     12  N   UNL     1      -0.673  12.580  19.662  0.00  0.00    +0.000 NA
ATOM     13  C   UNL     1      -1.125  11.606  18.871  0.00  0.00    +0.000 A 
ATOM     14  C   UNL     1      -0.342  10.624  18.316  0.00  0.00    +0.000 A 
ATOM     15  C   UNL     1      -1.149   9.673  17.503  0.00  0.00    +0.000 C 
ATOM     16  C   UNL     1      -2.451  10.468  17.309  0.00  0.00    +0.000 C 
ATOM     17  C   UNL     1      -2.568  11.426  18.503  0.00  0.00    +0.000 C 
ENDROOT
BRANCH   1  20
ATOM     18  C   UNL     1       1.832   7.891  19.683  0.00  0.00    +0.000 A 
ATOM     19  C   UNL     1       2.110   8.442  18.411  0.00  0.00    +0.000 A 
ATOM     20  N   UNL     1       1.852   9.707  18.024  0.00  0.00    +0.000 N 
ATOM     21  N   UNL     1       2.715   7.549  17.620  0.00  0.00    +0.000 NA
ATOM     22  N   UNL     1       2.798   6.440  18.379  0.00  0.00    +0.000 N 
ATOM     23  C   UNL     1       2.263   6.591  19.622  0.00  0.00    +0.000 A 
ATOM     24  H   UNL     1       2.013   9.879  17.040  0.00  0.00    +0.000 HD
ATOM     25  H   UNL     1       3.226   5.614  17.978  0.00  0.00    +0.000 HD
BRANCH  23  26
ATOM     26  C   UNL     1       2.166   5.524  20.692  0.00  0.00    +0.000 C 
ATOM     27  C   UNL     1       1.179   4.389  20.514  0.00  0.00    +0.000 C 
ATOM     28  C   UNL     1       2.637   4.125  20.342  0.00  0.00    +0.000 C 
ENDBRANCH  23  26
ENDBRANCH   1  20
TORSDOF 2
ENDMDL
MODEL 7
REMARK VINA RESULT:      -7.0      3.214      9.014
REMARK  Name = 
REMARK  2 active torsions:
REMARK  status: ('A' for Active; 'I' for Inactive)
REMARK    1  A    between atoms: N_3  and  C_4
REMARK    2  A    between atoms: C_23  and  C_24
REMARK                            x       y       z     vdW  Elec       q    Type
REMARK                         _______ _______ _______ _____ _____    ______ ____
ROOT
ATOM      1  C   UNL     1      -0.341  10.935  18.551  0.00  0.00    +0.000 A 
ATOM      2  N   UNL     1      -0.261  11.672  19.678  0.00  0.00    +0.000 NA
ATOM      3  C   UNL     1      -1.377  12.157  20.263  0.00  0.00    +0.000 A 
ATOM      4  N   UNL     1      -1.248  12.928  21.404  0.00  0.00    +0.000 N 
ATOM      5  C   UNL     1      -2.436  13.399  22.095  0.00  0.00    +0.000 C 
ATOM      6  C   UNL     1      -2.651  14.910  21.977  0.00  0.00    +0.000 C 
ATOM      7  C   UNL     1      -2.438  15.500  20.581  0.00  0.00    +0.000 C 
ATOM      8  C   UNL     1      -1.075  16.163  20.353  0.00  0.00    +0.000 C 
ATOM      9  C   UNL     1       0.171  15.270  20.374  0.00  0.00    +0.000 C 
ATOM     10  C   UNL     1       0.504  14.668  21.742  0.00  0.00    +0.000 C 
ATOM     11  C   UNL     1       0.070  13.212  21.945  0.00  0.00    +0.000 C 
ATOM     12  N   UNL     1      -2.601  11.945  19.756  0.00  0.00    +0.000 NA
ATOM     13  C   UNL     1      -2.655  11.241  18.624  0.00  0.00    +0.000 A 
ATOM     14  C   UNL     1      -1.563  10.715  17.978  0.00  0.00    +0.000 A 
ATOM     15  C   UNL     1      -1.958   9.963  16.756  0.00  0.00    +0.000 C 
ATOM     16  C   UNL     1      -3.391  10.473  16.536  0.00  0.00    +0.000 C 
ATOM     17  C   UNL     1      -3.929  10.895  17.910  0.00  0.00    +0.000 C 
ENDROOT
BRANCH   1  20
ATOM     18  C   UNL     1       1.448   8.532  19.300  0.00  0.00    +0.000 A 
ATOM     19  C   UNL     1       1.521   9.332  18.137  0.00  0.00    +0.000 A 
ATOM     20  N   UNL     1       0.818  10.460  17.908  0.00  0.00    +0.000 N 
ATOM     21  N   UNL     1       2.426   8.852  17.277  0.00  0.00    +0.000 NA
ATOM     22  N   UNL     1       2.902   7.749  17.883  0.00  0.00    +0.000 N 
ATOM     23  C   UNL     1       2.331   7.504  19.095  0.00  0.00    +0.000 A 
ATOM     24  H   UNL     1       0.919  10.826  16.970  0.00  0.00    +0.000 HD
ATOM     25  H   UNL     1       3.612   7.206  17.404  0.00  0.00    +0.000 HD
BRANCH  23  26
ATOM     26  C   UNL     1       2.620   6.326  20.001  0.00  0.00    +0.000 C 
ATOM     27  C   UNL     1       1.463   5.570  20.619  0.00  0.00    +0.000 C 
ATOM     28  C   UNL     1       2.236   4.944  19.509  0.00  0.00    +0.000 C 
ENDBRANCH  23  26
ENDBRANCH   1  20
TORSDOF 2
ENDMDL
MODEL 8
REMARK VINA RESULT:      -7.0      6.253      8.475
REMARK  Name = 
REMARK  2 active torsions:
REMARK  status: ('A' for Active; 'I' for Inactive)
REMARK    1  A    between atoms: N_3  and  C_4
REMARK    2  A    between atoms: C_23  and  C_24
REMARK                            x       y       z     vdW  Elec       q    Type
REMARK                         _______ _______ _______ _____ _____    ______ ____
ROOT
ATOM      1  C   UNL     1      -1.385  12.357  21.832  0.00  0.00    +0.000 A 
ATOM      2  N   UNL     1      -0.944  13.154  20.837  0.00  0.00    +0.000 NA
ATOM      3  C   UNL     1       0.132  12.804  20.101  0.00  0.00    +0.000 A 
ATOM      4  N   UNL     1       0.565  13.661  19.105  0.00  0.00    +0.000 N 
ATOM      5  C   UNL     1       1.672  13.273  18.249  0.00  0.00    +0.000 C 
ATOM      6  C   UNL     1       2.946  14.086  18.496  0.00  0.00    +0.000 C 
ATOM      7  C   UNL     1       3.311  14.311  19.965  0.00  0.00    +0.000 C 
ATOM      8  C   UNL     1       2.908  15.675  20.537  0.00  0.00    +0.000 C 
ATOM      9  C   UNL     1       1.413  15.988  20.662  0.00  0.00    +0.000 C 
ATOM     10  C   UNL     1       0.677  16.140  19.329  0.00  0.00    +0.000 C 
ATOM     11  C   UNL     1      -0.128  14.918  18.876  0.00  0.00    +0.000 C 
ATOM     12  N   UNL     1       0.814  11.669  20.324  0.00  0.00    +0.000 NA
ATOM     13  C   UNL     1       0.380  10.912  21.333  0.00  0.00    +0.000 A 
ATOM     14  C   UNL     1      -0.708  11.205  22.119  0.00  0.00    +0.000 A 
ATOM     15  C   UNL     1      -0.945  10.150  23.142  0.00  0.00    +0.000 C 
ATOM     16  C   UNL     1       0.400   9.406  23.128  0.00  0.00    +0.000 C 
ATOM     17  C   UNL     1       1.005   9.608  21.732  0.00  0.00    +0.000 C 
ENDROOT
BRANCH   1  20
ATOM     18  C   UNL     1      -4.385  12.448  21.105  0.00  0.00    +0.000 A 
ATOM     19  C   UNL     1      -3.800  12.637  22.377  0.00  0.00    +0.000 A 
ATOM     20  N   UNL     1      -2.480  12.733  22.635  0.00  0.00    +0.000 N 
ATOM     21  N   UNL     1      -4.735  12.757  23.326  0.00  0.00    +0.000 NA
ATOM     22  N   UNL     1      -5.897  12.622  22.661  0.00  0.00    +0.000 N 
ATOM     23  C   UNL     1      -5.738  12.416  21.324  0.00  0.00    +0.000 A 
ATOM     24  H   UNL     1      -2.251  12.747  23.620  0.00  0.00    +0.000 HD
ATOM     25  H   UNL     1      -6.762  12.674  23.187  0.00  0.00    +0.000 HD
BRANCH  23  26
ATOM     26  C   UNL     1      -6.842  12.188  20.314  0.00  0.00    +0.000 C 
ATOM     27  C   UNL     1      -6.592  11.256  19.146  0.00  0.00    +0.000 C 
ATOM     28  C   UNL     1      -7.478  10.812  20.259  0.00  0.00    +0.000 C 
ENDBRANCH  23  26
ENDBRANCH   1  20
TORSDOF 2
ENDMDL
MODEL 9
REMARK VINA RESULT:      -7.0      7.930      9.489
REMARK  Name = 
REMARK  2 active torsions:
REMARK  status: ('A' for Active; 'I' for Inactive)
REMARK    1  A    between atoms: N_3  and  C_4
REMARK    2  A    between atoms: C_23  and  C_24
REMARK                            x       y       z     vdW  Elec       q    Type
REMARK                         _______ _______ _______ _____ _____    ______ ____
ROOT
ATOM      1  C   UNL     1       6.793  15.025  21.047  0.00  0.00    +0.000 A 
ATOM      2  N   UNL     1       8.029  14.554  20.785  0.00  0.00    +0.000 NA
ATOM      3  C   UNL     1       8.388  14.229  19.524  0.00  0.00    +0.000 A 
ATOM      4  N   UNL     1       9.658  13.727  19.302  0.00  0.00    +0.000 N 
ATOM      5  C   UNL     1      10.094  13.441  17.947  0.00  0.00    +0.000 C 
ATOM      6  C   UNL     1      10.242  11.945  17.658  0.00  0.00    +0.000 C 
ATOM      7  C   UNL     1       9.106  11.058  18.172  0.00  0.00    +0.000 C 
ATOM      8  C   UNL     1       9.388  10.338  19.496  0.00  0.00    +0.000 C 
ATOM      9  C   UNL     1       9.550  11.192  20.758  0.00  0.00    +0.000 C 
ATOM     10  C   UNL     1      10.800  12.075  20.778  0.00  0.00    +0.000 C 
ATOM     11  C   UNL     1      10.573  13.547  20.416  0.00  0.00    +0.000 C 
ATOM     12  N   UNL     1       7.543  14.345  18.487  0.00  0.00    +0.000 NA
ATOM     13  C   UNL     1       6.317  14.783  18.774  0.00  0.00    +0.000 A 
ATOM     14  C   UNL     1       5.886  15.135  20.030  0.00  0.00    +0.000 A 
ATOM     15  C   UNL     1       4.474  15.604  20.014  0.00  0.00    +0.000 C 
ATOM     16  C   UNL     1       3.996  15.083  18.649  0.00  0.00    +0.000 C 
ATOM     17  C   UNL     1       5.237  14.984  17.752  0.00  0.00    +0.000 C 
ENDROOT
BRANCH   1  20
ATOM     18  C   UNL     1       6.428  13.120  23.450  0.00  0.00    +0.000 A 
ATOM     19  C   UNL     1       6.371  14.532  23.453  0.00  0.00    +0.000 A 
ATOM     20  N   UNL     1       6.393  15.327  22.363  0.00  0.00    +0.000 N 
ATOM     21  N   UNL     1       6.248  15.009  24.697  0.00  0.00    +0.000 NA
ATOM     22  N   UNL     1       6.249  13.908  25.471  0.00  0.00    +0.000 N 
ATOM     23  C   UNL     1       6.374  12.748  24.769  0.00  0.00    +0.000 A 
ATOM     24  H   UNL     1       6.464  16.314  22.573  0.00  0.00    +0.000 HD
ATOM     25  H   UNL     1       6.168  14.026  26.475  0.00  0.00    +0.000 HD
BRANCH  23  26
ATOM     26  C   UNL     1       6.448  11.352  25.348  0.00  0.00    +0.000 C 
ATOM     27  C   UNL     1       6.282  11.163  26.842  0.00  0.00    +0.000 C 
ATOM     28  C   UNL     1       5.178  10.757  25.926  0.00  0.00    +0.000 C 
ENDBRANCH  23  26
ENDBRANCH   1  20
TORSDOF 2
ENDMDL
