MODEL 1
REMARK VINA RESULT:      -7.7      0.000      0.000
REMARK  Name = 
REMARK  6 active torsions:
REMARK  status: ('A' for Active; 'I' for Inactive)
REMARK    1  A    between atoms: O_1  and  C_2
REMARK    2  A    between atoms: C_5  and  N_6
REMARK    3  A    between atoms: C_7  and  C_8
REMARK    4  A    between atoms: C_8  and  C_9
REMARK    5  A    between atoms: C_14  and  S_15
REMARK    6  A    between atoms: C_25  and  O_26
REMARK                            x       y       z     vdW  Elec       q    Type
REMARK                         _______ _______ _______ _____ _____    ______ ____
ROOT
ATOM      1  N   UNL     1       2.798   5.510  19.121  0.00  0.00    +0.000 N 
ATOM      2  C   UNL     1       3.394   5.422  17.874  0.00  0.00    +0.000 A 
ATOM      3  N   UNL     1       3.398   6.606  17.279  0.00  0.00    +0.000 NA
ATOM      4  C   UNL     1       2.734   7.462  18.108  0.00  0.00    +0.000 A 
ATOM      5  C   UNL     1       2.444   8.821  17.934  0.00  0.00    +0.000 A 
ATOM      6  C   UNL     1       1.716   9.490  18.926  0.00  0.00    +0.000 A 
ATOM      7 CL   UNL     1       1.389  11.170  18.674  0.00  0.00    +0.000 Cl
ATOM      8  C   UNL     1       1.274   8.809  20.067  0.00  0.00    +0.000 A 
ATOM      9 CL   UNL     1       0.353   9.590  21.308  0.00  0.00    +0.000 Cl
ATOM     10  C   UNL     1       1.568   7.450  20.254  0.00  0.00    +0.000 A 
ATOM     11  C   UNL     1       2.312   6.804  19.254  0.00  0.00    +0.000 A 
ENDROOT
BRANCH   1  15
ATOM     12  C   UNL     1       2.101   2.367  20.911  0.00  0.00    +0.000 C 
ATOM     13  C   UNL     1       3.606   2.447  20.721  0.00  0.00    +0.000 C 
ATOM     14  O   UNL     1       3.931   3.807  20.372  0.00  0.00    +0.000 OA
ATOM     15  C   UNL     1       2.696   4.524  20.190  0.00  0.00    +0.000 C 
ATOM     16  C   UNL     1       1.593   3.478  20.007  0.00  0.00    +0.000 C 
BRANCH  12  17
ATOM     17  O   UNL     1       1.736   2.689  22.266  0.00  0.00    +0.000 OA
ATOM     18  H   UNL     1       1.028   3.355  22.227  0.00  0.00    +0.000 HD
ENDBRANCH  12  17
BRANCH  16  19
ATOM     19  O   UNL     1       0.306   3.918  20.439  0.00  0.00    +0.000 OA
ATOM     20  H   UNL     1       0.468   4.438  21.257  0.00  0.00    +0.000 HD
ENDBRANCH  16  19
ENDBRANCH   1  15
BRANCH   2  21
ATOM     21  C   UNL     1       3.922   4.177  17.206  0.00  0.00    +0.000 C 
BRANCH  21  22
ATOM     22  C   UNL     1       5.123   4.421  16.300  0.00  0.00    +0.000 A 
ATOM     23  C   UNL     1       4.957   4.325  14.901  0.00  0.00    +0.000 A 
ATOM     24  C   UNL     1       6.028   4.497  14.026  0.00  0.00    +0.000 A 
ATOM     25  C   UNL     1       7.287   4.795  14.526  0.00  0.00    +0.000 A 
ATOM     26  C   UNL     1       7.459   4.975  15.899  0.00  0.00    +0.000 A 
ATOM     27  C   UNL     1       6.383   4.820  16.791  0.00  0.00    +0.000 A 
BRANCH  27  28
ATOM     28  S   UNL     1       6.679   5.188  18.519  0.00  0.00    +0.000 S 
ATOM     29  H   UNL     1       6.556   3.942  18.996  0.00  0.00    +0.000 HD
ENDBRANCH  27  28
ENDBRANCH  21  22
ENDBRANCH   2  21
TORSDOF 6
ENDMDL
MODEL 2
REMARK VINA RESULT:      -7.4      1.424      1.997
REMARK  Name = 
REMARK  6 active torsions:
REMARK  status: ('A' for Active; 'I' for Inactive)
REMARK    1  A    between atoms: O_1  and  C_2
REMARK    2  A    between atoms: C_5  and  N_6
REMARK    3  A    between atoms: C_7  and  C_8
REMARK    4  A    between atoms: C_8  and  C_9
REMARK    5  A    between atoms: C_14  and  S_15
REMARK    6  A    between atoms: C_25  and  O_26
REMARK                            x       y       z     vdW  Elec       q    Type
REMARK                         _______ _______ _______ _____ _____    ______ ____
ROOT
ATOM      1  N   UNL     1       2.389   6.000  19.606  0.00  0.00    +0.000 N 
ATOM      2  C   UNL     1       3.007   6.276  18.397  0.00  0.00    +0.000 A 
ATOM      3  N   UNL     1       2.873   7.558  18.092  0.00  0.00    +0.000 NA
ATOM      4  C   UNL     1       2.099   8.113  19.069  0.00  0.00    +0.000 A 
ATOM      5  C   UNL     1       1.647   9.433  19.202  0.00  0.00    +0.000 A 
ATOM      6  C   UNL     1       0.831   9.761  20.292  0.00  0.00    +0.000 A 
ATOM      7 CL   UNL     1       0.304  11.404  20.421  0.00  0.00    +0.000 Cl
ATOM      8  C   UNL     1       0.462   8.785  21.225  0.00  0.00    +0.000 A 
ATOM      9 CL   UNL     1      -0.563   9.142  22.574  0.00  0.00    +0.000 Cl
ATOM     10  C   UNL     1       0.918   7.464  21.105  0.00  0.00    +0.000 A 
ATOM     11  C   UNL     1       1.747   7.161  20.015  0.00  0.00    +0.000 A 
ENDROOT
BRANCH   1  15
ATOM     12  C   UNL     1       2.116   2.457  20.579  0.00  0.00    +0.000 C 
ATOM     13  C   UNL     1       3.596   2.794  20.534  0.00  0.00    +0.000 C 
ATOM     14  O   UNL     1       3.718   4.230  20.528  0.00  0.00    +0.000 OA
ATOM     15  C   UNL     1       2.395   4.786  20.414  0.00  0.00    +0.000 C 
ATOM     16  C   UNL     1       1.481   3.666  19.911  0.00  0.00    +0.000 C 
BRANCH  12  17
ATOM     17  O   UNL     1       1.644   2.396  21.937  0.00  0.00    +0.000 OA
ATOM     18  H   UNL     1       0.941   1.723  21.972  0.00  0.00    +0.000 HD
ENDBRANCH  12  17
BRANCH  16  19
ATOM     19  O   UNL     1       0.122   3.802  20.325  0.00  0.00    +0.000 OA
ATOM     20  H   UNL     1      -0.348   4.191  19.555  0.00  0.00    +0.000 HD
ENDBRANCH  16  19
ENDBRANCH   1  15
BRANCH   2  21
ATOM     21  C   UNL     1       3.691   5.291  17.482  0.00  0.00    +0.000 C 
BRANCH  21  22
ATOM     22  C   UNL     1       5.196   5.186  17.700  0.00  0.00    +0.000 A 
ATOM     23  C   UNL     1       5.736   5.559  18.951  0.00  0.00    +0.000 A 
ATOM     24  C   UNL     1       7.108   5.524  19.193  0.00  0.00    +0.000 A 
ATOM     25  C   UNL     1       7.973   5.090  18.200  0.00  0.00    +0.000 A 
ATOM     26  C   UNL     1       7.458   4.640  16.984  0.00  0.00    +0.000 A 
ATOM     27  C   UNL     1       6.075   4.656  16.732  0.00  0.00    +0.000 A 
BRANCH  27  28
ATOM     28  S   UNL     1       5.504   3.948  15.189  0.00  0.00    +0.000 S 
ATOM     29  H   UNL     1       5.903   2.687  15.406  0.00  0.00    +0.000 HD
ENDBRANCH  27  28
ENDBRANCH  21  22
ENDBRANCH   2  21
TORSDOF 6
ENDMDL
MODEL 3
REMARK VINA RESULT:      -7.3      4.287      7.075
REMARK  Name = 
REMARK  6 active torsions:
REMARK  status: ('A' for Active; 'I' for Inactive)
REMARK    1  A    between atoms: O_1  and  C_2
REMARK    2  A    between atoms: C_5  and  N_6
REMARK    3  A    between atoms: C_7  and  C_8
REMARK    4  A    between atoms: C_8  and  C_9
REMARK    5  A    between atoms: C_14  and  S_15
REMARK    6  A    between atoms: C_25  and  O_26
REMARK                            x       y       z     vdW  Elec       q    Type
REMARK                         _______ _______ _______ _____ _____    ______ ____
ROOT
ATOM      1  N   UNL     1       1.577   7.893  20.130  0.00  0.00    +0.000 N 
ATOM      2  C   UNL     1       1.927   8.562  18.970  0.00  0.00    +0.000 A 
ATOM      3  N   UNL     1       2.446   7.719  18.088  0.00  0.00    +0.000 NA
ATOM      4  C   UNL     1       2.506   6.502  18.701  0.00  0.00    +0.000 A 
ATOM      5  C   UNL     1       2.993   5.284  18.210  0.00  0.00    +0.000 A 
ATOM      6  C   UNL     1       2.974   4.161  19.048  0.00  0.00    +0.000 A 
ATOM      7 CL   UNL     1       3.576   2.675  18.396  0.00  0.00    +0.000 Cl
ATOM      8  C   UNL     1       2.489   4.257  20.357  0.00  0.00    +0.000 A 
ATOM      9 CL   UNL     1       2.467   2.901  21.433  0.00  0.00    +0.000 Cl
ATOM     10  C   UNL     1       1.991   5.471  20.854  0.00  0.00    +0.000 A 
ATOM     11  C   UNL     1       2.005   6.579  19.993  0.00  0.00    +0.000 A 
ENDROOT
BRANCH   1  15
ATOM     12  C   UNL     1       0.222  10.107  22.744  0.00  0.00    +0.000 C 
ATOM     13  C   UNL     1      -0.917   9.798  21.787  0.00  0.00    +0.000 C 
ATOM     14  O   UNL     1      -0.524   8.662  20.992  0.00  0.00    +0.000 OA
ATOM     15  C   UNL     1       0.848   8.356  21.305  0.00  0.00    +0.000 C 
ATOM     16  C   UNL     1       1.437   9.592  21.990  0.00  0.00    +0.000 C 
BRANCH  12  17
ATOM     17  O   UNL     1       0.093   9.346  23.959  0.00  0.00    +0.000 OA
ATOM     18  H   UNL     1      -0.733   9.627  24.393  0.00  0.00    +0.000 HD
ENDBRANCH  12  17
BRANCH  16  19
ATOM     19  O   UNL     1       2.495   9.295  22.901  0.00  0.00    +0.000 OA
ATOM     20  H   UNL     1       2.888  10.164  23.136  0.00  0.00    +0.000 HD
ENDBRANCH  16  19
ENDBRANCH   1  15
BRANCH   2  21
ATOM     21  C   UNL     1       1.820  10.044  18.709  0.00  0.00    +0.000 C 
BRANCH  21  22
ATOM     22  C   UNL     1       0.404  10.518  18.404  0.00  0.00    +0.000 A 
ATOM     23  C   UNL     1      -0.471   9.660  17.703  0.00  0.00    +0.000 A 
ATOM     24  C   UNL     1      -1.762  10.055  17.360  0.00  0.00    +0.000 A 
ATOM     25  C   UNL     1      -2.221  11.310  17.731  0.00  0.00    +0.000 A 
ATOM     26  C   UNL     1      -1.405  12.145  18.495  0.00  0.00    +0.000 A 
ATOM     27  C   UNL     1      -0.106  11.752  18.861  0.00  0.00    +0.000 A 
BRANCH  27  28
ATOM     28  S   UNL     1       0.819  12.843  19.939  0.00  0.00    +0.000 S 
ATOM     29  H   UNL     1       1.647  13.354  19.018  0.00  0.00    +0.000 HD
ENDBRANCH  27  28
ENDBRANCH  21  22
ENDBRANCH   2  21
TORSDOF 6
ENDMDL
MODEL 4
REMARK VINA RESULT:      -6.9      1.580      2.057
REMARK  Name = 
REMARK  6 active torsions:
REMARK  status: ('A' for Active; 'I' for Inactive)
REMARK    1  A    between atoms: O_1  and  C_2
REMARK    2  A    between atoms: C_5  and  N_6
REMARK    3  A    between atoms: C_7  and  C_8
REMARK    4  A    between atoms: C_8  and  C_9
REMARK    5  A    between atoms: C_14  and  S_15
REMARK    6  A    between atoms: C_25  and  O_26
REMARK                            x       y       z     vdW  Elec       q    Type
REMARK                         _______ _______ _______ _____ _____    ______ ____
ROOT
ATOM      1  N   UNL     1       2.274   6.613  19.576  0.00  0.00    +0.000 N 
ATOM      2  C   UNL     1       2.577   6.950  18.268  0.00  0.00    +0.000 A 
ATOM      3  N   UNL     1       2.296   8.225  18.042  0.00  0.00    +0.000 NA
ATOM      4  C   UNL     1       1.733   8.709  19.186  0.00  0.00    +0.000 A 
ATOM      5  C   UNL     1       1.240   9.991  19.461  0.00  0.00    +0.000 A 
ATOM      6  C   UNL     1       0.677  10.244  20.718  0.00  0.00    +0.000 A 
ATOM      7 CL   UNL     1       0.089  11.845  21.016  0.00  0.00    +0.000 Cl
ATOM      8  C   UNL     1       0.595   9.231  21.680  0.00  0.00    +0.000 A 
ATOM      9 CL   UNL     1      -0.113   9.493  23.238  0.00  0.00    +0.000 Cl
ATOM     10  C   UNL     1       1.095   7.946  21.417  0.00  0.00    +0.000 A 
ATOM     11  C   UNL     1       1.669   7.719  20.157  0.00  0.00    +0.000 A 
ENDROOT
BRANCH   1  15
ATOM     12  C   UNL     1       2.564   3.040  20.429  0.00  0.00    +0.000 C 
ATOM     13  C   UNL     1       3.971   3.555  20.180  0.00  0.00    +0.000 C 
ATOM     14  O   UNL     1       3.923   4.995  20.217  0.00  0.00    +0.000 OA
ATOM     15  C   UNL     1       2.543   5.389  20.322  0.00  0.00    +0.000 C 
ATOM     16  C   UNL     1       1.699   4.179  19.914  0.00  0.00    +0.000 C 
BRANCH  12  17
ATOM     17  O   UNL     1       2.313   2.890  21.839  0.00  0.00    +0.000 OA
ATOM     18  H   UNL     1       1.470   3.335  22.035  0.00  0.00    +0.000 HD
ENDBRANCH  12  17
BRANCH  16  19
ATOM     19  O   UNL     1       0.412   4.140  20.530  0.00  0.00    +0.000 OA
ATOM     20  H   UNL     1      -0.225   4.374  19.819  0.00  0.00    +0.000 HD
ENDBRANCH  16  19
ENDBRANCH   1  15
BRANCH   2  21
ATOM     21  C   UNL     1       3.095   6.030  17.190  0.00  0.00    +0.000 C 
BRANCH  21  22
ATOM     22  C   UNL     1       4.614   5.914  17.151  0.00  0.00    +0.000 A 
ATOM     23  C   UNL     1       5.397   7.055  17.439  0.00  0.00    +0.000 A 
ATOM     24  C   UNL     1       6.788   7.019  17.379  0.00  0.00    +0.000 A 
ATOM     25  C   UNL     1       7.435   5.836  17.054  0.00  0.00    +0.000 A 
ATOM     26  C   UNL     1       6.687   4.676  16.844  0.00  0.00    +0.000 A 
ATOM     27  C   UNL     1       5.284   4.695  16.918  0.00  0.00    +0.000 A 
BRANCH  27  28
ATOM     28  S   UNL     1       4.423   3.133  16.750  0.00  0.00    +0.000 S 
ATOM     29  H   UNL     1       3.409   3.391  17.588  0.00  0.00    +0.000 HD
ENDBRANCH  27  28
ENDBRANCH  21  22
ENDBRANCH   2  21
TORSDOF 6
ENDMDL
MODEL 5
REMARK VINA RESULT:      -6.7      7.362      8.805
REMARK  Name = 
REMARK  6 active torsions:
REMARK  status: ('A' for Active; 'I' for Inactive)
REMARK    1  A    between atoms: O_1  and  C_2
REMARK    2  A    between atoms: C_5  and  N_6
REMARK    3  A    between atoms: C_7  and  C_8
REMARK    4  A    between atoms: C_8  and  C_9
REMARK    5  A    between atoms: C_14  and  S_15
REMARK    6  A    between atoms: C_25  and  O_26
REMARK                            x       y       z     vdW  Elec       q    Type
REMARK                         _______ _______ _______ _____ _____    ______ ____
ROOT
ATOM      1  N   UNL     1       0.258  12.447  20.436  0.00  0.00    +0.000 N 
ATOM      2  C   UNL     1      -0.822  12.793  19.641  0.00  0.00    +0.000 A 
ATOM      3  N   UNL     1      -0.493  13.779  18.819  0.00  0.00    +0.000 NA
ATOM      4  C   UNL     1       0.788  14.133  19.127  0.00  0.00    +0.000 A 
ATOM      5  C   UNL     1       1.592  15.135  18.567  0.00  0.00    +0.000 A 
ATOM      6  C   UNL     1       2.882  15.329  19.075  0.00  0.00    +0.000 A 
ATOM      7 CL   UNL     1       3.843  16.570  18.347  0.00  0.00    +0.000 Cl
ATOM      8  C   UNL     1       3.357  14.544  20.133  0.00  0.00    +0.000 A 
ATOM      9 CL   UNL     1       4.937  14.765  20.806  0.00  0.00    +0.000 Cl
ATOM     10  C   UNL     1       2.563  13.533  20.693  0.00  0.00    +0.000 A 
ATOM     11  C   UNL     1       1.279  13.346  20.158  0.00  0.00    +0.000 A 
ENDROOT
BRANCH   1  15
ATOM     12  C   UNL     1      -0.517   9.636  22.688  0.00  0.00    +0.000 C 
ATOM     13  C   UNL     1       0.056   9.041  21.414  0.00  0.00    +0.000 C 
ATOM     14  O   UNL     1       0.703  10.104  20.687  0.00  0.00    +0.000 OA
ATOM     15  C   UNL     1       0.426  11.340  21.371  0.00  0.00    +0.000 C 
ATOM     16  C   UNL     1      -0.767  11.083  22.295  0.00  0.00    +0.000 C 
BRANCH  12  17
ATOM     17  O   UNL     1       0.459   9.622  23.747  0.00  0.00    +0.000 OA
ATOM     18  H   UNL     1       0.334  10.433  24.271  0.00  0.00    +0.000 HD
ENDBRANCH  12  17
BRANCH  16  19
ATOM     19  O   UNL     1      -0.786  11.915  23.455  0.00  0.00    +0.000 OA
ATOM     20  H   UNL     1      -1.550  12.520  23.330  0.00  0.00    +0.000 HD
ENDBRANCH  16  19
ENDBRANCH   1  15
BRANCH   2  21
ATOM     21  C   UNL     1      -2.214  12.216  19.700  0.00  0.00    +0.000 C 
BRANCH  21  22
ATOM     22  C   UNL     1      -2.613  11.433  18.455  0.00  0.00    +0.000 A 
ATOM     23  C   UNL     1      -1.670  10.567  17.858  0.00  0.00    +0.000 A 
ATOM     24  C   UNL     1      -1.964   9.858  16.695  0.00  0.00    +0.000 A 
ATOM     25  C   UNL     1      -3.217   9.976  16.113  0.00  0.00    +0.000 A 
ATOM     26  C   UNL     1      -4.192  10.762  16.728  0.00  0.00    +0.000 A 
ATOM     27  C   UNL     1      -3.913  11.470  17.910  0.00  0.00    +0.000 A 
BRANCH  27  28
ATOM     28  S   UNL     1      -5.264  12.355  18.686  0.00  0.00    +0.000 S 
ATOM     29  H   UNL     1      -4.828  13.600  18.449  0.00  0.00    +0.000 HD
ENDBRANCH  27  28
ENDBRANCH  21  22
ENDBRANCH   2  21
TORSDOF 6
ENDMDL
MODEL 6
REMARK VINA RESULT:      -6.7      7.075      8.605
REMARK  Name = 
REMARK  6 active torsions:
REMARK  status: ('A' for Active; 'I' for Inactive)
REMARK    1  A    between atoms: O_1  and  C_2
REMARK    2  A    between atoms: C_5  and  N_6
REMARK    3  A    between atoms: C_7  and  C_8
REMARK    4  A    between atoms: C_8  and  C_9
REMARK    5  A    between atoms: C_14  and  S_15
REMARK    6  A    between atoms: C_25  and  O_26
REMARK                            x       y       z     vdW  Elec       q    Type
REMARK                         _______ _______ _______ _____ _____    ______ ____
ROOT
ATOM      1  N   UNL     1      -0.001  11.923  20.265  0.00  0.00    +0.000 N 
ATOM      2  C   UNL     1      -0.868  11.730  19.204  0.00  0.00    +0.000 A 
ATOM      3  N   UNL     1      -0.883  12.797  18.419  0.00  0.00    +0.000 NA
ATOM      4  C   UNL     1      -0.078  13.726  19.009  0.00  0.00    +0.000 A 
ATOM      5  C   UNL     1       0.227  15.030  18.595  0.00  0.00    +0.000 A 
ATOM      6  C   UNL     1       1.070  15.813  19.393  0.00  0.00    +0.000 A 
ATOM      7 CL   UNL     1       1.426  17.413  18.838  0.00  0.00    +0.000 Cl
ATOM      8  C   UNL     1       1.589  15.308  20.591  0.00  0.00    +0.000 A 
ATOM      9 CL   UNL     1       2.617  16.249  21.619  0.00  0.00    +0.000 Cl
ATOM     10  C   UNL     1       1.298  14.001  21.008  0.00  0.00    +0.000 A 
ATOM     11  C   UNL     1       0.464  13.229  20.186  0.00  0.00    +0.000 A 
ENDROOT
BRANCH   1  15
ATOM     12  C   UNL     1      -0.010   9.276  22.828  0.00  0.00    +0.000 C 
ATOM     13  C   UNL     1       0.634   8.690  21.584  0.00  0.00    +0.000 C 
ATOM     14  O   UNL     1       0.986   9.785  20.716  0.00  0.00    +0.000 OA
ATOM     15  C   UNL     1       0.457  10.993  21.292  0.00  0.00    +0.000 C 
ATOM     16  C   UNL     1      -0.605  10.576  22.312  0.00  0.00    +0.000 C 
BRANCH  12  17
ATOM     17  O   UNL     1       0.984   9.600  23.818  0.00  0.00    +0.000 OA
ATOM     18  H   UNL     1       1.218  10.538  23.701  0.00  0.00    +0.000 HD
ENDBRANCH  12  17
BRANCH  16  19
ATOM     19  O   UNL     1      -0.771  11.504  23.383  0.00  0.00    +0.000 OA
ATOM     20  H   UNL     1      -1.362  12.206  23.032  0.00  0.00    +0.000 HD
ENDBRANCH  16  19
ENDBRANCH   1  15
BRANCH   2  21
ATOM     21  C   UNL     1      -1.746  10.528  18.956  0.00  0.00    +0.000 C 
BRANCH  21  22
ATOM     22  C   UNL     1      -2.546  10.602  17.660  0.00  0.00    +0.000 A 
ATOM     23  C   UNL     1      -2.069   9.918  16.520  0.00  0.00    +0.000 A 
ATOM     24  C   UNL     1      -2.735   9.984  15.298  0.00  0.00    +0.000 A 
ATOM     25  C   UNL     1      -3.909  10.715  15.191  0.00  0.00    +0.000 A 
ATOM     26  C   UNL     1      -4.443  11.333  16.322  0.00  0.00    +0.000 A 
ATOM     27  C   UNL     1      -3.789  11.261  17.564  0.00  0.00    +0.000 A 
BRANCH  27  28
ATOM     28  S   UNL     1      -4.614  11.986  18.979  0.00  0.00    +0.000 S 
ATOM     29  H   UNL     1      -5.194  13.015  18.347  0.00  0.00    +0.000 HD
ENDBRANCH  27  28
ENDBRANCH  21  22
ENDBRANCH   2  21
TORSDOF 6
ENDMDL
MODEL 7
REMARK VINA RESULT:      -6.7      7.239      9.237
REMARK  Name = 
REMARK  6 active torsions:
REMARK  status: ('A' for Active; 'I' for Inactive)
REMARK    1  A    between atoms: O_1  and  C_2
REMARK    2  A    between atoms: C_5  and  N_6
REMARK    3  A    between atoms: C_7  and  C_8
REMARK    4  A    between atoms: C_8  and  C_9
REMARK    5  A    between atoms: C_14  and  S_15
REMARK    6  A    between atoms: C_25  and  O_26
REMARK                            x       y       z     vdW  Elec       q    Type
REMARK                         _______ _______ _______ _____ _____    ______ ____
ROOT
ATOM      1  N   UNL     1       0.121  12.154  20.186  0.00  0.00    +0.000 N 
ATOM      2  C   UNL     1      -0.580  12.092  18.994  0.00  0.00    +0.000 A 
ATOM      3  N   UNL     1      -0.380  13.191  18.282  0.00  0.00    +0.000 NA
ATOM      4  C   UNL     1       0.398  14.013  19.044  0.00  0.00    +0.000 A 
ATOM      5  C   UNL     1       0.873  15.301  18.761  0.00  0.00    +0.000 A 
ATOM      6  C   UNL     1       1.642  15.964  19.725  0.00  0.00    +0.000 A 
ATOM      7 CL   UNL     1       2.216  17.548  19.328  0.00  0.00    +0.000 Cl
ATOM      8  C   UNL     1       1.921  15.358  20.955  0.00  0.00    +0.000 A 
ATOM      9 CL   UNL     1       2.849  16.151  22.184  0.00  0.00    +0.000 Cl
ATOM     10  C   UNL     1       1.457  14.066  21.244  0.00  0.00    +0.000 A 
ATOM     11  C   UNL     1       0.702  13.414  20.258  0.00  0.00    +0.000 A 
ENDROOT
BRANCH   1  15
ATOM     12  C   UNL     1      -0.553   9.574  22.728  0.00  0.00    +0.000 C 
ATOM     13  C   UNL     1      -0.043   8.858  21.491  0.00  0.00    +0.000 C 
ATOM     14  O   UNL     1       0.572   9.843  20.637  0.00  0.00    +0.000 OA
ATOM     15  C   UNL     1       0.331  11.140  21.213  0.00  0.00    +0.000 C 
ATOM     16  C   UNL     1      -0.818  10.979  22.212  0.00  0.00    +0.000 C 
BRANCH  12  17
ATOM     17  O   UNL     1       0.472   9.653  23.736  0.00  0.00    +0.000 OA
ATOM     18  H   UNL     1       0.356   8.891  24.331  0.00  0.00    +0.000 HD
ENDBRANCH  12  17
BRANCH  16  19
ATOM     19  O   UNL     1      -0.780  11.917  23.288  0.00  0.00    +0.000 OA
ATOM     20  H   UNL     1      -0.937  11.388  24.101  0.00  0.00    +0.000 HD
ENDBRANCH  16  19
ENDBRANCH   1  15
BRANCH   2  21
ATOM     21  C   UNL     1      -1.507  10.990  18.542  0.00  0.00    +0.000 C 
BRANCH  21  22
ATOM     22  C   UNL     1      -2.953  11.434  18.359  0.00  0.00    +0.000 A 
ATOM     23  C   UNL     1      -3.614  12.079  19.428  0.00  0.00    +0.000 A 
ATOM     24  C   UNL     1      -4.948  12.468  19.333  0.00  0.00    +0.000 A 
ATOM     25  C   UNL     1      -5.650  12.246  18.157  0.00  0.00    +0.000 A 
ATOM     26  C   UNL     1      -4.996  11.684  17.060  0.00  0.00    +0.000 A 
ATOM     27  C   UNL     1      -3.646  11.301  17.138  0.00  0.00    +0.000 A 
BRANCH  27  28
ATOM     28  S   UNL     1      -2.867  10.699  15.642  0.00  0.00    +0.000 S 
ATOM     29  H   UNL     1      -2.872   9.393  15.944  0.00  0.00    +0.000 HD
ENDBRANCH  27  28
ENDBRANCH  21  22
ENDBRANCH   2  21
TORSDOF 6
ENDMDL
MODEL 8
REMARK VINA RESULT:      -6.5      1.614      2.189
REMARK  Name = 
REMARK  6 active torsions:
REMARK  status: ('A' for Active; 'I' for Inactive)
REMARK    1  A    between atoms: O_1  and  C_2
REMARK    2  A    between atoms: C_5  and  N_6
REMARK    3  A    between atoms: C_7  and  C_8
REMARK    4  A    between atoms: C_8  and  C_9
REMARK    5  A    between atoms: C_14  and  S_15
REMARK    6  A    between atoms: C_25  and  O_26
REMARK                            x       y       z     vdW  Elec       q    Type
REMARK                         _______ _______ _______ _____ _____    ______ ____
ROOT
ATOM      1  N   UNL     1       2.234   6.524  18.889  0.00  0.00    +0.000 N 
ATOM      2  C   UNL     1       3.189   6.533  17.886  0.00  0.00    +0.000 A 
ATOM      3  N   UNL     1       3.403   7.771  17.463  0.00  0.00    +0.000 NA
ATOM      4  C   UNL     1       2.530   8.571  18.139  0.00  0.00    +0.000 A 
ATOM      5  C   UNL     1       2.336   9.955  18.042  0.00  0.00    +0.000 A 
ATOM      6  C   UNL     1       1.346  10.556  18.831  0.00  0.00    +0.000 A 
ATOM      7 CL   UNL     1       1.148  12.269  18.686  0.00  0.00    +0.000 Cl
ATOM      8  C   UNL     1       0.556   9.786  19.691  0.00  0.00    +0.000 A 
ATOM      9 CL   UNL     1      -0.693  10.484  20.668  0.00  0.00    +0.000 Cl
ATOM     10  C   UNL     1       0.749   8.400  19.802  0.00  0.00    +0.000 A 
ATOM     11  C   UNL     1       1.756   7.822  19.014  0.00  0.00    +0.000 A 
ENDROOT
BRANCH   1  15
ATOM     12  C   UNL     1       1.971   3.212  20.481  0.00  0.00    +0.000 C 
ATOM     13  C   UNL     1       2.634   4.138  21.485  0.00  0.00    +0.000 C 
ATOM     14  O   UNL     1       2.411   5.492  21.046  0.00  0.00    +0.000 OA
ATOM     15  C   UNL     1       1.781   5.440  19.753  0.00  0.00    +0.000 C 
ATOM     16  C   UNL     1       2.009   4.030  19.200  0.00  0.00    +0.000 C 
BRANCH  12  17
ATOM     17  O   UNL     1       0.591   2.984  20.825  0.00  0.00    +0.000 OA
ATOM     18  H   UNL     1       0.297   2.192  20.341  0.00  0.00    +0.000 HD
ENDBRANCH  12  17
BRANCH  16  19
ATOM     19  O   UNL     1       0.990   3.592  18.302  0.00  0.00    +0.000 OA
ATOM     20  H   UNL     1       0.154   3.970  18.653  0.00  0.00    +0.000 HD
ENDBRANCH  16  19
ENDBRANCH   1  15
BRANCH   2  21
ATOM     21  C   UNL     1       3.875   5.337  17.276  0.00  0.00    +0.000 C 
BRANCH  21  22
ATOM     22  C   UNL     1       5.333   5.180  17.691  0.00  0.00    +0.000 A 
ATOM     23  C   UNL     1       5.708   5.500  19.015  0.00  0.00    +0.000 A 
ATOM     24  C   UNL     1       7.032   5.416  19.440  0.00  0.00    +0.000 A 
ATOM     25  C   UNL     1       8.013   4.986  18.558  0.00  0.00    +0.000 A 
ATOM     26  C   UNL     1       7.656   4.588  17.270  0.00  0.00    +0.000 A 
ATOM     27  C   UNL     1       6.321   4.653  16.834  0.00  0.00    +0.000 A 
BRANCH  27  28
ATOM     28  S   UNL     1       5.948   4.008  15.205  0.00  0.00    +0.000 S 
ATOM     29  H   UNL     1       4.703   4.493  15.096  0.00  0.00    +0.000 HD
ENDBRANCH  27  28
ENDBRANCH  21  22
ENDBRANCH   2  21
TORSDOF 6
ENDMDL
MODEL 9
REMARK VINA RESULT:      -6.5      4.472      7.521
REMARK  Name = 
REMARK  6 active torsions:
REMARK  status: ('A' for Active; 'I' for Inactive)
REMARK    1  A    between atoms: O_1  and  C_2
REMARK    2  A    between atoms: C_5  and  N_6
REMARK    3  A    between atoms: C_7  and  C_8
REMARK    4  A    between atoms: C_8  and  C_9
REMARK    5  A    between atoms: C_14  and  S_15
REMARK    6  A    between atoms: C_25  and  O_26
REMARK                            x       y       z     vdW  Elec       q    Type
REMARK                         _______ _______ _______ _____ _____    ______ ____
ROOT
ATOM      1  N   UNL     1       1.273   8.871  19.675  0.00  0.00    +0.000 N 
ATOM      2  C   UNL     1       1.231   9.749  18.604  0.00  0.00    +0.000 A 
ATOM      3  N   UNL     1       1.881   9.243  17.567  0.00  0.00    +0.000 NA
ATOM      4  C   UNL     1       2.418   8.060  17.981  0.00  0.00    +0.000 A 
ATOM      5  C   UNL     1       3.214   7.149  17.274  0.00  0.00    +0.000 A 
ATOM      6  C   UNL     1       3.674   6.001  17.932  0.00  0.00    +0.000 A 
ATOM      7 CL   UNL     1       4.645   4.898  17.017  0.00  0.00    +0.000 Cl
ATOM      8  C   UNL     1       3.356   5.773  19.276  0.00  0.00    +0.000 A 
ATOM      9 CL   UNL     1       3.921   4.379  20.133  0.00  0.00    +0.000 Cl
ATOM     10  C   UNL     1       2.552   6.676  19.989  0.00  0.00    +0.000 A 
ATOM     11  C   UNL     1       2.090   7.811  19.306  0.00  0.00    +0.000 A 
ENDROOT
BRANCH   1  15
ATOM     12  C   UNL     1       0.035  10.087  22.925  0.00  0.00    +0.000 C 
ATOM     13  C   UNL     1      -1.136  10.124  21.960  0.00  0.00    +0.000 C 
ATOM     14  O   UNL     1      -0.788   9.319  20.817  0.00  0.00    +0.000 OA
ATOM     15  C   UNL     1       0.587   8.918  20.961  0.00  0.00    +0.000 C 
ATOM     16  C   UNL     1       1.218   9.848  22.001  0.00  0.00    +0.000 C 
BRANCH  12  17
ATOM     17  O   UNL     1      -0.070   8.963  23.819  0.00  0.00    +0.000 OA
ATOM     18  H   UNL     1      -0.999   8.902  24.103  0.00  0.00    +0.000 HD
ENDBRANCH  12  17
BRANCH  16  19
ATOM     19  O   UNL     1       2.298   9.256  22.723  0.00  0.00    +0.000 OA
ATOM     20  H   UNL     1       2.561   8.467  22.198  0.00  0.00    +0.000 HD
ENDBRANCH  16  19
ENDBRANCH   1  15
BRANCH   2  21
ATOM     21  C   UNL     1       0.607  11.122  18.580  0.00  0.00    +0.000 C 
BRANCH  21  22
ATOM     22  C   UNL     1      -0.888  11.119  18.285  0.00  0.00    +0.000 A 
ATOM     23  C   UNL     1      -1.429  10.079  17.497  0.00  0.00    +0.000 A 
ATOM     24  C   UNL     1      -2.781  10.046  17.160  0.00  0.00    +0.000 A 
ATOM     25  C   UNL     1      -3.631  11.039  17.623  0.00  0.00    +0.000 A 
ATOM     26  C   UNL     1      -3.137  12.032  18.470  0.00  0.00    +0.000 A 
ATOM     27  C   UNL     1      -1.778  12.067  18.830  0.00  0.00    +0.000 A 
BRANCH  27  28
ATOM     28  S   UNL     1      -1.266  13.310  20.013  0.00  0.00    +0.000 S 
ATOM     29  H   UNL     1      -2.372  13.310  20.770  0.00  0.00    +0.000 HD
ENDBRANCH  27  28
ENDBRANCH  21  22
ENDBRANCH   2  21
TORSDOF 6
ENDMDL
