MODEL 1
REMARK VINA RESULT:      -8.8      0.000      0.000
REMARK  Name = 
REMARK  5 active torsions:
REMARK  status: ('A' for Active; 'I' for Inactive)
REMARK    1  A    between atoms: O_1  and  N_2
REMARK    2  A    between atoms: C_3  and  C_14
REMARK    3  A    between atoms: N_4  and  C_5
REMARK    4  A    between atoms: C_19  and  O_20
REMARK    5  A    between atoms: O_20  and  C_21
REMARK                            x       y       z     vdW  Elec       q    Type
REMARK                         _______ _______ _______ _____ _____    ______ ____
ROOT
ATOM      1  N   UNL     1       2.694   7.898  17.971  0.00  0.00    +0.000 NA
ATOM      2  C   UNL     1       2.128   7.545  19.097  0.00  0.00    +0.000 C 
ATOM      3  N   UNL     1       1.210   8.293  19.850  0.00  0.00    +0.000 N 
ATOM      4  H   UNL     1       0.964   7.927  20.766  0.00  0.00    +0.000 HD
ENDROOT
BRANCH   3   5
ATOM      5  C   UNL     1       1.074   9.751  19.752  0.00  0.00    +0.000 C 
ATOM      6  C   UNL     1       1.020  10.372  21.169  0.00  0.00    +0.000 C 
ATOM      7  C   UNL     1       0.165  11.635  21.078  0.00  0.00    +0.000 C 
ATOM      8  C   UNL     1      -0.781  11.262  19.984  0.00  0.00    +0.000 A 
ATOM      9  C   UNL     1      -1.971  11.902  19.671  0.00  0.00    +0.000 A 
ATOM     10  C   UNL     1      -2.612  11.556  18.485  0.00  0.00    +0.000 A 
ATOM     11  C   UNL     1      -2.030  10.615  17.621  0.00  0.00    +0.000 A 
ATOM     12  C   UNL     1      -0.841   9.954  17.963  0.00  0.00    +0.000 A 
ATOM     13  C   UNL     1      -0.243  10.241  19.182  0.00  0.00    +0.000 A 
ENDBRANCH   3   5
BRANCH   2  14
ATOM     14  C   UNL     1       2.572   6.140  19.534  0.00  0.00    +0.000 A 
ATOM     15  C   UNL     1       1.552   5.281  20.018  0.00  0.00    +0.000 A 
ATOM     16  C   UNL     1       1.790   3.941  20.333  0.00  0.00    +0.000 A 
ATOM     17  C   UNL     1       3.068   3.472  20.197  0.00  0.00    +0.000 A 
ATOM     18  N   UNL     1       4.081   4.255  19.793  0.00  0.00    +0.000 NA
ATOM     19  C   UNL     1       3.835   5.562  19.443  0.00  0.00    +0.000 A 
BRANCH  19  20
ATOM     20  O   UNL     1       4.923   6.263  18.923  0.00  0.00    +0.000 OA
BRANCH  20  21
ATOM     21  C   UNL     1       5.445   5.702  17.762  0.00  0.00    +0.000 A 
ATOM     22  C   UNL     1       4.581   5.433  16.685  0.00  0.00    +0.000 A 
ATOM     23  C   UNL     1       5.030   4.681  15.600  0.00  0.00    +0.000 A 
ATOM     24  C   UNL     1       6.354   4.255  15.564  0.00  0.00    +0.000 A 
ATOM     25  F   UNL     1       6.774   3.512  14.530  0.00  0.00    +0.000 F 
ATOM     26  C   UNL     1       7.241   4.568  16.592  0.00  0.00    +0.000 A 
ATOM     27  C   UNL     1       6.784   5.291  17.697  0.00  0.00    +0.000 A 
ATOM     28 CL   UNL     1       7.878   5.594  18.994  0.00  0.00    +0.000 Cl
ENDBRANCH  20  21
ENDBRANCH  19  20
ENDBRANCH   2  14
BRANCH   1  29
ATOM     29  O   UNL     1       2.296   9.110  17.433  0.00  0.00    +0.000 OA
ATOM     30  H   UNL     1       1.720   9.477  18.125  0.00  0.00    +0.000 HD
ENDBRANCH   1  29
TORSDOF 5
ENDMDL
MODEL 2
REMARK VINA RESULT:      -8.5      2.663      4.341
REMARK  Name = 
REMARK  5 active torsions:
REMARK  status: ('A' for Active; 'I' for Inactive)
REMARK    1  A    between atoms: O_1  and  N_2
REMARK    2  A    between atoms: C_3  and  C_14
REMARK    3  A    between atoms: N_4  and  C_5
REMARK    4  A    between atoms: C_19  and  O_20
REMARK    5  A    between atoms: O_20  and  C_21
REMARK                            x       y       z     vdW  Elec       q    Type
REMARK                         _______ _______ _______ _____ _____    ______ ____
ROOT
ATOM      1  N   UNL     1       2.518   5.338  17.461  0.00  0.00    +0.000 NA
ATOM      2  C   UNL     1       3.358   6.084  18.135  0.00  0.00    +0.000 C 
ATOM      3  N   UNL     1       3.047   7.207  18.917  0.00  0.00    +0.000 N 
ATOM      4  H   UNL     1       3.830   7.750  19.270  0.00  0.00    +0.000 HD
ENDROOT
BRANCH   3   5
ATOM      5  C   UNL     1       1.821   7.997  18.755  0.00  0.00    +0.000 C 
ATOM      6  C   UNL     1       2.097   9.218  17.843  0.00  0.00    +0.000 C 
ATOM      7  C   UNL     1       1.155  10.337  18.287  0.00  0.00    +0.000 C 
ATOM      8  C   UNL     1       1.021  10.037  19.744  0.00  0.00    +0.000 A 
ATOM      9  C   UNL     1       0.524  10.890  20.718  0.00  0.00    +0.000 A 
ATOM     10  C   UNL     1       0.266  10.368  21.982  0.00  0.00    +0.000 A 
ATOM     11  C   UNL     1       0.466   9.000  22.231  0.00  0.00    +0.000 A 
ATOM     12  C   UNL     1       0.995   8.154  21.246  0.00  0.00    +0.000 A 
ATOM     13  C   UNL     1       1.328   8.691  20.009  0.00  0.00    +0.000 A 
ENDBRANCH   3   5
BRANCH   2  14
ATOM     14  C   UNL     1       4.799   5.572  17.999  0.00  0.00    +0.000 A 
ATOM     15  C   UNL     1       5.562   6.117  16.933  0.00  0.00    +0.000 A 
ATOM     16  C   UNL     1       6.920   5.835  16.765  0.00  0.00    +0.000 A 
ATOM     17  C   UNL     1       7.505   4.972  17.649  0.00  0.00    +0.000 A 
ATOM     18  N   UNL     1       6.819   4.388  18.644  0.00  0.00    +0.000 NA
ATOM     19  C   UNL     1       5.493   4.699  18.833  0.00  0.00    +0.000 A 
BRANCH  19  20
ATOM     20  O   UNL     1       4.895   4.137  19.960  0.00  0.00    +0.000 OA
BRANCH  20  21
ATOM     21  C   UNL     1       3.772   3.367  19.671  0.00  0.00    +0.000 A 
ATOM     22  C   UNL     1       3.847   2.409  18.645  0.00  0.00    +0.000 A 
ATOM     23  C   UNL     1       2.689   1.778  18.193  0.00  0.00    +0.000 A 
ATOM     24  C   UNL     1       1.472   2.059  18.806  0.00  0.00    +0.000 A 
ATOM     25  F   UNL     1       0.358   1.469  18.351  0.00  0.00    +0.000 F 
ATOM     26  C   UNL     1       1.390   2.959  19.867  0.00  0.00    +0.000 A 
ATOM     27  C   UNL     1       2.544   3.618  20.299  0.00  0.00    +0.000 A 
ATOM     28 CL   UNL     1       2.403   4.788  21.557  0.00  0.00    +0.000 Cl
ENDBRANCH  20  21
ENDBRANCH  19  20
ENDBRANCH   2  14
BRANCH   1  29
ATOM     29  O   UNL     1       1.176   5.652  17.586  0.00  0.00    +0.000 OA
ATOM     30  H   UNL     1       0.745   4.782  17.555  0.00  0.00    +0.000 HD
ENDBRANCH   1  29
TORSDOF 5
ENDMDL
MODEL 3
REMARK VINA RESULT:      -8.5      1.799      2.077
REMARK  Name = 
REMARK  5 active torsions:
REMARK  status: ('A' for Active; 'I' for Inactive)
REMARK    1  A    between atoms: O_1  and  N_2
REMARK    2  A    between atoms: C_3  and  C_14
REMARK    3  A    between atoms: N_4  and  C_5
REMARK    4  A    between atoms: C_19  and  O_20
REMARK    5  A    between atoms: O_20  and  C_21
REMARK                            x       y       z     vdW  Elec       q    Type
REMARK                         _______ _______ _______ _____ _____    ______ ____
ROOT
ATOM      1  N   UNL     1       2.878   7.488  18.237  0.00  0.00    +0.000 NA
ATOM      2  C   UNL     1       2.153   7.110  19.259  0.00  0.00    +0.000 C 
ATOM      3  N   UNL     1       1.199   7.876  19.945  0.00  0.00    +0.000 N 
ATOM      4  H   UNL     1       0.817   7.475  20.798  0.00  0.00    +0.000 HD
ENDROOT
BRANCH   3   5
ATOM      5  C   UNL     1       1.173   9.344  19.933  0.00  0.00    +0.000 C 
ATOM      6  C   UNL     1       1.059   9.882  21.381  0.00  0.00    +0.000 C 
ATOM      7  C   UNL     1       0.303  11.208  21.313  0.00  0.00    +0.000 C 
ATOM      8  C   UNL     1      -0.585  10.972  20.136  0.00  0.00    +0.000 A 
ATOM      9  C   UNL     1      -1.701  11.715  19.784  0.00  0.00    +0.000 A 
ATOM     10  C   UNL     1      -2.277  11.489  18.538  0.00  0.00    +0.000 A 
ATOM     11  C   UNL     1      -1.701  10.561  17.655  0.00  0.00    +0.000 A 
ATOM     12  C   UNL     1      -0.588   9.795  18.034  0.00  0.00    +0.000 A 
ATOM     13  C   UNL     1      -0.062   9.964  19.308  0.00  0.00    +0.000 A 
ENDBRANCH   3   5
BRANCH   2  14
ATOM     14  C   UNL     1       2.446   5.653  19.648  0.00  0.00    +0.000 A 
ATOM     15  C   UNL     1       1.786   5.167  20.806  0.00  0.00    +0.000 A 
ATOM     16  C   UNL     1       1.862   3.830  21.205  0.00  0.00    +0.000 A 
ATOM     17  C   UNL     1       2.637   2.986  20.458  0.00  0.00    +0.000 A 
ATOM     18  N   UNL     1       3.325   3.405  19.383  0.00  0.00    +0.000 NA
ATOM     19  C   UNL     1       3.213   4.711  18.968  0.00  0.00    +0.000 A 
BRANCH  19  20
ATOM     20  O   UNL     1       3.867   5.024  17.777  0.00  0.00    +0.000 OA
BRANCH  20  21
ATOM     21  C   UNL     1       5.180   5.447  17.955  0.00  0.00    +0.000 A 
ATOM     22  C   UNL     1       5.854   5.103  19.140  0.00  0.00    +0.000 A 
ATOM     23  C   UNL     1       7.085   5.687  19.439  0.00  0.00    +0.000 A 
ATOM     24  C   UNL     1       7.666   6.562  18.528  0.00  0.00    +0.000 A 
ATOM     25  F   UNL     1       8.837   7.140  18.831  0.00  0.00    +0.000 F 
ATOM     26  C   UNL     1       7.042   6.865  17.319  0.00  0.00    +0.000 A 
ATOM     27  C   UNL     1       5.793   6.307  17.032  0.00  0.00    +0.000 A 
ATOM     28 CL   UNL     1       5.003   6.762  15.569  0.00  0.00    +0.000 Cl
ENDBRANCH  20  21
ENDBRANCH  19  20
ENDBRANCH   2  14
BRANCH   1  29
ATOM     29  O   UNL     1       2.631   8.757  17.740  0.00  0.00    +0.000 OA
ATOM     30  H   UNL     1       1.753   8.965  18.102  0.00  0.00    +0.000 HD
ENDBRANCH   1  29
TORSDOF 5
ENDMDL
MODEL 4
REMARK VINA RESULT:      -8.3      3.987      8.389
REMARK  Name = 
REMARK  5 active torsions:
REMARK  status: ('A' for Active; 'I' for Inactive)
REMARK    1  A    between atoms: O_1  and  N_2
REMARK    2  A    between atoms: C_3  and  C_14
REMARK    3  A    between atoms: N_4  and  C_5
REMARK    4  A    between atoms: C_19  and  O_20
REMARK    5  A    between atoms: O_20  and  C_21
REMARK                            x       y       z     vdW  Elec       q    Type
REMARK                         _______ _______ _______ _____ _____    ______ ____
ROOT
ATOM      1  N   UNL     1       1.747   9.398  18.118  0.00  0.00    +0.000 NA
ATOM      2  C   UNL     1       1.700   8.572  19.131  0.00  0.00    +0.000 C 
ATOM      3  N   UNL     1       2.258   7.286  19.197  0.00  0.00    +0.000 N 
ATOM      4  H   UNL     1       2.021   6.725  20.011  0.00  0.00    +0.000 HD
ENDROOT
BRANCH   3   5
ATOM      5  C   UNL     1       2.587   6.481  18.014  0.00  0.00    +0.000 C 
ATOM      6  C   UNL     1       2.017   5.050  18.175  0.00  0.00    +0.000 C 
ATOM      7  C   UNL     1       2.945   4.105  17.413  0.00  0.00    +0.000 C 
ATOM      8  C   UNL     1       4.254   4.809  17.559  0.00  0.00    +0.000 A 
ATOM      9  C   UNL     1       5.510   4.270  17.324  0.00  0.00    +0.000 A 
ATOM     10  C   UNL     1       6.602   5.132  17.296  0.00  0.00    +0.000 A 
ATOM     11  C   UNL     1       6.410   6.513  17.458  0.00  0.00    +0.000 A 
ATOM     12  C   UNL     1       5.138   7.043  17.723  0.00  0.00    +0.000 A 
ATOM     13  C   UNL     1       4.061   6.174  17.830  0.00  0.00    +0.000 A 
ENDBRANCH   3   5
BRANCH   2  14
ATOM     14  C   UNL     1       0.951   9.186  20.324  0.00  0.00    +0.000 A 
ATOM     15  C   UNL     1       1.216   8.613  21.595  0.00  0.00    +0.000 A 
ATOM     16  C   UNL     1       0.702   9.148  22.779  0.00  0.00    +0.000 A 
ATOM     17  C   UNL     1      -0.114  10.241  22.681  0.00  0.00    +0.000 A 
ATOM     18  N   UNL     1      -0.438  10.792  21.500  0.00  0.00    +0.000 NA
ATOM     19  C   UNL     1       0.103  10.289  20.341  0.00  0.00    +0.000 A 
BRANCH  19  20
ATOM     20  O   UNL     1      -0.196  10.998  19.178  0.00  0.00    +0.000 OA
BRANCH  20  21
ATOM     21  C   UNL     1      -1.529  10.903  18.793  0.00  0.00    +0.000 A 
ATOM     22  C   UNL     1      -1.935   9.817  17.997  0.00  0.00    +0.000 A 
ATOM     23  C   UNL     1      -3.205   9.808  17.422  0.00  0.00    +0.000 A 
ATOM     24  C   UNL     1      -4.086  10.849  17.693  0.00  0.00    +0.000 A 
ATOM     25  F   UNL     1      -5.297  10.848  17.118  0.00  0.00    +0.000 F 
ATOM     26  C   UNL     1      -3.724  11.901  18.532  0.00  0.00    +0.000 A 
ATOM     27  C   UNL     1      -2.439  11.930  19.082  0.00  0.00    +0.000 A 
ATOM     28 CL   UNL     1      -1.986  13.284  20.048  0.00  0.00    +0.000 Cl
ENDBRANCH  20  21
ENDBRANCH  19  20
ENDBRANCH   2  14
BRANCH   1  29
ATOM     29  O   UNL     1       2.479   8.986  17.018  0.00  0.00    +0.000 OA
ATOM     30  H   UNL     1       3.109   8.353  17.400  0.00  0.00    +0.000 HD
ENDBRANCH   1  29
TORSDOF 5
ENDMDL
MODEL 5
REMARK VINA RESULT:      -8.3      1.324      1.514
REMARK  Name = 
REMARK  5 active torsions:
REMARK  status: ('A' for Active; 'I' for Inactive)
REMARK    1  A    between atoms: O_1  and  N_2
REMARK    2  A    between atoms: C_3  and  C_14
REMARK    3  A    between atoms: N_4  and  C_5
REMARK    4  A    between atoms: C_19  and  O_20
REMARK    5  A    between atoms: O_20  and  C_21
REMARK                            x       y       z     vdW  Elec       q    Type
REMARK                         _______ _______ _______ _____ _____    ______ ____
ROOT
ATOM      1  N   UNL     1       3.305   6.902  18.023  0.00  0.00    +0.000 NA
ATOM      2  C   UNL     1       2.496   6.331  18.879  0.00  0.00    +0.000 C 
ATOM      3  N   UNL     1       1.597   6.972  19.745  0.00  0.00    +0.000 N 
ATOM      4  H   UNL     1       1.134   6.389  20.437  0.00  0.00    +0.000 HD
ENDROOT
BRANCH   3   5
ATOM      5  C   UNL     1       1.726   8.374  20.160  0.00  0.00    +0.000 C 
ATOM      6  C   UNL     1       1.528   8.490  21.691  0.00  0.00    +0.000 C 
ATOM      7  C   UNL     1       0.926   9.868  21.966  0.00  0.00    +0.000 C 
ATOM      8  C   UNL     1       0.138  10.090  20.717  0.00  0.00    +0.000 A 
ATOM      9  C   UNL     1      -0.854  11.041  20.527  0.00  0.00    +0.000 A 
ATOM     10  C   UNL     1      -1.326  11.252  19.235  0.00  0.00    +0.000 A 
ATOM     11  C   UNL     1      -0.766  10.545  18.159  0.00  0.00    +0.000 A 
ATOM     12  C   UNL     1       0.217   9.566  18.367  0.00  0.00    +0.000 A 
ATOM     13  C   UNL     1       0.631   9.298  19.666  0.00  0.00    +0.000 A 
ENDBRANCH   3   5
BRANCH   2  14
ATOM     14  C   UNL     1       2.615   4.800  18.831  0.00  0.00    +0.000 A 
ATOM     15  C   UNL     1       1.396   4.078  18.759  0.00  0.00    +0.000 A 
ATOM     16  C   UNL     1       1.357   2.691  18.586  0.00  0.00    +0.000 A 
ATOM     17  C   UNL     1       2.549   2.024  18.524  0.00  0.00    +0.000 A 
ATOM     18  N   UNL     1       3.731   2.652  18.638  0.00  0.00    +0.000 NA
ATOM     19  C   UNL     1       3.766   4.021  18.765  0.00  0.00    +0.000 A 
BRANCH  19  20
ATOM     20  O   UNL     1       5.037   4.595  18.757  0.00  0.00    +0.000 OA
BRANCH  20  21
ATOM     21  C   UNL     1       5.555   4.788  17.481  0.00  0.00    +0.000 A 
ATOM     22  C   UNL     1       4.890   4.217  16.381  0.00  0.00    +0.000 A 
ATOM     23  C   UNL     1       5.495   4.212  15.124  0.00  0.00    +0.000 A 
ATOM     24  C   UNL     1       6.731   4.828  14.958  0.00  0.00    +0.000 A 
ATOM     25  F   UNL     1       7.320   4.799  13.754  0.00  0.00    +0.000 F 
ATOM     26  C   UNL     1       7.375   5.454  16.024  0.00  0.00    +0.000 A 
ATOM     27  C   UNL     1       6.786   5.432  17.291  0.00  0.00    +0.000 A 
ATOM     28 CL   UNL     1       7.640   6.139  18.610  0.00  0.00    +0.000 Cl
ENDBRANCH  20  21
ENDBRANCH  19  20
ENDBRANCH   2  14
BRANCH   1  29
ATOM     29  O   UNL     1       3.217   8.279  17.913  0.00  0.00    +0.000 OA
ATOM     30  H   UNL     1       3.328   8.578  18.831  0.00  0.00    +0.000 HD
ENDBRANCH   1  29
TORSDOF 5
ENDMDL
MODEL 6
REMARK VINA RESULT:      -8.3      4.324      8.834
REMARK  Name = 
REMARK  5 active torsions:
REMARK  status: ('A' for Active; 'I' for Inactive)
REMARK    1  A    between atoms: O_1  and  N_2
REMARK    2  A    between atoms: C_3  and  C_14
REMARK    3  A    between atoms: N_4  and  C_5
REMARK    4  A    between atoms: C_19  and  O_20
REMARK    5  A    between atoms: O_20  and  C_21
REMARK                            x       y       z     vdW  Elec       q    Type
REMARK                         _______ _______ _______ _____ _____    ______ ____
ROOT
ATOM      1  N   UNL     1       1.154   8.813  20.355  0.00  0.00    +0.000 NA
ATOM      2  C   UNL     1       1.058   8.897  19.052  0.00  0.00    +0.000 C 
ATOM      3  N   UNL     1       1.673   8.063  18.106  0.00  0.00    +0.000 N 
ATOM      4  H   UNL     1       1.599   8.343  17.132  0.00  0.00    +0.000 HD
ENDROOT
BRANCH   3   5
ATOM      5  C   UNL     1       2.866   7.255  18.388  0.00  0.00    +0.000 C 
ATOM      6  C   UNL     1       3.998   7.624  17.397  0.00  0.00    +0.000 C 
ATOM      7  C   UNL     1       4.846   6.369  17.193  0.00  0.00    +0.000 C 
ATOM      8  C   UNL     1       3.820   5.298  17.369  0.00  0.00    +0.000 A 
ATOM      9  C   UNL     1       3.948   3.966  17.003  0.00  0.00    +0.000 A 
ATOM     10  C   UNL     1       2.983   3.067  17.443  0.00  0.00    +0.000 A 
ATOM     11  C   UNL     1       1.939   3.506  18.274  0.00  0.00    +0.000 A 
ATOM     12  C   UNL     1       1.805   4.861  18.614  0.00  0.00    +0.000 A 
ATOM     13  C   UNL     1       2.723   5.772  18.109  0.00  0.00    +0.000 A 
ENDBRANCH   3   5
BRANCH   2  14
ATOM     14  C   UNL     1       0.136  10.051  18.629  0.00  0.00    +0.000 A 
ATOM     15  C   UNL     1      -0.876   9.733  17.687  0.00  0.00    +0.000 A 
ATOM     16  C   UNL     1      -1.860  10.650  17.307  0.00  0.00    +0.000 A 
ATOM     17  C   UNL     1      -1.802  11.905  17.847  0.00  0.00    +0.000 A 
ATOM     18  N   UNL     1      -0.836  12.275  18.703  0.00  0.00    +0.000 NA
ATOM     19  C   UNL     1       0.105  11.357  19.108  0.00  0.00    +0.000 A 
BRANCH  19  20
ATOM     20  O   UNL     1       0.995  11.797  20.087  0.00  0.00    +0.000 OA
BRANCH  20  21
ATOM     21  C   UNL     1       0.371  12.350  21.201  0.00  0.00    +0.000 A 
ATOM     22  C   UNL     1      -0.469  11.540  21.986  0.00  0.00    +0.000 A 
ATOM     23  C   UNL     1      -1.269  12.114  22.974  0.00  0.00    +0.000 A 
ATOM     24  C   UNL     1      -1.182  13.480  23.216  0.00  0.00    +0.000 A 
ATOM     25  F   UNL     1      -1.971  14.031  24.150  0.00  0.00    +0.000 F 
ATOM     26  C   UNL     1      -0.307  14.288  22.491  0.00  0.00    +0.000 A 
ATOM     27  C   UNL     1       0.470  13.721  21.478  0.00  0.00    +0.000 A 
ATOM     28 CL   UNL     1       1.482  14.754  20.539  0.00  0.00    +0.000 Cl
ENDBRANCH  20  21
ENDBRANCH  19  20
ENDBRANCH   2  14
BRANCH   1  29
ATOM     29  O   UNL     1       1.887   7.750  20.853  0.00  0.00    +0.000 OA
ATOM     30  H   UNL     1       1.815   7.867  21.815  0.00  0.00    +0.000 HD
ENDBRANCH   1  29
TORSDOF 5
ENDMDL
MODEL 7
REMARK VINA RESULT:      -8.2      4.333      8.289
REMARK  Name = 
REMARK  5 active torsions:
REMARK  status: ('A' for Active; 'I' for Inactive)
REMARK    1  A    between atoms: O_1  and  N_2
REMARK    2  A    between atoms: C_3  and  C_14
REMARK    3  A    between atoms: N_4  and  C_5
REMARK    4  A    between atoms: C_19  and  O_20
REMARK    5  A    between atoms: O_20  and  C_21
REMARK                            x       y       z     vdW  Elec       q    Type
REMARK                         _______ _______ _______ _____ _____    ______ ____
ROOT
ATOM      1  N   UNL     1       1.275   8.802  20.353  0.00  0.00    +0.000 NA
ATOM      2  C   UNL     1       1.186   8.908  19.052  0.00  0.00    +0.000 C 
ATOM      3  N   UNL     1       1.771   8.064  18.095  0.00  0.00    +0.000 N 
ATOM      4  H   UNL     1       1.711   8.361  17.125  0.00  0.00    +0.000 HD
ENDROOT
BRANCH   3   5
ATOM      5  C   UNL     1       2.931   7.207  18.368  0.00  0.00    +0.000 C 
ATOM      6  C   UNL     1       4.063   7.514  17.356  0.00  0.00    +0.000 C 
ATOM      7  C   UNL     1       4.851   6.220  17.153  0.00  0.00    +0.000 C 
ATOM      8  C   UNL     1       3.781   5.198  17.359  0.00  0.00    +0.000 A 
ATOM      9  C   UNL     1       3.844   3.858  17.006  0.00  0.00    +0.000 A 
ATOM     10  C   UNL     1       2.846   3.007  17.472  0.00  0.00    +0.000 A 
ATOM     11  C   UNL     1       1.837   3.503  18.313  0.00  0.00    +0.000 A 
ATOM     12  C   UNL     1       1.768   4.866  18.639  0.00  0.00    +0.000 A 
ATOM     13  C   UNL     1       2.718   5.729  18.109  0.00  0.00    +0.000 A 
ENDBRANCH   3   5
BRANCH   2  14
ATOM     14  C   UNL     1       0.310  10.102  18.643  0.00  0.00    +0.000 A 
ATOM     15  C   UNL     1      -0.839   9.802  17.867  0.00  0.00    +0.000 A 
ATOM     16  C   UNL     1      -1.788  10.770  17.529  0.00  0.00    +0.000 A 
ATOM     17  C   UNL     1      -1.561  12.054  17.942  0.00  0.00    +0.000 A 
ATOM     18  N   UNL     1      -0.465  12.403  18.634  0.00  0.00    +0.000 NA
ATOM     19  C   UNL     1       0.446  11.440  19.001  0.00  0.00    +0.000 A 
BRANCH  19  20
ATOM     20  O   UNL     1       1.488  11.876  19.817  0.00  0.00    +0.000 OA
BRANCH  20  21
ATOM     21  C   UNL     1       1.981  13.130  19.473  0.00  0.00    +0.000 A 
ATOM     22  C   UNL     1       2.792  13.256  18.331  0.00  0.00    +0.000 A 
ATOM     23  C   UNL     1       3.471  14.449  18.083  0.00  0.00    +0.000 A 
ATOM     24  C   UNL     1       3.289  15.529  18.940  0.00  0.00    +0.000 A 
ATOM     25  F   UNL     1       3.963  16.665  18.711  0.00  0.00    +0.000 F 
ATOM     26  C   UNL     1       2.440  15.443  20.041  0.00  0.00    +0.000 A 
ATOM     27  C   UNL     1       1.785  14.238  20.310  0.00  0.00    +0.000 A 
ATOM     28 CL   UNL     1       0.805  14.130  21.724  0.00  0.00    +0.000 Cl
ENDBRANCH  20  21
ENDBRANCH  19  20
ENDBRANCH   2  14
BRANCH   1  29
ATOM     29  O   UNL     1       1.965   7.704  20.838  0.00  0.00    +0.000 OA
ATOM     30  H   UNL     1       2.284   7.273  20.028  0.00  0.00    +0.000 HD
ENDBRANCH   1  29
TORSDOF 5
ENDMDL
MODEL 8
REMARK VINA RESULT:      -7.9      4.005      8.241
REMARK  Name = 
REMARK  5 active torsions:
REMARK  status: ('A' for Active; 'I' for Inactive)
REMARK    1  A    between atoms: O_1  and  N_2
REMARK    2  A    between atoms: C_3  and  C_14
REMARK    3  A    between atoms: N_4  and  C_5
REMARK    4  A    between atoms: C_19  and  O_20
REMARK    5  A    between atoms: O_20  and  C_21
REMARK                            x       y       z     vdW  Elec       q    Type
REMARK                         _______ _______ _______ _____ _____    ______ ____
ROOT
ATOM      1  N   UNL     1       1.532   9.413  18.194  0.00  0.00    +0.000 NA
ATOM      2  C   UNL     1       1.601   8.641  19.250  0.00  0.00    +0.000 C 
ATOM      3  N   UNL     1       2.223   7.386  19.337  0.00  0.00    +0.000 N 
ATOM      4  H   UNL     1       2.074   6.861  20.195  0.00  0.00    +0.000 HD
ENDROOT
BRANCH   3   5
ATOM      5  C   UNL     1       2.501   6.533  18.176  0.00  0.00    +0.000 C 
ATOM      6  C   UNL     1       1.973   5.101  18.436  0.00  0.00    +0.000 C 
ATOM      7  C   UNL     1       2.877   4.139  17.664  0.00  0.00    +0.000 C 
ATOM      8  C   UNL     1       4.176   4.876  17.700  0.00  0.00    +0.000 A 
ATOM      9  C   UNL     1       5.428   4.352  17.417  0.00  0.00    +0.000 A 
ATOM     10  C   UNL     1       6.496   5.233  17.284  0.00  0.00    +0.000 A 
ATOM     11  C   UNL     1       6.283   6.617  17.393  0.00  0.00    +0.000 A 
ATOM     12  C   UNL     1       5.017   7.133  17.709  0.00  0.00    +0.000 A 
ATOM     13  C   UNL     1       3.968   6.248  17.919  0.00  0.00    +0.000 A 
ENDBRANCH   3   5
BRANCH   2  14
ATOM     14  C   UNL     1       0.914   9.286  20.463  0.00  0.00    +0.000 A 
ATOM     15  C   UNL     1       0.124   8.426  21.268  0.00  0.00    +0.000 A 
ATOM     16  C   UNL     1      -0.457   8.848  22.468  0.00  0.00    +0.000 A 
ATOM     17  C   UNL     1      -0.273  10.151  22.840  0.00  0.00    +0.000 A 
ATOM     18  N   UNL     1       0.422  11.021  22.089  0.00  0.00    +0.000 NA
ATOM     19  C   UNL     1       1.027  10.592  20.932  0.00  0.00    +0.000 A 
BRANCH  19  20
ATOM     20  O   UNL     1       1.825  11.534  20.283  0.00  0.00    +0.000 OA
BRANCH  20  21
ATOM     21  C   UNL     1       1.135  12.678  19.895  0.00  0.00    +0.000 A 
ATOM     22  C   UNL     1       0.049  12.554  19.011  0.00  0.00    +0.000 A 
ATOM     23  C   UNL     1      -0.522  13.692  18.441  0.00  0.00    +0.000 A 
ATOM     24  C   UNL     1      -0.049  14.948  18.802  0.00  0.00    +0.000 A 
ATOM     25  F   UNL     1      -0.584  16.038  18.233  0.00  0.00    +0.000 F 
ATOM     26  C   UNL     1       0.985  15.092  19.726  0.00  0.00    +0.000 A 
ATOM     27  C   UNL     1       1.581  13.953  20.272  0.00  0.00    +0.000 A 
ATOM     28 CL   UNL     1       2.913  14.154  21.348  0.00  0.00    +0.000 Cl
ENDBRANCH  20  21
ENDBRANCH  19  20
ENDBRANCH   2  14
BRANCH   1  29
ATOM     29  O   UNL     1       2.199   8.973  17.064  0.00  0.00    +0.000 OA
ATOM     30  H   UNL     1       2.751   8.249  17.404  0.00  0.00    +0.000 HD
ENDBRANCH   1  29
TORSDOF 5
ENDMDL
MODEL 9
REMARK VINA RESULT:      -7.8      4.553      9.103
REMARK  Name = 
REMARK  5 active torsions:
REMARK  status: ('A' for Active; 'I' for Inactive)
REMARK    1  A    between atoms: O_1  and  N_2
REMARK    2  A    between atoms: C_3  and  C_14
REMARK    3  A    between atoms: N_4  and  C_5
REMARK    4  A    between atoms: C_19  and  O_20
REMARK    5  A    between atoms: O_20  and  C_21
REMARK                            x       y       z     vdW  Elec       q    Type
REMARK                         _______ _______ _______ _____ _____    ______ ____
ROOT
ATOM      1  N   UNL     1       1.208   9.248  21.106  0.00  0.00    +0.000 NA
ATOM      2  C   UNL     1       0.963   9.086  19.830  0.00  0.00    +0.000 C 
ATOM      3  N   UNL     1       1.389   8.024  19.018  0.00  0.00    +0.000 N 
ATOM      4  H   UNL     1       1.221   8.115  18.019  0.00  0.00    +0.000 HD
ENDROOT
BRANCH   3   5
ATOM      5  C   UNL     1       2.536   7.166  19.337  0.00  0.00    +0.000 C 
ATOM      6  C   UNL     1       3.471   7.057  18.107  0.00  0.00    +0.000 C 
ATOM      7  C   UNL     1       4.143   5.685  18.169  0.00  0.00    +0.000 C 
ATOM      8  C   UNL     1       3.082   4.877  18.842  0.00  0.00    +0.000 A 
ATOM      9  C   UNL     1       3.012   3.493  18.898  0.00  0.00    +0.000 A 
ATOM     10  C   UNL     1       2.080   2.915  19.753  0.00  0.00    +0.000 A 
ATOM     11  C   UNL     1       1.271   3.728  20.564  0.00  0.00    +0.000 A 
ATOM     12  C   UNL     1       1.332   5.127  20.478  0.00  0.00    +0.000 A 
ATOM     13  C   UNL     1       2.207   5.704  19.567  0.00  0.00    +0.000 A 
ENDBRANCH   3   5
BRANCH   2  14
ATOM     14  C   UNL     1       0.095  10.225  19.275  0.00  0.00    +0.000 A 
ATOM     15  C   UNL     1      -0.677   9.923  18.123  0.00  0.00    +0.000 A 
ATOM     16  C   UNL     1      -1.602  10.822  17.585  0.00  0.00    +0.000 A 
ATOM     17  C   UNL     1      -1.724  12.045  18.186  0.00  0.00    +0.000 A 
ATOM     18  N   UNL     1      -0.981  12.402  19.246  0.00  0.00    +0.000 NA
ATOM     19  C   UNL     1      -0.103  11.500  19.798  0.00  0.00    +0.000 A 
BRANCH  19  20
ATOM     20  O   UNL     1       0.536  11.917  20.965  0.00  0.00    +0.000 OA
BRANCH  20  21
ATOM     21  C   UNL     1      -0.338  12.362  21.952  0.00  0.00    +0.000 A 
ATOM     22  C   UNL     1      -1.326  11.487  22.435  0.00  0.00    +0.000 A 
ATOM     23  C   UNL     1      -2.342  11.967  23.261  0.00  0.00    +0.000 A 
ATOM     24  C   UNL     1      -2.334  13.302  23.649  0.00  0.00    +0.000 A 
ATOM     25  F   UNL     1      -3.326  13.765  24.423  0.00  0.00    +0.000 F 
ATOM     26  C   UNL     1      -1.326  14.169  23.231  0.00  0.00    +0.000 A 
ATOM     27  C   UNL     1      -0.326  13.699  22.377  0.00  0.00    +0.000 A 
ATOM     28 CL   UNL     1       0.862  14.810  21.807  0.00  0.00    +0.000 Cl
ENDBRANCH  20  21
ENDBRANCH  19  20
ENDBRANCH   2  14
BRANCH   1  29
ATOM     29  O   UNL     1       1.906   8.231  21.734  0.00  0.00    +0.000 OA
ATOM     30  H   UNL     1       1.988   8.554  22.647  0.00  0.00    +0.000 HD
ENDBRANCH   1  29
TORSDOF 5
ENDMDL
