MODEL 1
REMARK VINA RESULT:      -9.9      0.000      0.000
REMARK  Name = 
REMARK  7 active torsions:
REMARK  status: ('A' for Active; 'I' for Inactive)
REMARK    1  A    between atoms: C_1  and  C_2
REMARK    2  A    between atoms: N_4  and  C_5
REMARK    3  A    between atoms: C_5  and  C_6
REMARK    4  A    between atoms: C_10  and  C_11
REMARK    5  A    between atoms: C_14  and  C_15
REMARK    6  A    between atoms: C_20  and  C_21
REMARK    7  A    between atoms: C_28  and  C_29
REMARK                            x       y       z     vdW  Elec       q    Type
REMARK                         _______ _______ _______ _____ _____    ______ ____
ROOT
ATOM      1  C   UNL     1       2.149   7.929  19.059  0.00  0.00    +0.000 A 
ATOM      2  C   UNL     1       2.971   8.134  17.956  0.00  0.00    +0.000 A 
ATOM      3  C   UNL     1       3.806   7.122  17.503  0.00  0.00    +0.000 A 
ATOM      4  C   UNL     1       3.943   5.904  18.202  0.00  0.00    +0.000 A 
ATOM      5  C   UNL     1       4.854   4.870  17.836  0.00  0.00    +0.000 A 
ATOM      6  C   UNL     1       4.906   3.721  18.629  0.00  0.00    +0.000 A 
ATOM      7  C   UNL     1       4.065   3.630  19.725  0.00  0.00    +0.000 A 
ATOM      8  N   UNL     1       3.179   4.591  20.089  0.00  0.00    +0.000 NA
ATOM      9  C   UNL     1       3.127   5.703  19.343  0.00  0.00    +0.000 A 
ATOM     10  C   UNL     1       2.231   6.700  19.727  0.00  0.00    +0.000 A 
ENDROOT
BRANCH   5  11
ATOM     11  C   UNL     1       5.771   4.994  16.680  0.00  0.00    +0.000 A 
ATOM     12  C   UNL     1       6.903   5.774  16.511  0.00  0.00    +0.000 A 
ATOM     13  N   UNL     1       7.515   5.721  15.276  0.00  0.00    +0.000 NA
ATOM     14  C   UNL     1       6.892   4.845  14.510  0.00  0.00    +0.000 A 
ATOM     15  S   UNL     1       5.521   4.096  15.231  0.00  0.00    +0.000 S 
BRANCH  14  16
ATOM     16  C   UNL     1       7.308   4.478  13.120  0.00  0.00    +0.000 C 
ATOM     17  F   UNL     1       6.253   4.037  12.380  0.00  0.00    +0.000 F 
ATOM     18  F   UNL     1       7.832   5.539  12.445  0.00  0.00    +0.000 F 
ENDBRANCH  14  16
ENDBRANCH   5  11
BRANCH   7  19
ATOM     19  C   UNL     1       4.133   2.420  20.607  0.00  0.00    +0.000 C 
ATOM     20  N   UNL     1       5.107   1.512  20.295  0.00  0.00    +0.000 N 
ATOM     21  O   UNL     1       3.363   2.246  21.545  0.00  0.00    +0.000 OA
ATOM     22  H   UNL     1       5.727   1.685  19.513  0.00  0.00    +0.000 HD
ATOM     23  H   UNL     1       5.200   0.673  20.849  0.00  0.00    +0.000 HD
ENDBRANCH   7  19
BRANCH   1  24
ATOM     24  C   UNL     1       1.206   9.020  19.511  0.00  0.00    +0.000 C 
BRANCH  24  28
ATOM     25  C   UNL     1      -0.503  13.015  20.627  0.00  0.00    +0.000 C 
ATOM     26  C   UNL     1      -0.407  11.638  19.988  0.00  0.00    +0.000 C 
ATOM     27  C   UNL     1       0.913  11.477  19.204  0.00  0.00    +0.000 C 
ATOM     28  N   UNL     1       1.051  10.145  18.569  0.00  0.00    +0.000 NA
ATOM     29  C   UNL     1      -0.156   9.949  17.719  0.00  0.00    +0.000 C 
ATOM     30  C   UNL     1      -1.497  10.164  18.462  0.00  0.00    +0.000 C 
ATOM     31  O   UNL     1      -1.525  11.465  19.104  0.00  0.00    +0.000 OA
BRANCH  30  32
ATOM     32  C   UNL     1      -2.683   9.968  17.504  0.00  0.00    +0.000 C 
ATOM     33  F   UNL     1      -3.585   9.075  17.969  0.00  0.00    +0.000 F 
ATOM     34  F   UNL     1      -3.343  11.142  17.334  0.00  0.00    +0.000 F 
ATOM     35  F   UNL     1      -2.298   9.551  16.278  0.00  0.00    +0.000 F 
ENDBRANCH  30  32
ENDBRANCH  24  28
ENDBRANCH   1  24
TORSDOF 6
ENDMDL
MODEL 2
REMARK VINA RESULT:      -9.2      1.098      1.186
REMARK  Name = 
REMARK  7 active torsions:
REMARK  status: ('A' for Active; 'I' for Inactive)
REMARK    1  A    between atoms: C_1  and  C_2
REMARK    2  A    between atoms: N_4  and  C_5
REMARK    3  A    between atoms: C_5  and  C_6
REMARK    4  A    between atoms: C_10  and  C_11
REMARK    5  A    between atoms: C_14  and  C_15
REMARK    6  A    between atoms: C_20  and  C_21
REMARK    7  A    between atoms: C_28  and  C_29
REMARK                            x       y       z     vdW  Elec       q    Type
REMARK                         _______ _______ _______ _____ _____    ______ ____
ROOT
ATOM      1  C   UNL     1       1.868   8.169  19.249  0.00  0.00    +0.000 A 
ATOM      2  C   UNL     1       2.794   8.171  18.211  0.00  0.00    +0.000 A 
ATOM      3  C   UNL     1       3.522   7.027  17.916  0.00  0.00    +0.000 A 
ATOM      4  C   UNL     1       3.442   5.868  18.718  0.00  0.00    +0.000 A 
ATOM      5  C   UNL     1       4.235   4.701  18.516  0.00  0.00    +0.000 A 
ATOM      6  C   UNL     1       4.073   3.629  19.398  0.00  0.00    +0.000 A 
ATOM      7  C   UNL     1       3.144   3.742  20.418  0.00  0.00    +0.000 A 
ATOM      8  N   UNL     1       2.366   4.834  20.625  0.00  0.00    +0.000 NA
ATOM      9  C   UNL     1       2.519   5.873  19.793  0.00  0.00    +0.000 A 
ATOM     10  C   UNL     1       1.735   7.004  20.016  0.00  0.00    +0.000 A 
ENDROOT
BRANCH   5  11
ATOM     11  C   UNL     1       5.249   4.606  17.441  0.00  0.00    +0.000 A 
ATOM     12  C   UNL     1       6.622   4.783  17.482  0.00  0.00    +0.000 A 
ATOM     13  N   UNL     1       7.296   4.695  16.282  0.00  0.00    +0.000 NA
ATOM     14  C   UNL     1       6.449   4.380  15.321  0.00  0.00    +0.000 A 
ATOM     15  S   UNL     1       4.808   4.233  15.817  0.00  0.00    +0.000 S 
BRANCH  14  16
ATOM     16  C   UNL     1       6.829   4.141  13.892  0.00  0.00    +0.000 C 
ATOM     17  F   UNL     1       5.733   3.936  13.109  0.00  0.00    +0.000 F 
ATOM     18  F   UNL     1       7.490   5.204  13.354  0.00  0.00    +0.000 F 
ENDBRANCH  14  16
ENDBRANCH   5  11
BRANCH   7  19
ATOM     19  C   UNL     1       2.982   2.616  21.395  0.00  0.00    +0.000 C 
ATOM     20  N   UNL     1       1.755   2.522  21.994  0.00  0.00    +0.000 N 
ATOM     21  O   UNL     1       3.888   1.831  21.650  0.00  0.00    +0.000 OA
ATOM     22  H   UNL     1       1.028   3.186  21.762  0.00  0.00    +0.000 HD
ATOM     23  H   UNL     1       1.586   1.787  22.666  0.00  0.00    +0.000 HD
ENDBRANCH   7  19
BRANCH   1  24
ATOM     24  C   UNL     1       1.044   9.405  19.528  0.00  0.00    +0.000 C 
BRANCH  24  28
ATOM     25  C   UNL     1       0.041  13.760  19.921  0.00  0.00    +0.000 C 
ATOM     26  C   UNL     1      -0.136  12.283  19.602  0.00  0.00    +0.000 C 
ATOM     27  C   UNL     1       1.013  11.761  18.714  0.00  0.00    +0.000 C 
ATOM     28  N   UNL     1       0.882  10.322  18.383  0.00  0.00    +0.000 NA
ATOM     29  C   UNL     1      -0.459  10.145  17.761  0.00  0.00    +0.000 C 
ATOM     30  C   UNL     1      -1.628  10.715  18.601  0.00  0.00    +0.000 C 
ATOM     31  O   UNL     1      -1.393  12.108  18.930  0.00  0.00    +0.000 OA
BRANCH  30  32
ATOM     32  C   UNL     1      -2.966  10.512  17.871  0.00  0.00    +0.000 C 
ATOM     33  F   UNL     1      -4.003  11.092  18.516  0.00  0.00    +0.000 F 
ATOM     34  F   UNL     1      -2.909  11.070  16.634  0.00  0.00    +0.000 F 
ATOM     35  F   UNL     1      -3.274   9.208  17.701  0.00  0.00    +0.000 F 
ENDBRANCH  30  32
ENDBRANCH  24  28
ENDBRANCH   1  24
TORSDOF 6
ENDMDL
MODEL 3
REMARK VINA RESULT:      -9.2      1.313      1.603
REMARK  Name = 
REMARK  7 active torsions:
REMARK  status: ('A' for Active; 'I' for Inactive)
REMARK    1  A    between atoms: C_1  and  C_2
REMARK    2  A    between atoms: N_4  and  C_5
REMARK    3  A    between atoms: C_5  and  C_6
REMARK    4  A    between atoms: C_10  and  C_11
REMARK    5  A    between atoms: C_14  and  C_15
REMARK    6  A    between atoms: C_20  and  C_21
REMARK    7  A    between atoms: C_28  and  C_29
REMARK                            x       y       z     vdW  Elec       q    Type
REMARK                         _______ _______ _______ _____ _____    ______ ____
ROOT
ATOM      1  C   UNL     1       1.338   8.643  19.900  0.00  0.00    +0.000 A 
ATOM      2  C   UNL     1       2.078   8.764  18.729  0.00  0.00    +0.000 A 
ATOM      3  C   UNL     1       2.750   7.668  18.205  0.00  0.00    +0.000 A 
ATOM      4  C   UNL     1       2.809   6.436  18.890  0.00  0.00    +0.000 A 
ATOM      5  C   UNL     1       3.561   5.310  18.445  0.00  0.00    +0.000 A 
ATOM      6  C   UNL     1       3.551   4.154  19.231  0.00  0.00    +0.000 A 
ATOM      7  C   UNL     1       2.805   4.149  20.398  0.00  0.00    +0.000 A 
ATOM      8  N   UNL     1       2.069   5.201  20.837  0.00  0.00    +0.000 NA
ATOM      9  C   UNL     1       2.078   6.319  20.098  0.00  0.00    +0.000 A 
ATOM     10  C   UNL     1       1.339   7.406  20.559  0.00  0.00    +0.000 A 
ENDROOT
BRANCH   5  11
ATOM     11  C   UNL     1       4.381   5.340  17.213  0.00  0.00    +0.000 A 
ATOM     12  C   UNL     1       4.928   6.410  16.523  0.00  0.00    +0.000 A 
ATOM     13  N   UNL     1       5.595   6.118  15.352  0.00  0.00    +0.000 NA
ATOM     14  C   UNL     1       5.624   4.811  15.173  0.00  0.00    +0.000 A 
ATOM     15  S   UNL     1       4.804   3.894  16.376  0.00  0.00    +0.000 S 
BRANCH  14  16
ATOM     16  C   UNL     1       6.313   4.120  14.038  0.00  0.00    +0.000 C 
ATOM     17  F   UNL     1       5.431   3.740  13.072  0.00  0.00    +0.000 F 
ATOM     18  F   UNL     1       7.227   4.925  13.427  0.00  0.00    +0.000 F 
ENDBRANCH  14  16
ENDBRANCH   5  11
BRANCH   7  19
ATOM     19  C   UNL     1       2.812   2.931  21.270  0.00  0.00    +0.000 C 
ATOM     20  N   UNL     1       1.667   2.707  21.987  0.00  0.00    +0.000 N 
ATOM     21  O   UNL     1       3.779   2.182  21.348  0.00  0.00    +0.000 OA
ATOM     22  H   UNL     1       0.885   3.345  21.901  0.00  0.00    +0.000 HD
ATOM     23  H   UNL     1       1.613   1.905  22.598  0.00  0.00    +0.000 HD
ENDBRANCH   7  19
BRANCH   1  24
ATOM     24  C   UNL     1       0.568   9.830  20.433  0.00  0.00    +0.000 C 
BRANCH  24  28
ATOM     25  C   UNL     1      -2.116  13.360  21.110  0.00  0.00    +0.000 C 
ATOM     26  C   UNL     1      -1.589  12.071  20.496  0.00  0.00    +0.000 C 
ATOM     27  C   UNL     1      -0.102  12.208  20.103  0.00  0.00    +0.000 C 
ATOM     28  N   UNL     1       0.454  10.971  19.505  0.00  0.00    +0.000 NA
ATOM     29  C   UNL     1      -0.421  10.620  18.353  0.00  0.00    +0.000 C 
ATOM     30  C   UNL     1      -1.927  10.536  18.704  0.00  0.00    +0.000 C 
ATOM     31  O   UNL     1      -2.376  11.761  19.336  0.00  0.00    +0.000 OA
BRANCH  30  32
ATOM     32  C   UNL     1      -2.753  10.195  17.453  0.00  0.00    +0.000 C 
ATOM     33  F   UNL     1      -2.028   9.553  16.509  0.00  0.00    +0.000 F 
ATOM     34  F   UNL     1      -3.782   9.374  17.785  0.00  0.00    +0.000 F 
ATOM     35  F   UNL     1      -3.294  11.288  16.871  0.00  0.00    +0.000 F 
ENDBRANCH  30  32
ENDBRANCH  24  28
ENDBRANCH   1  24
TORSDOF 6
ENDMDL
MODEL 4
REMARK VINA RESULT:      -9.1      1.662      2.052
REMARK  Name = 
REMARK  7 active torsions:
REMARK  status: ('A' for Active; 'I' for Inactive)
REMARK    1  A    between atoms: C_1  and  C_2
REMARK    2  A    between atoms: N_4  and  C_5
REMARK    3  A    between atoms: C_5  and  C_6
REMARK    4  A    between atoms: C_10  and  C_11
REMARK    5  A    between atoms: C_14  and  C_15
REMARK    6  A    between atoms: C_20  and  C_21
REMARK    7  A    between atoms: C_28  and  C_29
REMARK                            x       y       z     vdW  Elec       q    Type
REMARK                         _______ _______ _______ _____ _____    ______ ____
ROOT
ATOM      1  C   UNL     1       2.000   7.984  18.769  0.00  0.00    +0.000 A 
ATOM      2  C   UNL     1       2.864   8.171  17.695  0.00  0.00    +0.000 A 
ATOM      3  C   UNL     1       3.741   7.166  17.314  0.00  0.00    +0.000 A 
ATOM      4  C   UNL     1       3.876   5.976  18.060  0.00  0.00    +0.000 A 
ATOM      5  C   UNL     1       4.825   4.953  17.768  0.00  0.00    +0.000 A 
ATOM      6  C   UNL     1       4.869   3.832  18.602  0.00  0.00    +0.000 A 
ATOM      7  C   UNL     1       3.985   3.758  19.664  0.00  0.00    +0.000 A 
ATOM      8  N   UNL     1       3.062   4.709  19.957  0.00  0.00    +0.000 NA
ATOM      9  C   UNL     1       3.016   5.794  19.171  0.00  0.00    +0.000 A 
ATOM     10  C   UNL     1       2.082   6.781  19.482  0.00  0.00    +0.000 A 
ENDROOT
BRANCH   5  11
ATOM     11  C   UNL     1       5.789   5.060  16.649  0.00  0.00    +0.000 A 
ATOM     12  C   UNL     1       6.953   5.801  16.533  0.00  0.00    +0.000 A 
ATOM     13  N   UNL     1       7.608   5.744  15.320  0.00  0.00    +0.000 NA
ATOM     14  C   UNL     1       6.983   4.902  14.519  0.00  0.00    +0.000 A 
ATOM     15  S   UNL     1       5.560   4.192  15.177  0.00  0.00    +0.000 S 
BRANCH  14  16
ATOM     16  C   UNL     1       7.437   4.540  13.139  0.00  0.00    +0.000 C 
ATOM     17  F   UNL     1       6.422   4.016  12.398  0.00  0.00    +0.000 F 
ATOM     18  F   UNL     1       7.895   5.623  12.450  0.00  0.00    +0.000 F 
ENDBRANCH  14  16
ENDBRANCH   5  11
BRANCH   7  19
ATOM     19  C   UNL     1       4.042   2.581  20.590  0.00  0.00    +0.000 C 
ATOM     20  N   UNL     1       5.051   1.687  20.352  0.00  0.00    +0.000 N 
ATOM     21  O   UNL     1       3.236   2.418  21.499  0.00  0.00    +0.000 OA
ATOM     22  H   UNL     1       5.700   1.849  19.592  0.00  0.00    +0.000 HD
ATOM     23  H   UNL     1       5.138   0.870  20.938  0.00  0.00    +0.000 HD
ENDBRANCH   7  19
BRANCH   1  24
ATOM     24  C   UNL     1       1.014   9.066  19.143  0.00  0.00    +0.000 C 
BRANCH  24  28
ATOM     25  C   UNL     1      -0.763  10.067  23.138  0.00  0.00    +0.000 C 
ATOM     26  C   UNL     1      -0.383  10.218  21.673  0.00  0.00    +0.000 C 
ATOM     27  C   UNL     1       1.127   9.979  21.460  0.00  0.00    +0.000 C 
ATOM     28  N   UNL     1       1.540  10.111  20.043  0.00  0.00    +0.000 NA
ATOM     29  C   UNL     1       1.097  11.458  19.591  0.00  0.00    +0.000 C 
ATOM     30  C   UNL     1      -0.401  11.752  19.848  0.00  0.00    +0.000 C 
ATOM     31  O   UNL     1      -0.734  11.543  21.244  0.00  0.00    +0.000 OA
BRANCH  30  32
ATOM     32  C   UNL     1      -0.761  13.170  19.375  0.00  0.00    +0.000 C 
ATOM     33  F   UNL     1      -1.980  13.568  19.806  0.00  0.00    +0.000 F 
ATOM     34  F   UNL     1       0.139  14.064  19.860  0.00  0.00    +0.000 F 
ATOM     35  F   UNL     1      -0.750  13.290  18.030  0.00  0.00    +0.000 F 
ENDBRANCH  30  32
ENDBRANCH  24  28
ENDBRANCH   1  24
TORSDOF 6
ENDMDL
MODEL 5
REMARK VINA RESULT:      -9.1      2.190      2.588
REMARK  Name = 
REMARK  7 active torsions:
REMARK  status: ('A' for Active; 'I' for Inactive)
REMARK    1  A    between atoms: C_1  and  C_2
REMARK    2  A    between atoms: N_4  and  C_5
REMARK    3  A    between atoms: C_5  and  C_6
REMARK    4  A    between atoms: C_10  and  C_11
REMARK    5  A    between atoms: C_14  and  C_15
REMARK    6  A    between atoms: C_20  and  C_21
REMARK    7  A    between atoms: C_28  and  C_29
REMARK                            x       y       z     vdW  Elec       q    Type
REMARK                         _______ _______ _______ _____ _____    ______ ____
ROOT
ATOM      1  C   UNL     1       2.463   8.262  18.572  0.00  0.00    +0.000 A 
ATOM      2  C   UNL     1       3.281   8.323  17.448  0.00  0.00    +0.000 A 
ATOM      3  C   UNL     1       4.000   7.209  17.040  0.00  0.00    +0.000 A 
ATOM      4  C   UNL     1       4.026   6.022  17.802  0.00  0.00    +0.000 A 
ATOM      5  C   UNL     1       4.819   4.882  17.480  0.00  0.00    +0.000 A 
ATOM      6  C   UNL     1       4.768   3.777  18.334  0.00  0.00    +0.000 A 
ATOM      7  C   UNL     1       3.944   3.830  19.445  0.00  0.00    +0.000 A 
ATOM      8  N   UNL     1       3.168   4.896  19.768  0.00  0.00    +0.000 NA
ATOM      9  C   UNL     1       3.214   5.966  18.963  0.00  0.00    +0.000 A 
ATOM     10  C   UNL     1       2.433   7.069  19.305  0.00  0.00    +0.000 A 
ENDROOT
BRANCH   5  11
ATOM     11  C   UNL     1       5.722   4.850  16.307  0.00  0.00    +0.000 A 
ATOM     12  C   UNL     1       6.979   5.402  16.125  0.00  0.00    +0.000 A 
ATOM     13  N   UNL     1       7.547   5.257  14.877  0.00  0.00    +0.000 NA
ATOM     14  C   UNL     1       6.754   4.530  14.112  0.00  0.00    +0.000 A 
ATOM     15  S   UNL     1       5.278   4.043  14.850  0.00  0.00    +0.000 S 
BRANCH  14  16
ATOM     16  C   UNL     1       7.067   4.116  12.708  0.00  0.00    +0.000 C 
ATOM     17  F   UNL     1       5.940   3.785  12.019  0.00  0.00    +0.000 F 
ATOM     18  F   UNL     1       7.668   5.114  12.001  0.00  0.00    +0.000 F 
ENDBRANCH  14  16
ENDBRANCH   5  11
BRANCH   7  19
ATOM     19  C   UNL     1       3.905   2.668  20.390  0.00  0.00    +0.000 C 
ATOM     20  N   UNL     1       4.935   1.775  20.276  0.00  0.00    +0.000 N 
ATOM     21  O   UNL     1       3.006   2.517  21.211  0.00  0.00    +0.000 OA
ATOM     22  H   UNL     1       5.662   1.928  19.588  0.00  0.00    +0.000 HD
ATOM     23  H   UNL     1       4.962   0.968  20.882  0.00  0.00    +0.000 HD
ENDBRANCH   7  19
BRANCH   1  24
ATOM     24  C   UNL     1       1.645   9.467  18.977  0.00  0.00    +0.000 C 
BRANCH  24  28
ATOM     25  C   UNL     1      -1.460  12.699  19.165  0.00  0.00    +0.000 C 
ATOM     26  C   UNL     1      -0.546  11.577  19.633  0.00  0.00    +0.000 C 
ATOM     27  C   UNL     1      -0.679  10.334  18.727  0.00  0.00    +0.000 C 
ATOM     28  N   UNL     1       0.200   9.216  19.144  0.00  0.00    +0.000 NA
ATOM     29  C   UNL     1      -0.116   8.932  20.571  0.00  0.00    +0.000 C 
ATOM     30  C   UNL     1      -0.051  10.172  21.495  0.00  0.00    +0.000 C 
ATOM     31  O   UNL     1      -0.892  11.238  20.984  0.00  0.00    +0.000 OA
BRANCH  30  32
ATOM     32  C   UNL     1      -0.417   9.790  22.939  0.00  0.00    +0.000 C 
ATOM     33  F   UNL     1      -1.130   8.643  23.007  0.00  0.00    +0.000 F 
ATOM     34  F   UNL     1       0.712   9.595  23.668  0.00  0.00    +0.000 F 
ATOM     35  F   UNL     1      -1.132  10.748  23.567  0.00  0.00    +0.000 F 
ENDBRANCH  30  32
ENDBRANCH  24  28
ENDBRANCH   1  24
TORSDOF 6
ENDMDL
MODEL 6
REMARK VINA RESULT:      -9.1      1.242      1.601
REMARK  Name = 
REMARK  7 active torsions:
REMARK  status: ('A' for Active; 'I' for Inactive)
REMARK    1  A    between atoms: C_1  and  C_2
REMARK    2  A    between atoms: N_4  and  C_5
REMARK    3  A    between atoms: C_5  and  C_6
REMARK    4  A    between atoms: C_10  and  C_11
REMARK    5  A    between atoms: C_14  and  C_15
REMARK    6  A    between atoms: C_20  and  C_21
REMARK    7  A    between atoms: C_28  and  C_29
REMARK                            x       y       z     vdW  Elec       q    Type
REMARK                         _______ _______ _______ _____ _____    ______ ____
ROOT
ATOM      1  C   UNL     1       2.192   8.006  18.947  0.00  0.00    +0.000 A 
ATOM      2  C   UNL     1       3.010   8.176  17.835  0.00  0.00    +0.000 A 
ATOM      3  C   UNL     1       3.824   7.141  17.396  0.00  0.00    +0.000 A 
ATOM      4  C   UNL     1       3.944   5.934  18.116  0.00  0.00    +0.000 A 
ATOM      5  C   UNL     1       4.833   4.877  17.763  0.00  0.00    +0.000 A 
ATOM      6  C   UNL     1       4.870   3.741  18.577  0.00  0.00    +0.000 A 
ATOM      7  C   UNL     1       4.035   3.686  19.680  0.00  0.00    +0.000 A 
ATOM      8  N   UNL     1       3.169   4.670  20.032  0.00  0.00    +0.000 NA
ATOM      9  C   UNL     1       3.132   5.769  19.266  0.00  0.00    +0.000 A 
ATOM     10  C   UNL     1       2.257   6.788  19.637  0.00  0.00    +0.000 A 
ENDROOT
BRANCH   5  11
ATOM     11  C   UNL     1       5.745   4.963  16.599  0.00  0.00    +0.000 A 
ATOM     12  C   UNL     1       6.903   5.701  16.417  0.00  0.00    +0.000 A 
ATOM     13  N   UNL     1       7.502   5.621  15.177  0.00  0.00    +0.000 NA
ATOM     14  C   UNL     1       6.841   4.764  14.421  0.00  0.00    +0.000 A 
ATOM     15  S   UNL     1       5.450   4.068  15.156  0.00  0.00    +0.000 S 
BRANCH  14  16
ATOM     16  C   UNL     1       7.233   4.376  13.029  0.00  0.00    +0.000 C 
ATOM     17  F   UNL     1       6.159   3.955  12.305  0.00  0.00    +0.000 F 
ATOM     18  F   UNL     1       7.774   5.420  12.339  0.00  0.00    +0.000 F 
ENDBRANCH  14  16
ENDBRANCH   5  11
BRANCH   7  19
ATOM     19  C   UNL     1       4.087   2.492  20.584  0.00  0.00    +0.000 C 
ATOM     20  N   UNL     1       5.070   1.581  20.308  0.00  0.00    +0.000 N 
ATOM     21  O   UNL     1       3.297   2.331  21.508  0.00  0.00    +0.000 OA
ATOM     22  H   UNL     1       5.706   1.742  19.537  0.00  0.00    +0.000 HD
ATOM     23  H   UNL     1       5.153   0.752  20.878  0.00  0.00    +0.000 HD
ENDBRANCH   7  19
BRANCH   1  24
ATOM     24  C   UNL     1       1.272   9.122  19.385  0.00  0.00    +0.000 C 
BRANCH  24  28
ATOM     25  C   UNL     1       2.631  13.393  19.200  0.00  0.00    +0.000 C 
ATOM     26  C   UNL     1       1.701  12.204  19.387  0.00  0.00    +0.000 C 
ATOM     27  C   UNL     1       1.771  11.246  18.178  0.00  0.00    +0.000 C 
ATOM     28  N   UNL     1       0.883  10.068  18.321  0.00  0.00    +0.000 NA
ATOM     29  C   UNL     1      -0.489  10.592  18.568  0.00  0.00    +0.000 C 
ATOM     30  C   UNL     1      -0.580  11.604  19.736  0.00  0.00    +0.000 C 
ATOM     31  O   UNL     1       0.361  12.692  19.548  0.00  0.00    +0.000 OA
BRANCH  30  32
ATOM     32  C   UNL     1      -2.023  12.111  19.899  0.00  0.00    +0.000 C 
ATOM     33  F   UNL     1      -2.512  11.896  21.141  0.00  0.00    +0.000 F 
ATOM     34  F   UNL     1      -2.072  13.450  19.683  0.00  0.00    +0.000 F 
ATOM     35  F   UNL     1      -2.878  11.538  19.024  0.00  0.00    +0.000 F 
ENDBRANCH  30  32
ENDBRANCH  24  28
ENDBRANCH   1  24
TORSDOF 6
ENDMDL
MODEL 7
REMARK VINA RESULT:      -8.8      2.104      2.550
REMARK  Name = 
REMARK  7 active torsions:
REMARK  status: ('A' for Active; 'I' for Inactive)
REMARK    1  A    between atoms: C_1  and  C_2
REMARK    2  A    between atoms: N_4  and  C_5
REMARK    3  A    between atoms: C_5  and  C_6
REMARK    4  A    between atoms: C_10  and  C_11
REMARK    5  A    between atoms: C_14  and  C_15
REMARK    6  A    between atoms: C_20  and  C_21
REMARK    7  A    between atoms: C_28  and  C_29
REMARK                            x       y       z     vdW  Elec       q    Type
REMARK                         _______ _______ _______ _____ _____    ______ ____
ROOT
ATOM      1  C   UNL     1       2.243   8.289  18.832  0.00  0.00    +0.000 A 
ATOM      2  C   UNL     1       3.085   8.391  17.729  0.00  0.00    +0.000 A 
ATOM      3  C   UNL     1       3.846   7.304  17.323  0.00  0.00    +0.000 A 
ATOM      4  C   UNL     1       3.889   6.107  18.069  0.00  0.00    +0.000 A 
ATOM      5  C   UNL     1       4.724   4.996  17.750  0.00  0.00    +0.000 A 
ATOM      6  C   UNL     1       4.686   3.877  18.587  0.00  0.00    +0.000 A 
ATOM      7  C   UNL     1       3.834   3.890  19.678  0.00  0.00    +0.000 A 
ATOM      8  N   UNL     1       3.019   4.927  19.997  0.00  0.00    +0.000 NA
ATOM      9  C   UNL     1       3.053   6.011  19.209  0.00  0.00    +0.000 A 
ATOM     10  C   UNL     1       2.231   7.084  19.547  0.00  0.00    +0.000 A 
ENDROOT
BRANCH   5  11
ATOM     11  C   UNL     1       5.655   5.008  16.600  0.00  0.00    +0.000 A 
ATOM     12  C   UNL     1       6.868   5.656  16.431  0.00  0.00    +0.000 A 
ATOM     13  N   UNL     1       7.477   5.526  15.200  0.00  0.00    +0.000 NA
ATOM     14  C   UNL     1       6.764   4.718  14.438  0.00  0.00    +0.000 A 
ATOM     15  S   UNL     1       5.314   4.132  15.155  0.00  0.00    +0.000 S 
BRANCH  14  16
ATOM     16  C   UNL     1       7.144   4.296  13.052  0.00  0.00    +0.000 C 
ATOM     17  F   UNL     1       6.060   3.886  12.337  0.00  0.00    +0.000 F 
ATOM     18  F   UNL     1       7.708   5.314  12.343  0.00  0.00    +0.000 F 
ENDBRANCH  14  16
ENDBRANCH   5  11
BRANCH   7  19
ATOM     19  C   UNL     1       3.807   2.714  20.605  0.00  0.00    +0.000 C 
ATOM     20  N   UNL     1       2.682   2.590  21.374  0.00  0.00    +0.000 N 
ATOM     21  O   UNL     1       4.733   1.913  20.681  0.00  0.00    +0.000 OA
ATOM     22  H   UNL     1       1.935   3.268  21.289  0.00  0.00    +0.000 HD
ATOM     23  H   UNL     1       2.606   1.820  22.023  0.00  0.00    +0.000 HD
ENDBRANCH   7  19
BRANCH   1  24
ATOM     24  C   UNL     1       1.379   9.463  19.234  0.00  0.00    +0.000 C 
BRANCH  24  28
ATOM     25  C   UNL     1      -2.083  11.943  17.824  0.00  0.00    +0.000 C 
ATOM     26  C   UNL     1      -1.076  11.318  18.779  0.00  0.00    +0.000 C 
ATOM     27  C   UNL     1      -1.009   9.787  18.596  0.00  0.00    +0.000 C 
ATOM     28  N   UNL     1      -0.034   9.138  19.505  0.00  0.00    +0.000 NA
ATOM     29  C   UNL     1      -0.404   9.542  20.889  0.00  0.00    +0.000 C 
ATOM     30  C   UNL     1      -0.541  11.071  21.089  0.00  0.00    +0.000 C 
ATOM     31  O   UNL     1      -1.465  11.634  20.124  0.00  0.00    +0.000 OA
BRANCH  30  32
ATOM     32  C   UNL     1      -0.950  11.391  22.536  0.00  0.00    +0.000 C 
ATOM     33  F   UNL     1      -0.497  10.473  23.419  0.00  0.00    +0.000 F 
ATOM     34  F   UNL     1      -0.429  12.588  22.911  0.00  0.00    +0.000 F 
ATOM     35  F   UNL     1      -2.288  11.477  22.693  0.00  0.00    +0.000 F 
ENDBRANCH  30  32
ENDBRANCH  24  28
ENDBRANCH   1  24
TORSDOF 6
ENDMDL
MODEL 8
REMARK VINA RESULT:      -8.7      1.991      2.408
REMARK  Name = 
REMARK  7 active torsions:
REMARK  status: ('A' for Active; 'I' for Inactive)
REMARK    1  A    between atoms: C_1  and  C_2
REMARK    2  A    between atoms: N_4  and  C_5
REMARK    3  A    between atoms: C_5  and  C_6
REMARK    4  A    between atoms: C_10  and  C_11
REMARK    5  A    between atoms: C_14  and  C_15
REMARK    6  A    between atoms: C_20  and  C_21
REMARK    7  A    between atoms: C_28  and  C_29
REMARK                            x       y       z     vdW  Elec       q    Type
REMARK                         _______ _______ _______ _____ _____    ______ ____
ROOT
ATOM      1  C   UNL     1       1.895   8.228  18.880  0.00  0.00    +0.000 A 
ATOM      2  C   UNL     1       2.860   8.232  17.879  0.00  0.00    +0.000 A 
ATOM      3  C   UNL     1       3.637   7.106  17.645  0.00  0.00    +0.000 A 
ATOM      4  C   UNL     1       3.565   5.969  18.477  0.00  0.00    +0.000 A 
ATOM      5  C   UNL     1       4.403   4.824  18.341  0.00  0.00    +0.000 A 
ATOM      6  C   UNL     1       4.242   3.773  19.247  0.00  0.00    +0.000 A 
ATOM      7  C   UNL     1       3.271   3.882  20.228  0.00  0.00    +0.000 A 
ATOM      8  N   UNL     1       2.450   4.953  20.372  0.00  0.00    +0.000 NA
ATOM      9  C   UNL     1       2.601   5.972  19.516  0.00  0.00    +0.000 A 
ATOM     10  C   UNL     1       1.772   7.081  19.676  0.00  0.00    +0.000 A 
ENDROOT
BRANCH   5  11
ATOM     11  C   UNL     1       5.461   4.734  17.308  0.00  0.00    +0.000 A 
ATOM     12  C   UNL     1       6.833   4.894  17.411  0.00  0.00    +0.000 A 
ATOM     13  N   UNL     1       7.557   4.816  16.239  0.00  0.00    +0.000 NA
ATOM     14  C   UNL     1       6.748   4.526  15.238  0.00  0.00    +0.000 A 
ATOM     15  S   UNL     1       5.085   4.390  15.661  0.00  0.00    +0.000 S 
BRANCH  14  16
ATOM     16  C   UNL     1       7.185   4.305  13.823  0.00  0.00    +0.000 C 
ATOM     17  F   UNL     1       6.135   3.988  13.016  0.00  0.00    +0.000 F 
ATOM     18  F   UNL     1       7.759   5.418  13.284  0.00  0.00    +0.000 F 
ENDBRANCH  14  16
ENDBRANCH   5  11
BRANCH   7  19
ATOM     19  C   UNL     1       3.109   2.780  21.230  0.00  0.00    +0.000 C 
ATOM     20  N   UNL     1       1.928   2.775  21.922  0.00  0.00    +0.000 N 
ATOM     21  O   UNL     1       3.977   1.937  21.427  0.00  0.00    +0.000 OA
ATOM     22  H   UNL     1       1.232   3.486  21.736  0.00  0.00    +0.000 HD
ATOM     23  H   UNL     1       1.762   2.061  22.615  0.00  0.00    +0.000 HD
ENDBRANCH   7  19
BRANCH   1  24
ATOM     24  C   UNL     1       1.020   9.442  19.091  0.00  0.00    +0.000 C 
BRANCH  24  28
ATOM     25  C   UNL     1      -0.833  10.181  23.109  0.00  0.00    +0.000 C 
ATOM     26  C   UNL     1      -0.423  10.428  21.665  0.00  0.00    +0.000 C 
ATOM     27  C   UNL     1       1.090  10.196  21.466  0.00  0.00    +0.000 C 
ATOM     28  N   UNL     1       1.532  10.421  20.070  0.00  0.00    +0.000 NA
ATOM     29  C   UNL     1       1.102  11.799  19.700  0.00  0.00    +0.000 C 
ATOM     30  C   UNL     1      -0.400  12.081  19.947  0.00  0.00    +0.000 C 
ATOM     31  O   UNL     1      -0.761  11.780  21.319  0.00  0.00    +0.000 OA
BRANCH  30  32
ATOM     32  C   UNL     1      -0.745  13.530  19.563  0.00  0.00    +0.000 C 
ATOM     33  F   UNL     1       0.091  14.430  20.128  0.00  0.00    +0.000 F 
ATOM     34  F   UNL     1      -0.647  13.690  18.219  0.00  0.00    +0.000 F 
ATOM     35  F   UNL     1      -2.004  13.875  19.911  0.00  0.00    +0.000 F 
ENDBRANCH  30  32
ENDBRANCH  24  28
ENDBRANCH   1  24
TORSDOF 6
ENDMDL
MODEL 9
REMARK VINA RESULT:      -8.7      2.371      2.792
REMARK  Name = 
REMARK  7 active torsions:
REMARK  status: ('A' for Active; 'I' for Inactive)
REMARK    1  A    between atoms: C_1  and  C_2
REMARK    2  A    between atoms: N_4  and  C_5
REMARK    3  A    between atoms: C_5  and  C_6
REMARK    4  A    between atoms: C_10  and  C_11
REMARK    5  A    between atoms: C_14  and  C_15
REMARK    6  A    between atoms: C_20  and  C_21
REMARK    7  A    between atoms: C_28  and  C_29
REMARK                            x       y       z     vdW  Elec       q    Type
REMARK                         _______ _______ _______ _____ _____    ______ ____
ROOT
ATOM      1  C   UNL     1       1.970   8.923  18.659  0.00  0.00    +0.000 A 
ATOM      2  C   UNL     1       2.997   8.735  17.740  0.00  0.00    +0.000 A 
ATOM      3  C   UNL     1       3.599   7.491  17.603  0.00  0.00    +0.000 A 
ATOM      4  C   UNL     1       3.282   6.415  18.458  0.00  0.00    +0.000 A 
ATOM      5  C   UNL     1       3.933   5.147  18.424  0.00  0.00    +0.000 A 
ATOM      6  C   UNL     1       3.537   4.173  19.343  0.00  0.00    +0.000 A 
ATOM      7  C   UNL     1       2.524   4.474  20.237  0.00  0.00    +0.000 A 
ATOM      8  N   UNL     1       1.877   5.666  20.283  0.00  0.00    +0.000 NA
ATOM      9  C   UNL     1       2.254   6.613  19.414  0.00  0.00    +0.000 A 
ATOM     10  C   UNL     1       1.604   7.844  19.474  0.00  0.00    +0.000 A 
ENDROOT
BRANCH   5  11
ATOM     11  C   UNL     1       5.038   4.849  17.484  0.00  0.00    +0.000 A 
ATOM     12  C   UNL     1       6.402   4.742  17.706  0.00  0.00    +0.000 A 
ATOM     13  N   UNL     1       7.195   4.519  16.599  0.00  0.00    +0.000 NA
ATOM     14  C   UNL     1       6.435   4.386  15.529  0.00  0.00    +0.000 A 
ATOM     15  S   UNL     1       4.747   4.577  15.807  0.00  0.00    +0.000 S 
BRANCH  14  16
ATOM     16  C   UNL     1       6.942   4.078  14.154  0.00  0.00    +0.000 C 
ATOM     17  F   UNL     1       5.971   3.529  13.373  0.00  0.00    +0.000 F 
ATOM     18  F   UNL     1       7.370   5.196  13.503  0.00  0.00    +0.000 F 
ENDBRANCH  14  16
ENDBRANCH   5  11
BRANCH   7  19
ATOM     19  C   UNL     1       2.111   3.453  21.254  0.00  0.00    +0.000 C 
ATOM     20  N   UNL     1       1.050   2.663  20.904  0.00  0.00    +0.000 N 
ATOM     21  O   UNL     1       2.678   3.333  22.334  0.00  0.00    +0.000 OA
ATOM     22  H   UNL     1       0.602   2.788  20.005  0.00  0.00    +0.000 HD
ATOM     23  H   UNL     1       0.720   1.960  21.550  0.00  0.00    +0.000 HD
ENDBRANCH   7  19
BRANCH   1  24
ATOM     24  C   UNL     1       1.288  10.269  18.763  0.00  0.00    +0.000 C 
BRANCH  24  28
ATOM     25  C   UNL     1      -1.174  13.772  20.100  0.00  0.00    +0.000 C 
ATOM     26  C   UNL     1      -0.457  12.431  20.162  0.00  0.00    +0.000 C 
ATOM     27  C   UNL     1      -0.851  11.532  18.970  0.00  0.00    +0.000 C 
ATOM     28  N   UNL     1      -0.170  10.216  18.988  0.00  0.00    +0.000 NA
ATOM     29  C   UNL     1      -0.470   9.595  20.307  0.00  0.00    +0.000 C 
ATOM     30  C   UNL     1      -0.143  10.498  21.522  0.00  0.00    +0.000 C 
ATOM     31  O   UNL     1      -0.800  11.785  21.397  0.00  0.00    +0.000 OA
BRANCH  30  32
ATOM     32  C   UNL     1      -0.509   9.788  22.836  0.00  0.00    +0.000 C 
ATOM     33  F   UNL     1       0.552   9.643  23.661  0.00  0.00    +0.000 F 
ATOM     34  F   UNL     1      -1.438  10.511  23.512  0.00  0.00    +0.000 F 
ATOM     35  F   UNL     1      -1.034   8.560  22.636  0.00  0.00    +0.000 F 
ENDBRANCH  30  32
ENDBRANCH  24  28
ENDBRANCH   1  24
TORSDOF 6
ENDMDL
