MODEL 1
REMARK VINA RESULT:      -7.2      0.000      0.000
REMARK  Name = 
REMARK  4 active torsions:
REMARK  status: ('A' for Active; 'I' for Inactive)
REMARK    1  A    between atoms: C_1  and  C_2
REMARK    2  A    between atoms: C_4  and  C_5
REMARK    3  A    between atoms: C_13  and  C_15
REMARK    4  A    between atoms: C_19  and  C_20
REMARK                            x       y       z     vdW  Elec       q    Type
REMARK                         _______ _______ _______ _____ _____    ______ ____
ROOT
ATOM      1  C   UNL     1      -7.668  10.196  20.750  0.00  0.00    +0.000 C 
ATOM      2  C   UNL     1      -6.981  11.442  20.277  0.00  0.00    +0.000 A 
ATOM      3  C   UNL     1      -7.531  12.246  19.308  0.00  0.00    +0.000 A 
ATOM      4  C   UNL     1      -6.820  13.375  18.976  0.00  0.00    +0.000 A 
ATOM      5  C   UNL     1      -7.312  14.353  17.954  0.00  0.00    +0.000 C 
ATOM      6  N   UNL     1      -5.651  13.695  19.566  0.00  0.00    +0.000 NA
ATOM      7  C   UNL     1      -5.182  12.878  20.515  0.00  0.00    +0.000 A 
ATOM      8  N   UNL     1      -4.019  13.225  21.178  0.00  0.00    +0.000 N 
ATOM      9  C   UNL     1      -3.935  12.726  22.540  0.00  0.00    +0.000 C 
ATOM     10  C   UNL     1      -2.890  13.615  23.224  0.00  0.00    +0.000 C 
ATOM     11  C   UNL     1      -1.583  12.868  23.452  0.00  0.00    +0.000 C 
ATOM     12  N   UNL     1      -0.797  13.137  22.269  0.00  0.00    +0.000 N 
ATOM     13  C   UNL     1       0.042  12.172  21.737  0.00  0.00    +0.000 C 
ATOM     14  O   UNL     1       0.174  11.074  22.271  0.00  0.00    +0.000 OA
ATOM     15  C   UNL     1      -1.162  14.421  21.698  0.00  0.00    +0.000 C 
ATOM     16  C   UNL     1      -2.562  14.735  22.220  0.00  0.00    +0.000 C 
ATOM     17  C   UNL     1      -3.627  14.623  21.125  0.00  0.00    +0.000 C 
ATOM     18  N   UNL     1      -5.813  11.745  20.879  0.00  0.00    +0.000 NA
ENDROOT
BRANCH  13  19
ATOM     19  C   UNL     1       0.757  12.503  20.521  0.00  0.00    +0.000 A 
ATOM     20  C   UNL     1       1.968  13.204  20.344  0.00  0.00    +0.000 A 
ATOM     21  N   UNL     1       2.331  13.299  19.067  0.00  0.00    +0.000 NA
ATOM     22  O   UNL     1       1.342  12.633  18.364  0.00  0.00    +0.000 OA
ATOM     23  C   UNL     1       0.393  12.161  19.229  0.00  0.00    +0.000 A 
BRANCH  23  24
ATOM     24  C   UNL     1      -0.754  11.514  18.600  0.00  0.00    +0.000 A 
ATOM     25  C   UNL     1      -2.031  12.107  18.635  0.00  0.00    +0.000 A 
ATOM     26  C   UNL     1      -3.133  11.461  18.061  0.00  0.00    +0.000 A 
ATOM     27  C   UNL     1      -2.974  10.228  17.434  0.00  0.00    +0.000 A 
ATOM     28  C   UNL     1      -1.717   9.633  17.385  0.00  0.00    +0.000 A 
ATOM     29  C   UNL     1      -0.622  10.272  17.972  0.00  0.00    +0.000 A 
ENDBRANCH  23  24
ENDBRANCH  13  19
TORSDOF 2
ENDMDL
MODEL 2
REMARK VINA RESULT:      -6.8      2.482      6.253
REMARK  Name = 
REMARK  4 active torsions:
REMARK  status: ('A' for Active; 'I' for Inactive)
REMARK    1  A    between atoms: C_1  and  C_2
REMARK    2  A    between atoms: C_4  and  C_5
REMARK    3  A    between atoms: C_13  and  C_15
REMARK    4  A    between atoms: C_19  and  C_20
REMARK                            x       y       z     vdW  Elec       q    Type
REMARK                         _______ _______ _______ _____ _____    ______ ____
ROOT
ATOM      1  C   UNL     1       2.308  13.024  17.825  0.00  0.00    +0.000 C 
ATOM      2  C   UNL     1       1.611  12.005  18.675  0.00  0.00    +0.000 A 
ATOM      3  C   UNL     1       1.907  10.667  18.587  0.00  0.00    +0.000 A 
ATOM      4  C   UNL     1       1.220   9.832  19.437  0.00  0.00    +0.000 A 
ATOM      5  C   UNL     1       1.458   8.354  19.465  0.00  0.00    +0.000 C 
ATOM      6  N   UNL     1       0.310  10.288  20.321  0.00  0.00    +0.000 NA
ATOM      7  C   UNL     1       0.084  11.605  20.366  0.00  0.00    +0.000 A 
ATOM      8  N   UNL     1      -0.797  12.097  21.313  0.00  0.00    +0.000 N 
ATOM      9  C   UNL     1      -0.508  13.453  21.752  0.00  0.00    +0.000 C 
ATOM     10  C   UNL     1      -1.228  13.595  23.097  0.00  0.00    +0.000 C 
ATOM     11  C   UNL     1      -2.461  14.481  22.981  0.00  0.00    +0.000 C 
ATOM     12  N   UNL     1      -3.542  13.566  22.687  0.00  0.00    +0.000 N 
ATOM     13  C   UNL     1      -4.574  13.932  21.840  0.00  0.00    +0.000 C 
ATOM     14  O   UNL     1      -4.625  15.054  21.343  0.00  0.00    +0.000 OA
ATOM     15  C   UNL     1      -3.265  12.256  23.248  0.00  0.00    +0.000 C 
ATOM     16  C   UNL     1      -1.753  12.191  23.450  0.00  0.00    +0.000 C 
ATOM     17  C   UNL     1      -1.076  11.243  22.455  0.00  0.00    +0.000 C 
ATOM     18  N   UNL     1       0.704  12.480  19.553  0.00  0.00    +0.000 NA
ENDROOT
BRANCH  13  19
ATOM     19  C   UNL     1      -5.592  12.941  21.557  0.00  0.00    +0.000 A 
ATOM     20  C   UNL     1      -6.710  12.546  22.321  0.00  0.00    +0.000 A 
ATOM     21  N   UNL     1      -7.441  11.609  21.723  0.00  0.00    +0.000 NA
ATOM     22  O   UNL     1      -6.805  11.373  20.517  0.00  0.00    +0.000 OA
ATOM     23  C   UNL     1      -5.692  12.162  20.416  0.00  0.00    +0.000 A 
BRANCH  23  24
ATOM     24  C   UNL     1      -4.881  11.942  19.223  0.00  0.00    +0.000 A 
ATOM     25  C   UNL     1      -5.482  11.753  17.963  0.00  0.00    +0.000 A 
ATOM     26  C   UNL     1      -4.697  11.505  16.829  0.00  0.00    +0.000 A 
ATOM     27  C   UNL     1      -3.309  11.457  16.934  0.00  0.00    +0.000 A 
ATOM     28  C   UNL     1      -2.702  11.649  18.171  0.00  0.00    +0.000 A 
ATOM     29  C   UNL     1      -3.487  11.881  19.304  0.00  0.00    +0.000 A 
ENDBRANCH  23  24
ENDBRANCH  13  19
TORSDOF 2
ENDMDL
MODEL 3
REMARK VINA RESULT:      -6.7      1.057      1.167
REMARK  Name = 
REMARK  4 active torsions:
REMARK  status: ('A' for Active; 'I' for Inactive)
REMARK    1  A    between atoms: C_1  and  C_2
REMARK    2  A    between atoms: C_4  and  C_5
REMARK    3  A    between atoms: C_13  and  C_15
REMARK    4  A    between atoms: C_19  and  C_20
REMARK                            x       y       z     vdW  Elec       q    Type
REMARK                         _______ _______ _______ _____ _____    ______ ____
ROOT
ATOM      1  C   UNL     1      -7.402   9.684  19.785  0.00  0.00    +0.000 C 
ATOM      2  C   UNL     1      -6.842  11.023  19.411  0.00  0.00    +0.000 A 
ATOM      3  C   UNL     1      -7.263  11.693  18.289  0.00  0.00    +0.000 A 
ATOM      4  C   UNL     1      -6.695  12.926  18.065  0.00  0.00    +0.000 A 
ATOM      5  C   UNL     1      -7.076  13.777  16.893  0.00  0.00    +0.000 C 
ATOM      6  N   UNL     1      -5.781  13.464  18.898  0.00  0.00    +0.000 NA
ATOM      7  C   UNL     1      -5.430  12.765  19.982  0.00  0.00    +0.000 A 
ATOM      8  N   UNL     1      -4.545  13.331  20.882  0.00  0.00    +0.000 N 
ATOM      9  C   UNL     1      -4.719  12.884  22.254  0.00  0.00    +0.000 C 
ATOM     10  C   UNL     1      -4.043  13.961  23.110  0.00  0.00    +0.000 C 
ATOM     11  C   UNL     1      -2.727  13.468  23.694  0.00  0.00    +0.000 C 
ATOM     12  N   UNL     1      -1.729  13.851  22.720  0.00  0.00    +0.000 N 
ATOM     13  C   UNL     1      -0.632  13.042  22.470  0.00  0.00    +0.000 C 
ATOM     14  O   UNL     1      -0.453  11.998  23.090  0.00  0.00    +0.000 OA
ATOM     15  C   UNL     1      -2.153  15.035  21.996  0.00  0.00    +0.000 C 
ATOM     16  C   UNL     1      -3.672  15.101  22.144  0.00  0.00    +0.000 C 
ATOM     17  C   UNL     1      -4.396  14.776  20.834  0.00  0.00    +0.000 C 
ATOM     18  N   UNL     1      -5.929  11.545  20.256  0.00  0.00    +0.000 NA
ENDROOT
BRANCH  13  19
ATOM     19  C   UNL     1       0.295  13.472  21.443  0.00  0.00    +0.000 A 
ATOM     20  C   UNL     1       1.333  14.425  21.501  0.00  0.00    +0.000 A 
ATOM     21  N   UNL     1       1.996  14.541  20.353  0.00  0.00    +0.000 NA
ATOM     22  O   UNL     1       1.395  13.631  19.500  0.00  0.00    +0.000 OA
ATOM     23  C   UNL     1       0.370  12.994  20.145  0.00  0.00    +0.000 A 
BRANCH  23  24
ATOM     24  C   UNL     1      -0.403  12.070  19.322  0.00  0.00    +0.000 A 
ATOM     25  C   UNL     1      -1.747  12.339  18.998  0.00  0.00    +0.000 A 
ATOM     26  C   UNL     1      -2.493  11.428  18.237  0.00  0.00    +0.000 A 
ATOM     27  C   UNL     1      -1.906  10.251  17.781  0.00  0.00    +0.000 A 
ATOM     28  C   UNL     1      -0.577   9.975  18.088  0.00  0.00    +0.000 A 
ATOM     29  C   UNL     1       0.160  10.878  18.859  0.00  0.00    +0.000 A 
ENDBRANCH  23  24
ENDBRANCH  13  19
TORSDOF 2
ENDMDL
MODEL 4
REMARK VINA RESULT:      -6.6      1.924      2.504
REMARK  Name = 
REMARK  4 active torsions:
REMARK  status: ('A' for Active; 'I' for Inactive)
REMARK    1  A    between atoms: C_1  and  C_2
REMARK    2  A    between atoms: C_4  and  C_5
REMARK    3  A    between atoms: C_13  and  C_15
REMARK    4  A    between atoms: C_19  and  C_20
REMARK                            x       y       z     vdW  Elec       q    Type
REMARK                         _______ _______ _______ _____ _____    ______ ____
ROOT
ATOM      1  C   UNL     1      -7.690  12.484  22.239  0.00  0.00    +0.000 C 
ATOM      2  C   UNL     1      -6.511  13.224  21.683  0.00  0.00    +0.000 A 
ATOM      3  C   UNL     1      -6.658  14.399  20.987  0.00  0.00    +0.000 A 
ATOM      4  C   UNL     1      -5.500  14.999  20.550  0.00  0.00    +0.000 A 
ATOM      5  C   UNL     1      -5.510  16.294  19.799  0.00  0.00    +0.000 C 
ATOM      6  N   UNL     1      -4.279  14.479  20.792  0.00  0.00    +0.000 NA
ATOM      7  C   UNL     1      -4.208  13.343  21.491  0.00  0.00    +0.000 A 
ATOM      8  N   UNL     1      -2.961  12.832  21.806  0.00  0.00    +0.000 N 
ATOM      9  C   UNL     1      -2.924  12.063  23.040  0.00  0.00    +0.000 C 
ATOM     10  C   UNL     1      -1.447  12.048  23.452  0.00  0.00    +0.000 C 
ATOM     11  C   UNL     1      -0.817  10.681  23.224  0.00  0.00    +0.000 C 
ATOM     12  N   UNL     1      -0.272  10.749  21.886  0.00  0.00    +0.000 N 
ATOM     13  C   UNL     1      -0.285   9.640  21.055  0.00  0.00    +0.000 C 
ATOM     14  O   UNL     1      -0.724   8.559  21.439  0.00  0.00    +0.000 OA
ATOM     15  C   UNL     1       0.086  12.115  21.551  0.00  0.00    +0.000 C 
ATOM     16  C   UNL     1      -0.727  13.008  22.487  0.00  0.00    +0.000 C 
ATOM     17  C   UNL     1      -1.842  13.756  21.751  0.00  0.00    +0.000 C 
ATOM     18  N   UNL     1      -5.298  12.690  21.935  0.00  0.00    +0.000 NA
ENDROOT
BRANCH  13  19
ATOM     19  C   UNL     1       0.234   9.804  19.713  0.00  0.00    +0.000 A 
ATOM     20  C   UNL     1       1.553   9.680  19.230  0.00  0.00    +0.000 A 
ATOM     21  N   UNL     1       1.647   9.885  17.918  0.00  0.00    +0.000 NA
ATOM     22  O   UNL     1       0.352  10.143  17.503  0.00  0.00    +0.000 OA
ATOM     23  C   UNL     1      -0.498  10.103  18.575  0.00  0.00    +0.000 A 
BRANCH  23  24
ATOM     24  C   UNL     1      -1.885  10.448  18.281  0.00  0.00    +0.000 A 
ATOM     25  C   UNL     1      -2.711   9.570  17.552  0.00  0.00    +0.000 A 
ATOM     26  C   UNL     1      -4.030   9.925  17.242  0.00  0.00    +0.000 A 
ATOM     27  C   UNL     1      -4.545  11.148  17.667  0.00  0.00    +0.000 A 
ATOM     28  C   UNL     1      -3.743  12.021  18.394  0.00  0.00    +0.000 A 
ATOM     29  C   UNL     1      -2.422  11.672  18.689  0.00  0.00    +0.000 A 
ENDBRANCH  23  24
ENDBRANCH  13  19
TORSDOF 2
ENDMDL
MODEL 5
REMARK VINA RESULT:      -6.4      3.413      6.211
REMARK  Name = 
REMARK  4 active torsions:
REMARK  status: ('A' for Active; 'I' for Inactive)
REMARK    1  A    between atoms: C_1  and  C_2
REMARK    2  A    between atoms: C_4  and  C_5
REMARK    3  A    between atoms: C_13  and  C_15
REMARK    4  A    between atoms: C_19  and  C_20
REMARK                            x       y       z     vdW  Elec       q    Type
REMARK                         _______ _______ _______ _____ _____    ______ ____
ROOT
ATOM      1  C   UNL     1      -2.810  11.337  17.351  0.00  0.00    +0.000 C 
ATOM      2  C   UNL     1      -1.590  11.368  18.221  0.00  0.00    +0.000 A 
ATOM      3  C   UNL     1      -0.880  10.228  18.510  0.00  0.00    +0.000 A 
ATOM      4  C   UNL     1       0.237  10.386  19.298  0.00  0.00    +0.000 A 
ATOM      5  C   UNL     1       1.116   9.234  19.672  0.00  0.00    +0.000 C 
ATOM      6  N   UNL     1       0.631  11.590  19.760  0.00  0.00    +0.000 NA
ATOM      7  C   UNL     1      -0.096  12.661  19.426  0.00  0.00    +0.000 A 
ATOM      8  N   UNL     1       0.332  13.911  19.836  0.00  0.00    +0.000 N 
ATOM      9  C   UNL     1      -0.054  14.996  18.949  0.00  0.00    +0.000 C 
ATOM     10  C   UNL     1       0.913  16.139  19.278  0.00  0.00    +0.000 C 
ATOM     11  C   UNL     1       0.219  17.254  20.049  0.00  0.00    +0.000 C 
ATOM     12  N   UNL     1       0.412  16.910  21.441  0.00  0.00    +0.000 N 
ATOM     13  C   UNL     1      -0.572  17.169  22.381  0.00  0.00    +0.000 C 
ATOM     14  O   UNL     1      -1.619  17.730  22.072  0.00  0.00    +0.000 OA
ATOM     15  C   UNL     1       1.636  16.149  21.611  0.00  0.00    +0.000 C 
ATOM     16  C   UNL     1       1.957  15.549  20.244  0.00  0.00    +0.000 C 
ATOM     17  C   UNL     1       1.731  14.034  20.209  0.00  0.00    +0.000 C 
ATOM     18  N   UNL     1      -1.210  12.580  18.675  0.00  0.00    +0.000 NA
ENDROOT
BRANCH  13  19
ATOM     19  C   UNL     1      -0.322  16.749  23.745  0.00  0.00    +0.000 A 
ATOM     20  C   UNL     1       0.446  17.363  24.755  0.00  0.00    +0.000 A 
ATOM     21  N   UNL     1       0.428  16.688  25.902  0.00  0.00    +0.000 NA
ATOM     22  O   UNL     1      -0.385  15.594  25.661  0.00  0.00    +0.000 OA
ATOM     23  C   UNL     1      -0.830  15.621  24.367  0.00  0.00    +0.000 A 
BRANCH  23  24
ATOM     24  C   UNL     1      -1.629  14.469  23.961  0.00  0.00    +0.000 A 
ATOM     25  C   UNL     1      -2.925  14.268  24.475  0.00  0.00    +0.000 A 
ATOM     26  C   UNL     1      -3.670  13.140  24.108  0.00  0.00    +0.000 A 
ATOM     27  C   UNL     1      -3.140  12.209  23.218  0.00  0.00    +0.000 A 
ATOM     28  C   UNL     1      -1.863  12.398  22.698  0.00  0.00    +0.000 A 
ATOM     29  C   UNL     1      -1.116  13.516  23.077  0.00  0.00    +0.000 A 
ENDBRANCH  23  24
ENDBRANCH  13  19
TORSDOF 2
ENDMDL
MODEL 6
REMARK VINA RESULT:      -6.3      3.130      6.599
REMARK  Name = 
REMARK  4 active torsions:
REMARK  status: ('A' for Active; 'I' for Inactive)
REMARK    1  A    between atoms: C_1  and  C_2
REMARK    2  A    between atoms: C_4  and  C_5
REMARK    3  A    between atoms: C_13  and  C_15
REMARK    4  A    between atoms: C_19  and  C_20
REMARK                            x       y       z     vdW  Elec       q    Type
REMARK                         _______ _______ _______ _____ _____    ______ ____
ROOT
ATOM      1  C   UNL     1      -0.206  16.029  18.288  0.00  0.00    +0.000 C 
ATOM      2  C   UNL     1      -0.325  14.952  19.325  0.00  0.00    +0.000 A 
ATOM      3  C   UNL     1       0.572  13.914  19.393  0.00  0.00    +0.000 A 
ATOM      4  C   UNL     1       0.375  13.002  20.404  0.00  0.00    +0.000 A 
ATOM      5  C   UNL     1       1.289  11.835  20.611  0.00  0.00    +0.000 C 
ATOM      6  N   UNL     1      -0.633  13.113  21.292  0.00  0.00    +0.000 NA
ATOM      7  C   UNL     1      -1.458  14.158  21.179  0.00  0.00    +0.000 A 
ATOM      8  N   UNL     1      -2.456  14.324  22.123  0.00  0.00    +0.000 N 
ATOM      9  C   UNL     1      -2.843  15.707  22.348  0.00  0.00    +0.000 C 
ATOM     10  C   UNL     1      -3.529  15.708  23.719  0.00  0.00    +0.000 C 
ATOM     11  C   UNL     1      -5.036  15.881  23.590  0.00  0.00    +0.000 C 
ATOM     12  N   UNL     1      -5.554  14.532  23.516  0.00  0.00    +0.000 N 
ATOM     13  C   UNL     1      -6.645  14.232  22.719  0.00  0.00    +0.000 C 
ATOM     14  O   UNL     1      -7.230  15.103  22.081  0.00  0.00    +0.000 OA
ATOM     15  C   UNL     1      -4.680  13.614  24.223  0.00  0.00    +0.000 C 
ATOM     16  C   UNL     1      -3.317  14.298  24.301  0.00  0.00    +0.000 C 
ATOM     17  C   UNL     1      -2.282  13.634  23.389  0.00  0.00    +0.000 C 
ATOM     18  N   UNL     1      -1.339  15.079  20.205  0.00  0.00    +0.000 NA
ENDROOT
BRANCH  13  19
ATOM     19  C   UNL     1      -7.071  12.848  22.661  0.00  0.00    +0.000 A 
ATOM     20  C   UNL     1      -7.629  12.029  23.663  0.00  0.00    +0.000 A 
ATOM     21  N   UNL     1      -7.917  10.804  23.231  0.00  0.00    +0.000 NA
ATOM     22  O   UNL     1      -7.553  10.800  21.896  0.00  0.00    +0.000 OA
ATOM     23  C   UNL     1      -7.038  12.020  21.550  0.00  0.00    +0.000 A 
BRANCH  23  24
ATOM     24  C   UNL     1      -6.534  12.117  20.184  0.00  0.00    +0.000 A 
ATOM     25  C   UNL     1      -5.152  12.064  19.917  0.00  0.00    +0.000 A 
ATOM     26  C   UNL     1      -4.674  12.195  18.606  0.00  0.00    +0.000 A 
ATOM     27  C   UNL     1      -5.565  12.365  17.549  0.00  0.00    +0.000 A 
ATOM     28  C   UNL     1      -6.933  12.413  17.799  0.00  0.00    +0.000 A 
ATOM     29  C   UNL     1      -7.407  12.297  19.108  0.00  0.00    +0.000 A 
ENDBRANCH  23  24
ENDBRANCH  13  19
TORSDOF 2
ENDMDL
MODEL 7
REMARK VINA RESULT:      -6.3      3.547      8.164
REMARK  Name = 
REMARK  4 active torsions:
REMARK  status: ('A' for Active; 'I' for Inactive)
REMARK    1  A    between atoms: C_1  and  C_2
REMARK    2  A    between atoms: C_4  and  C_5
REMARK    3  A    between atoms: C_13  and  C_15
REMARK    4  A    between atoms: C_19  and  C_20
REMARK                            x       y       z     vdW  Elec       q    Type
REMARK                         _______ _______ _______ _____ _____    ______ ____
ROOT
ATOM      1  C   UNL     1       8.534  14.016  21.909  0.00  0.00    +0.000 C 
ATOM      2  C   UNL     1       7.194  14.166  22.564  0.00  0.00    +0.000 A 
ATOM      3  C   UNL     1       7.071  14.392  23.913  0.00  0.00    +0.000 A 
ATOM      4  C   UNL     1       5.790  14.539  24.393  0.00  0.00    +0.000 A 
ATOM      5  C   UNL     1       5.510  14.813  25.838  0.00  0.00    +0.000 C 
ATOM      6  N   UNL     1       4.706  14.475  23.595  0.00  0.00    +0.000 NA
ATOM      7  C   UNL     1       4.899  14.271  22.288  0.00  0.00    +0.000 A 
ATOM      8  N   UNL     1       3.802  14.270  21.445  0.00  0.00    +0.000 N 
ATOM      9  C   UNL     1       4.090  14.705  20.088  0.00  0.00    +0.000 C 
ATOM     10  C   UNL     1       2.732  15.117  19.508  0.00  0.00    +0.000 C 
ATOM     11  C   UNL     1       2.227  14.103  18.491  0.00  0.00    +0.000 C 
ATOM     12  N   UNL     1       1.430  13.176  19.264  0.00  0.00    +0.000 N 
ATOM     13  C   UNL     1       1.407  11.827  18.954  0.00  0.00    +0.000 C 
ATOM     14  O   UNL     1       2.030  11.381  17.994  0.00  0.00    +0.000 OA
ATOM     15  C   UNL     1       0.863  13.839  20.424  0.00  0.00    +0.000 C 
ATOM     16  C   UNL     1       1.736  15.066  20.681  0.00  0.00    +0.000 C 
ATOM     17  C   UNL     1       2.596  14.912  21.938  0.00  0.00    +0.000 C 
ATOM     18  N   UNL     1       6.120  14.099  21.750  0.00  0.00    +0.000 NA
ENDROOT
BRANCH  13  19
ATOM     19  C   UNL     1       0.623  10.957  19.807  0.00  0.00    +0.000 A 
ATOM     20  C   UNL     1       0.941  10.386  21.056  0.00  0.00    +0.000 A 
ATOM     21  N   UNL     1      -0.048   9.649  21.556  0.00  0.00    +0.000 NA
ATOM     22  O   UNL     1      -1.066   9.734  20.622  0.00  0.00    +0.000 OA
ATOM     23  C   UNL     1      -0.667  10.510  19.568  0.00  0.00    +0.000 A 
BRANCH  23  24
ATOM     24  C   UNL     1      -1.624  10.606  18.470  0.00  0.00    +0.000 A 
ATOM     25  C   UNL     1      -2.746  11.452  18.559  0.00  0.00    +0.000 A 
ATOM     26  C   UNL     1      -3.679  11.510  17.515  0.00  0.00    +0.000 A 
ATOM     27  C   UNL     1      -3.498  10.739  16.370  0.00  0.00    +0.000 A 
ATOM     28  C   UNL     1      -2.390   9.904  16.266  0.00  0.00    +0.000 A 
ATOM     29  C   UNL     1      -1.468   9.836  17.314  0.00  0.00    +0.000 A 
ENDBRANCH  23  24
ENDBRANCH  13  19
TORSDOF 2
ENDMDL
MODEL 8
REMARK VINA RESULT:      -6.2      3.182      7.220
REMARK  Name = 
REMARK  4 active torsions:
REMARK  status: ('A' for Active; 'I' for Inactive)
REMARK    1  A    between atoms: C_1  and  C_2
REMARK    2  A    between atoms: C_4  and  C_5
REMARK    3  A    between atoms: C_13  and  C_15
REMARK    4  A    between atoms: C_19  and  C_20
REMARK                            x       y       z     vdW  Elec       q    Type
REMARK                         _______ _______ _______ _____ _____    ______ ____
ROOT
ATOM      1  C   UNL     1       5.271  15.288  19.550  0.00  0.00    +0.000 C 
ATOM      2  C   UNL     1       3.843  15.508  19.149  0.00  0.00    +0.000 A 
ATOM      3  C   UNL     1       3.454  16.623  18.448  0.00  0.00    +0.000 A 
ATOM      4  C   UNL     1       2.122  16.700  18.114  0.00  0.00    +0.000 A 
ATOM      5  C   UNL     1       1.564  17.848  17.331  0.00  0.00    +0.000 C 
ATOM      6  N   UNL     1       1.236  15.737  18.441  0.00  0.00    +0.000 NA
ATOM      7  C   UNL     1       1.687  14.670  19.108  0.00  0.00    +0.000 A 
ATOM      8  N   UNL     1       0.805  13.642  19.393  0.00  0.00    +0.000 N 
ATOM      9  C   UNL     1       1.425  12.331  19.483  0.00  0.00    +0.000 C 
ATOM     10  C   UNL     1       0.276  11.336  19.284  0.00  0.00    +0.000 C 
ATOM     11  C   UNL     1      -0.098  10.644  20.587  0.00  0.00    +0.000 C 
ATOM     12  N   UNL     1      -1.136  11.474  21.157  0.00  0.00    +0.000 N 
ATOM     13  C   UNL     1      -1.231  11.655  22.526  0.00  0.00    +0.000 C 
ATOM     14  O   UNL     1      -0.464  11.089  23.301  0.00  0.00    +0.000 OA
ATOM     15  C   UNL     1      -1.869  12.160  20.109  0.00  0.00    +0.000 C 
ATOM     16  C   UNL     1      -0.951  12.177  18.888  0.00  0.00    +0.000 C 
ATOM     17  C   UNL     1      -0.406  13.577  18.593  0.00  0.00    +0.000 C 
ATOM     18  N   UNL     1       2.972  14.535  19.485  0.00  0.00    +0.000 NA
ENDROOT
BRANCH  13  19
ATOM     19  C   UNL     1      -2.267  12.542  23.014  0.00  0.00    +0.000 A 
ATOM     20  C   UNL     1      -3.505  12.242  23.619  0.00  0.00    +0.000 A 
ATOM     21  N   UNL     1      -4.193  13.330  23.958  0.00  0.00    +0.000 NA
ATOM     22  O   UNL     1      -3.391  14.393  23.580  0.00  0.00    +0.000 OA
ATOM     23  C   UNL     1      -2.240  13.927  23.007  0.00  0.00    +0.000 A 
BRANCH  23  24
ATOM     24  C   UNL     1      -1.346  14.955  22.484  0.00  0.00    +0.000 A 
ATOM     25  C   UNL     1      -0.012  15.051  22.928  0.00  0.00    +0.000 A 
ATOM     26  C   UNL     1       0.828  16.064  22.448  0.00  0.00    +0.000 A 
ATOM     27  C   UNL     1       0.355  16.982  21.513  0.00  0.00    +0.000 A 
ATOM     28  C   UNL     1      -0.958  16.895  21.060  0.00  0.00    +0.000 A 
ATOM     29  C   UNL     1      -1.799  15.893  21.552  0.00  0.00    +0.000 A 
ENDBRANCH  23  24
ENDBRANCH  13  19
TORSDOF 2
ENDMDL
MODEL 9
REMARK VINA RESULT:      -6.2      2.474      5.249
REMARK  Name = 
REMARK  4 active torsions:
REMARK  status: ('A' for Active; 'I' for Inactive)
REMARK    1  A    between atoms: C_1  and  C_2
REMARK    2  A    between atoms: C_4  and  C_5
REMARK    3  A    between atoms: C_13  and  C_15
REMARK    4  A    between atoms: C_19  and  C_20
REMARK                            x       y       z     vdW  Elec       q    Type
REMARK                         _______ _______ _______ _____ _____    ______ ____
ROOT
ATOM      1  C   UNL     1      -2.494  15.080  25.501  0.00  0.00    +0.000 C 
ATOM      2  C   UNL     1      -2.503  15.621  24.103  0.00  0.00    +0.000 A 
ATOM      3  C   UNL     1      -3.048  16.846  23.807  0.00  0.00    +0.000 A 
ATOM      4  C   UNL     1      -2.974  17.246  22.492  0.00  0.00    +0.000 A 
ATOM      5  C   UNL     1      -3.506  18.567  22.032  0.00  0.00    +0.000 C 
ATOM      6  N   UNL     1      -2.392  16.492  21.538  0.00  0.00    +0.000 NA
ATOM      7  C   UNL     1      -1.865  15.318  21.899  0.00  0.00    +0.000 A 
ATOM      8  N   UNL     1      -1.206  14.562  20.946  0.00  0.00    +0.000 N 
ATOM      9  C   UNL     1      -0.147  13.719  21.478  0.00  0.00    +0.000 C 
ATOM     10  C   UNL     1       0.746  13.399  20.275  0.00  0.00    +0.000 C 
ATOM     11  C   UNL     1       0.577  11.957  19.819  0.00  0.00    +0.000 C 
ATOM     12  N   UNL     1      -0.468  12.010  18.820  0.00  0.00    +0.000 N 
ATOM     13  C   UNL     1      -1.388  10.982  18.696  0.00  0.00    +0.000 C 
ATOM     14  O   UNL     1      -1.324   9.980  19.402  0.00  0.00    +0.000 OA
ATOM     15  C   UNL     1      -0.476  13.304  18.163  0.00  0.00    +0.000 C 
ATOM     16  C   UNL     1       0.226  14.269  19.116  0.00  0.00    +0.000 C 
ATOM     17  C   UNL     1      -0.748  15.261  19.758  0.00  0.00    +0.000 C 
ATOM     18  N   UNL     1      -1.917  14.853  23.162  0.00  0.00    +0.000 NA
ENDROOT
BRANCH  13  19
ATOM     19  C   UNL     1      -2.432  11.135  17.704  0.00  0.00    +0.000 A 
ATOM     20  C   UNL     1      -2.389  10.949  16.307  0.00  0.00    +0.000 A 
ATOM     21  N   UNL     1      -3.564  11.165  15.719  0.00  0.00    +0.000 NA
ATOM     22  O   UNL     1      -4.426  11.493  16.751  0.00  0.00    +0.000 OA
ATOM     23  C   UNL     1      -3.751  11.485  17.942  0.00  0.00    +0.000 A 
BRANCH  23  24
ATOM     24  C   UNL     1      -4.533  11.904  19.101  0.00  0.00    +0.000 A 
ATOM     25  C   UNL     1      -3.951  12.673  20.128  0.00  0.00    +0.000 A 
ATOM     26  C   UNL     1      -4.699  13.040  21.254  0.00  0.00    +0.000 A 
ATOM     27  C   UNL     1      -6.034  12.657  21.364  0.00  0.00    +0.000 A 
ATOM     28  C   UNL     1      -6.623  11.903  20.355  0.00  0.00    +0.000 A 
ATOM     29  C   UNL     1      -5.871  11.525  19.239  0.00  0.00    +0.000 A 
ENDBRANCH  23  24
ENDBRANCH  13  19
TORSDOF 2
ENDMDL
