MODEL 1
REMARK VINA RESULT:      -8.7      0.000      0.000
REMARK  Name = 
REMARK  3 active torsions:
REMARK  status: ('A' for Active; 'I' for Inactive)
REMARK    1  A    between atoms: N_4  and  C_5
REMARK    2  A    between atoms: C_5  and  C_6
REMARK    3  A    between atoms: C_9  and  C_10
REMARK                            x       y       z     vdW  Elec       q    Type
REMARK                         _______ _______ _______ _____ _____    ______ ____
ROOT
ATOM      1  N   UNL     1       4.838   1.873  20.161  0.00  0.00    +0.000 N 
ATOM      2  C   UNL     1       4.731   3.130  19.709  0.00  0.00    +0.000 A 
ATOM      3  N   UNL     1       5.644   3.681  18.920  0.00  0.00    +0.000 NA
ATOM      4  N   UNL     1       5.166   4.917  18.673  0.00  0.00    +0.000 N 
ATOM      5  C   UNL     1       3.954   5.170  19.273  0.00  0.00    +0.000 A 
ATOM      6  C   UNL     1       3.103   6.289  19.248  0.00  0.00    +0.000 A 
ATOM      7  C   UNL     1       1.920   6.236  19.992  0.00  0.00    +0.000 A 
ATOM      8  C   UNL     1       1.592   5.103  20.732  0.00  0.00    +0.000 A 
ATOM      9  C   UNL     1       2.447   3.999  20.726  0.00  0.00    +0.000 A 
ATOM     10 CL   UNL     1       2.075   2.589  21.619  0.00  0.00    +0.000 Cl
ATOM     11  C   UNL     1       3.648   4.010  19.990  0.00  0.00    +0.000 A 
ATOM     12  H   UNL     1       5.716   1.386  20.037  0.00  0.00    +0.000 HD
ATOM     13  H   UNL     1       4.235   1.516  20.895  0.00  0.00    +0.000 HD
ENDROOT
BRANCH   4  14
ATOM     14  C   UNL     1       5.859   5.776  17.722  0.00  0.00    +0.000 C 
BRANCH  14  15
ATOM     15  C   UNL     1       6.006   5.151  16.355  0.00  0.00    +0.000 A 
ATOM     16  C   UNL     1       4.922   4.494  15.758  0.00  0.00    +0.000 A 
ATOM     17  C   UNL     1       5.020   3.994  14.457  0.00  0.00    +0.000 A 
ATOM     18  C   UNL     1       6.211   4.125  13.729  0.00  0.00    +0.000 A 
ATOM     19  C   UNL     1       7.308   4.750  14.338  0.00  0.00    +0.000 A 
ATOM     20  C   UNL     1       7.207   5.257  15.637  0.00  0.00    +0.000 A 
BRANCH  18  21
ATOM     21  C   UNL     1       6.313   3.618  12.311  0.00  0.00    +0.000 C 
ATOM     22  F   UNL     1       5.124   3.625  11.644  0.00  0.00    +0.000 F 
ATOM     23  F   UNL     1       7.166   4.364  11.553  0.00  0.00    +0.000 F 
ATOM     24  F   UNL     1       6.773   2.339  12.240  0.00  0.00    +0.000 F 
ENDBRANCH  18  21
ENDBRANCH  14  15
ENDBRANCH   4  14
TORSDOF 3
ENDMDL
MODEL 2
REMARK VINA RESULT:      -8.5      0.192      1.347
REMARK  Name = 
REMARK  3 active torsions:
REMARK  status: ('A' for Active; 'I' for Inactive)
REMARK    1  A    between atoms: N_4  and  C_5
REMARK    2  A    between atoms: C_5  and  C_6
REMARK    3  A    between atoms: C_9  and  C_10
REMARK                            x       y       z     vdW  Elec       q    Type
REMARK                         _______ _______ _______ _____ _____    ______ ____
ROOT
ATOM      1  N   UNL     1       4.816   1.828  20.062  0.00  0.00    +0.000 N 
ATOM      2  C   UNL     1       4.732   3.096  19.638  0.00  0.00    +0.000 A 
ATOM      3  N   UNL     1       5.673   3.659  18.890  0.00  0.00    +0.000 NA
ATOM      4  N   UNL     1       5.212   4.905  18.660  0.00  0.00    +0.000 N 
ATOM      5  C   UNL     1       3.984   5.153  19.229  0.00  0.00    +0.000 A 
ATOM      6  C   UNL     1       3.142   6.279  19.206  0.00  0.00    +0.000 A 
ATOM      7  C   UNL     1       1.938   6.217  19.913  0.00  0.00    +0.000 A 
ATOM      8  C   UNL     1       1.579   5.069  20.614  0.00  0.00    +0.000 A 
ATOM      9  C   UNL     1       2.425   3.959  20.607  0.00  0.00    +0.000 A 
ATOM     10 CL   UNL     1       2.016   2.531  21.454  0.00  0.00    +0.000 Cl
ATOM     11  C   UNL     1       3.649   3.978  19.908  0.00  0.00    +0.000 A 
ATOM     12  H   UNL     1       5.694   1.337  19.953  0.00  0.00    +0.000 HD
ATOM     13  H   UNL     1       4.189   1.458  20.769  0.00  0.00    +0.000 HD
ENDROOT
BRANCH   4  14
ATOM     14  C   UNL     1       5.940   5.781  17.751  0.00  0.00    +0.000 C 
BRANCH  14  15
ATOM     15  C   UNL     1       5.969   5.271  16.330  0.00  0.00    +0.000 A 
ATOM     16  C   UNL     1       7.142   5.365  15.570  0.00  0.00    +0.000 A 
ATOM     17  C   UNL     1       7.206   4.813  14.288  0.00  0.00    +0.000 A 
ATOM     18  C   UNL     1       6.093   4.169  13.730  0.00  0.00    +0.000 A 
ATOM     19  C   UNL     1       4.907   4.106  14.475  0.00  0.00    +0.000 A 
ATOM     20  C   UNL     1       4.846   4.652  15.762  0.00  0.00    +0.000 A 
BRANCH  18  21
ATOM     21  C   UNL     1       6.167   3.540  12.360  0.00  0.00    +0.000 C 
ATOM     22  F   UNL     1       7.239   3.954  11.628  0.00  0.00    +0.000 F 
ATOM     23  F   UNL     1       6.260   2.182  12.417  0.00  0.00    +0.000 F 
ATOM     24  F   UNL     1       5.070   3.806  11.599  0.00  0.00    +0.000 F 
ENDBRANCH  18  21
ENDBRANCH  14  15
ENDBRANCH   4  14
TORSDOF 3
ENDMDL
MODEL 3
REMARK VINA RESULT:      -8.0      0.954      1.709
REMARK  Name = 
REMARK  3 active torsions:
REMARK  status: ('A' for Active; 'I' for Inactive)
REMARK    1  A    between atoms: N_4  and  C_5
REMARK    2  A    between atoms: C_5  and  C_6
REMARK    3  A    between atoms: C_9  and  C_10
REMARK                            x       y       z     vdW  Elec       q    Type
REMARK                         _______ _______ _______ _____ _____    ______ ____
ROOT
ATOM      1  N   UNL     1       3.608   2.486  20.435  0.00  0.00    +0.000 N 
ATOM      2  C   UNL     1       4.118   3.502  19.727  0.00  0.00    +0.000 A 
ATOM      3  N   UNL     1       5.356   3.483  19.247  0.00  0.00    +0.000 NA
ATOM      4  N   UNL     1       5.474   4.653  18.589  0.00  0.00    +0.000 N 
ATOM      5  C   UNL     1       4.332   5.421  18.619  0.00  0.00    +0.000 A 
ATOM      6  C   UNL     1       4.014   6.663  18.042  0.00  0.00    +0.000 A 
ATOM      7  C   UNL     1       2.742   7.194  18.277  0.00  0.00    +0.000 A 
ATOM      8  C   UNL     1       1.814   6.506  19.053  0.00  0.00    +0.000 A 
ATOM      9  C   UNL     1       2.149   5.266  19.600  0.00  0.00    +0.000 A 
ATOM     10 CL   UNL     1       1.033   4.390  20.556  0.00  0.00    +0.000 Cl
ATOM     11  C   UNL     1       3.420   4.695  19.389  0.00  0.00    +0.000 A 
ATOM     12  H   UNL     1       4.232   1.757  20.756  0.00  0.00    +0.000 HD
ATOM     13  H   UNL     1       2.734   2.574  20.942  0.00  0.00    +0.000 HD
ENDROOT
BRANCH   4  14
ATOM     14  C   UNL     1       6.679   4.921  17.816  0.00  0.00    +0.000 C 
BRANCH  14  15
ATOM     15  C   UNL     1       6.514   4.642  16.341  0.00  0.00    +0.000 A 
ATOM     16  C   UNL     1       7.497   5.051  15.430  0.00  0.00    +0.000 A 
ATOM     17  C   UNL     1       7.398   4.716  14.077  0.00  0.00    +0.000 A 
ATOM     18  C   UNL     1       6.304   3.979  13.601  0.00  0.00    +0.000 A 
ATOM     19  C   UNL     1       5.302   3.601  14.505  0.00  0.00    +0.000 A 
ATOM     20  C   UNL     1       5.405   3.929  15.860  0.00  0.00    +0.000 A 
BRANCH  18  21
ATOM     21  C   UNL     1       6.209   3.584  12.147  0.00  0.00    +0.000 C 
ATOM     22  F   UNL     1       6.520   2.278  11.916  0.00  0.00    +0.000 F 
ATOM     23  F   UNL     1       4.955   3.761  11.643  0.00  0.00    +0.000 F 
ATOM     24  F   UNL     1       7.037   4.313  11.349  0.00  0.00    +0.000 F 
ENDBRANCH  18  21
ENDBRANCH  14  15
ENDBRANCH   4  14
TORSDOF 3
ENDMDL
MODEL 4
REMARK VINA RESULT:      -8.0      1.109      1.363
REMARK  Name = 
REMARK  3 active torsions:
REMARK  status: ('A' for Active; 'I' for Inactive)
REMARK    1  A    between atoms: N_4  and  C_5
REMARK    2  A    between atoms: C_5  and  C_6
REMARK    3  A    between atoms: C_9  and  C_10
REMARK                            x       y       z     vdW  Elec       q    Type
REMARK                         _______ _______ _______ _____ _____    ______ ____
ROOT
ATOM      1  N   UNL     1       3.532   2.791  20.469  0.00  0.00    +0.000 N 
ATOM      2  C   UNL     1       4.123   3.734  19.723  0.00  0.00    +0.000 A 
ATOM      3  N   UNL     1       5.371   3.615  19.286  0.00  0.00    +0.000 NA
ATOM      4  N   UNL     1       5.579   4.736  18.568  0.00  0.00    +0.000 N 
ATOM      5  C   UNL     1       4.484   5.569  18.516  0.00  0.00    +0.000 A 
ATOM      6  C   UNL     1       4.259   6.792  17.860  0.00  0.00    +0.000 A 
ATOM      7  C   UNL     1       3.014   7.408  18.022  0.00  0.00    +0.000 A 
ATOM      8  C   UNL     1       2.023   6.821  18.804  0.00  0.00    +0.000 A 
ATOM      9  C   UNL     1       2.267   5.598  19.430  0.00  0.00    +0.000 A 
ATOM     10 CL   UNL     1       1.073   4.846  20.395  0.00  0.00    +0.000 Cl
ATOM     11  C   UNL     1       3.507   4.943  19.295  0.00  0.00    +0.000 A 
ATOM     12  H   UNL     1       4.100   2.047  20.851  0.00  0.00    +0.000 HD
ATOM     13  H   UNL     1       2.649   2.959  20.941  0.00  0.00    +0.000 HD
ENDROOT
BRANCH   4  14
ATOM     14  C   UNL     1       6.821   4.889  17.822  0.00  0.00    +0.000 C 
BRANCH  14  15
ATOM     15  C   UNL     1       6.692   4.504  16.367  0.00  0.00    +0.000 A 
ATOM     16  C   UNL     1       5.728   3.569  15.967  0.00  0.00    +0.000 A 
ATOM     17  C   UNL     1       5.539   3.276  14.614  0.00  0.00    +0.000 A 
ATOM     18  C   UNL     1       6.320   3.899  13.631  0.00  0.00    +0.000 A 
ATOM     19  C   UNL     1       7.309   4.808  14.033  0.00  0.00    +0.000 A 
ATOM     20  C   UNL     1       7.493   5.107  15.387  0.00  0.00    +0.000 A 
BRANCH  18  21
ATOM     21  C   UNL     1       6.097   3.613  12.166  0.00  0.00    +0.000 C 
ATOM     22  F   UNL     1       4.817   3.840  11.756  0.00  0.00    +0.000 F 
ATOM     23  F   UNL     1       6.885   4.381  11.362  0.00  0.00    +0.000 F 
ATOM     24  F   UNL     1       6.373   2.322  11.834  0.00  0.00    +0.000 F 
ENDBRANCH  18  21
ENDBRANCH  14  15
ENDBRANCH   4  14
TORSDOF 3
ENDMDL
MODEL 5
REMARK VINA RESULT:      -7.7      5.592      7.284
REMARK  Name = 
REMARK  3 active torsions:
REMARK  status: ('A' for Active; 'I' for Inactive)
REMARK    1  A    between atoms: N_4  and  C_5
REMARK    2  A    between atoms: C_5  and  C_6
REMARK    3  A    between atoms: C_9  and  C_10
REMARK                            x       y       z     vdW  Elec       q    Type
REMARK                         _______ _______ _______ _____ _____    ______ ____
ROOT
ATOM      1  N   UNL     1      -0.741  11.122  17.817  0.00  0.00    +0.000 N 
ATOM      2  C   UNL     1       0.008  10.314  18.580  0.00  0.00    +0.000 A 
ATOM      3  N   UNL     1       0.921   9.498  18.067  0.00  0.00    +0.000 NA
ATOM      4  N   UNL     1       1.462   8.889  19.140  0.00  0.00    +0.000 N 
ATOM      5  C   UNL     1       0.930   9.307  20.338  0.00  0.00    +0.000 A 
ATOM      6  C   UNL     1       1.223   8.969  21.671  0.00  0.00    +0.000 A 
ATOM      7  C   UNL     1       0.475   9.574  22.686  0.00  0.00    +0.000 A 
ATOM      8  C   UNL     1      -0.527  10.492  22.383  0.00  0.00    +0.000 A 
ATOM      9  C   UNL     1      -0.786  10.823  21.052  0.00  0.00    +0.000 A 
ATOM     10 CL   UNL     1      -2.006  11.949  20.643  0.00  0.00    +0.000 Cl
ATOM     11  C   UNL     1      -0.057  10.237  19.999  0.00  0.00    +0.000 A 
ATOM     12  H   UNL     1      -0.732  10.989  16.815  0.00  0.00    +0.000 HD
ATOM     13  H   UNL     1      -1.547  11.612  18.190  0.00  0.00    +0.000 HD
ENDROOT
BRANCH   4  14
ATOM     14  C   UNL     1       2.605   8.003  18.961  0.00  0.00    +0.000 C 
BRANCH  14  15
ATOM     15  C   UNL     1       2.238   6.540  19.022  0.00  0.00    +0.000 A 
ATOM     16  C   UNL     1       2.096   5.797  17.842  0.00  0.00    +0.000 A 
ATOM     17  C   UNL     1       1.848   4.423  17.891  0.00  0.00    +0.000 A 
ATOM     18  C   UNL     1       1.720   3.763  19.122  0.00  0.00    +0.000 A 
ATOM     19  C   UNL     1       1.825   4.511  20.302  0.00  0.00    +0.000 A 
ATOM     20  C   UNL     1       2.081   5.885  20.253  0.00  0.00    +0.000 A 
BRANCH  18  21
ATOM     21  C   UNL     1       1.487   2.273  19.181  0.00  0.00    +0.000 C 
ATOM     22  F   UNL     1       1.404   1.785  20.451  0.00  0.00    +0.000 F 
ATOM     23  F   UNL     1       0.328   1.904  18.567  0.00  0.00    +0.000 F 
ATOM     24  F   UNL     1       2.474   1.561  18.571  0.00  0.00    +0.000 F 
ENDBRANCH  18  21
ENDBRANCH  14  15
ENDBRANCH   4  14
TORSDOF 3
ENDMDL
MODEL 6
REMARK VINA RESULT:      -7.7      1.347      2.461
REMARK  Name = 
REMARK  3 active torsions:
REMARK  status: ('A' for Active; 'I' for Inactive)
REMARK    1  A    between atoms: N_4  and  C_5
REMARK    2  A    between atoms: C_5  and  C_6
REMARK    3  A    between atoms: C_9  and  C_10
REMARK                            x       y       z     vdW  Elec       q    Type
REMARK                         _______ _______ _______ _____ _____    ______ ____
ROOT
ATOM      1  N   UNL     1       2.440   6.804  19.890  0.00  0.00    +0.000 N 
ATOM      2  C   UNL     1       3.220   5.850  19.365  0.00  0.00    +0.000 A 
ATOM      3  N   UNL     1       4.390   6.121  18.800  0.00  0.00    +0.000 NA
ATOM      4  N   UNL     1       4.866   4.917  18.427  0.00  0.00    +0.000 N 
ATOM      5  C   UNL     1       4.034   3.870  18.755  0.00  0.00    +0.000 A 
ATOM      6  C   UNL     1       4.158   2.479  18.591  0.00  0.00    +0.000 A 
ATOM      7  C   UNL     1       3.107   1.667  19.029  0.00  0.00    +0.000 A 
ATOM      8  C   UNL     1       1.975   2.221  19.619  0.00  0.00    +0.000 A 
ATOM      9  C   UNL     1       1.885   3.604  19.786  0.00  0.00    +0.000 A 
ATOM     10 CL   UNL     1       0.511   4.320  20.510  0.00  0.00    +0.000 Cl
ATOM     11  C   UNL     1       2.920   4.460  19.358  0.00  0.00    +0.000 A 
ATOM     12  H   UNL     1       2.665   7.772  19.705  0.00  0.00    +0.000 HD
ATOM     13  H   UNL     1       1.480   6.618  20.163  0.00  0.00    +0.000 HD
ENDROOT
BRANCH   4  14
ATOM     14  C   UNL     1       6.211   4.816  17.878  0.00  0.00    +0.000 C 
BRANCH  14  15
ATOM     15  C   UNL     1       6.228   4.602  16.383  0.00  0.00    +0.000 A 
ATOM     16  C   UNL     1       7.362   4.945  15.633  0.00  0.00    +0.000 A 
ATOM     17  C   UNL     1       7.422   4.666  14.266  0.00  0.00    +0.000 A 
ATOM     18  C   UNL     1       6.344   4.052  13.613  0.00  0.00    +0.000 A 
ATOM     19  C   UNL     1       5.195   3.742  14.354  0.00  0.00    +0.000 A 
ATOM     20  C   UNL     1       5.138   4.015  15.724  0.00  0.00    +0.000 A 
BRANCH  18  21
ATOM     21  C   UNL     1       6.417   3.716  12.143  0.00  0.00    +0.000 C 
ATOM     22  F   UNL     1       5.204   3.725  11.522  0.00  0.00    +0.000 F 
ATOM     23  F   UNL     1       7.194   4.594  11.448  0.00  0.00    +0.000 F 
ATOM     24  F   UNL     1       6.947   2.484  11.910  0.00  0.00    +0.000 F 
ENDBRANCH  18  21
ENDBRANCH  14  15
ENDBRANCH   4  14
TORSDOF 3
ENDMDL
MODEL 7
REMARK VINA RESULT:      -7.6      5.860      7.401
REMARK  Name = 
REMARK  3 active torsions:
REMARK  status: ('A' for Active; 'I' for Inactive)
REMARK    1  A    between atoms: N_4  and  C_5
REMARK    2  A    between atoms: C_5  and  C_6
REMARK    3  A    between atoms: C_9  and  C_10
REMARK                            x       y       z     vdW  Elec       q    Type
REMARK                         _______ _______ _______ _____ _____    ______ ____
ROOT
ATOM      1  N   UNL     1       6.239   4.031  18.921  0.00  0.00    +0.000 N 
ATOM      2  C   UNL     1       5.053   4.564  18.601  0.00  0.00    +0.000 A 
ATOM      3  N   UNL     1       4.919   5.832  18.231  0.00  0.00    +0.000 NA
ATOM      4  N   UNL     1       3.603   5.965  17.975  0.00  0.00    +0.000 N 
ATOM      5  C   UNL     1       2.885   4.805  18.155  0.00  0.00    +0.000 A 
ATOM      6  C   UNL     1       1.526   4.496  17.967  0.00  0.00    +0.000 A 
ATOM      7  C   UNL     1       1.097   3.198  18.258  0.00  0.00    +0.000 A 
ATOM      8  C   UNL     1       1.994   2.235  18.714  0.00  0.00    +0.000 A 
ATOM      9  C   UNL     1       3.342   2.563  18.876  0.00  0.00    +0.000 A 
ATOM     10 CL   UNL     1       4.472   1.406  19.430  0.00  0.00    +0.000 Cl
ATOM     11  C   UNL     1       3.816   3.860  18.595  0.00  0.00    +0.000 A 
ATOM     12  H   UNL     1       7.030   4.649  19.048  0.00  0.00    +0.000 HD
ATOM     13  H   UNL     1       6.315   3.122  19.365  0.00  0.00    +0.000 HD
ENDROOT
BRANCH   4  14
ATOM     14  C   UNL     1       3.105   7.214  17.415  0.00  0.00    +0.000 C 
BRANCH  14  15
ATOM     15  C   UNL     1       2.312   8.036  18.404  0.00  0.00    +0.000 A 
ATOM     16  C   UNL     1       1.652   9.199  17.987  0.00  0.00    +0.000 A 
ATOM     17  C   UNL     1       0.841   9.913  18.872  0.00  0.00    +0.000 A 
ATOM     18  C   UNL     1       0.685   9.490  20.200  0.00  0.00    +0.000 A 
ATOM     19  C   UNL     1       1.374   8.347  20.628  0.00  0.00    +0.000 A 
ATOM     20  C   UNL     1       2.180   7.628  19.739  0.00  0.00    +0.000 A 
BRANCH  18  21
ATOM     21  C   UNL     1      -0.217  10.238  21.151  0.00  0.00    +0.000 C 
ATOM     22  F   UNL     1       0.418  11.229  21.839  0.00  0.00    +0.000 F 
ATOM     23  F   UNL     1      -1.259  10.841  20.512  0.00  0.00    +0.000 F 
ATOM     24  F   UNL     1      -0.776   9.429  22.092  0.00  0.00    +0.000 F 
ENDBRANCH  18  21
ENDBRANCH  14  15
ENDBRANCH   4  14
TORSDOF 3
ENDMDL
MODEL 8
REMARK VINA RESULT:      -7.6      1.315      2.250
REMARK  Name = 
REMARK  3 active torsions:
REMARK  status: ('A' for Active; 'I' for Inactive)
REMARK    1  A    between atoms: N_4  and  C_5
REMARK    2  A    between atoms: C_5  and  C_6
REMARK    3  A    between atoms: C_9  and  C_10
REMARK                            x       y       z     vdW  Elec       q    Type
REMARK                         _______ _______ _______ _____ _____    ______ ____
ROOT
ATOM      1  N   UNL     1       2.186   7.250  19.079  0.00  0.00    +0.000 N 
ATOM      2  C   UNL     1       3.167   6.360  18.877  0.00  0.00    +0.000 A 
ATOM      3  N   UNL     1       4.248   6.645  18.161  0.00  0.00    +0.000 NA
ATOM      4  N   UNL     1       4.988   5.521  18.216  0.00  0.00    +0.000 N 
ATOM      5  C   UNL     1       4.416   4.520  18.968  0.00  0.00    +0.000 A 
ATOM      6  C   UNL     1       4.854   3.229  19.312  0.00  0.00    +0.000 A 
ATOM      7  C   UNL     1       4.014   2.433  20.097  0.00  0.00    +0.000 A 
ATOM      8  C   UNL     1       2.781   2.911  20.532  0.00  0.00    +0.000 A 
ATOM      9  C   UNL     1       2.377   4.203  20.191  0.00  0.00    +0.000 A 
ATOM     10 CL   UNL     1       0.871   4.825  20.710  0.00  0.00    +0.000 Cl
ATOM     11  C   UNL     1       3.192   5.038  19.401  0.00  0.00    +0.000 A 
ATOM     12  H   UNL     1       2.185   8.103  18.537  0.00  0.00    +0.000 HD
ATOM     13  H   UNL     1       1.292   6.978  19.475  0.00  0.00    +0.000 HD
ENDROOT
BRANCH   4  14
ATOM     14  C   UNL     1       6.325   5.513  17.637  0.00  0.00    +0.000 C 
BRANCH  14  15
ATOM     15  C   UNL     1       6.362   4.950  16.236  0.00  0.00    +0.000 A 
ATOM     16  C   UNL     1       5.296   4.177  15.757  0.00  0.00    +0.000 A 
ATOM     17  C   UNL     1       5.279   3.730  14.433  0.00  0.00    +0.000 A 
ATOM     18  C   UNL     1       6.335   4.032  13.563  0.00  0.00    +0.000 A 
ATOM     19  C   UNL     1       7.419   4.775  14.050  0.00  0.00    +0.000 A 
ATOM     20  C   UNL     1       7.433   5.229  15.373  0.00  0.00    +0.000 A 
BRANCH  18  21
ATOM     21  C   UNL     1       6.306   3.582  12.122  0.00  0.00    +0.000 C 
ATOM     22  F   UNL     1       5.059   3.596  11.573  0.00  0.00    +0.000 F 
ATOM     23  F   UNL     1       7.074   4.369  11.317  0.00  0.00    +0.000 F 
ATOM     24  F   UNL     1       6.773   2.314  11.957  0.00  0.00    +0.000 F 
ENDBRANCH  18  21
ENDBRANCH  14  15
ENDBRANCH   4  14
TORSDOF 3
ENDMDL
MODEL 9
REMARK VINA RESULT:      -7.6      5.874      7.411
REMARK  Name = 
REMARK  3 active torsions:
REMARK  status: ('A' for Active; 'I' for Inactive)
REMARK    1  A    between atoms: N_4  and  C_5
REMARK    2  A    between atoms: C_5  and  C_6
REMARK    3  A    between atoms: C_9  and  C_10
REMARK                            x       y       z     vdW  Elec       q    Type
REMARK                         _______ _______ _______ _____ _____    ______ ____
ROOT
ATOM      1  N   UNL     1       6.252   4.021  18.883  0.00  0.00    +0.000 N 
ATOM      2  C   UNL     1       5.087   4.598  18.562  0.00  0.00    +0.000 A 
ATOM      3  N   UNL     1       4.995   5.883  18.240  0.00  0.00    +0.000 NA
ATOM      4  N   UNL     1       3.688   6.063  17.966  0.00  0.00    +0.000 N 
ATOM      5  C   UNL     1       2.935   4.918  18.087  0.00  0.00    +0.000 A 
ATOM      6  C   UNL     1       1.573   4.655  17.862  0.00  0.00    +0.000 A 
ATOM      7  C   UNL     1       1.103   3.358  18.094  0.00  0.00    +0.000 A 
ATOM      8  C   UNL     1       1.965   2.354  18.528  0.00  0.00    +0.000 A 
ATOM      9  C   UNL     1       3.317   2.638  18.728  0.00  0.00    +0.000 A 
ATOM     10 CL   UNL     1       4.405   1.429  19.257  0.00  0.00    +0.000 Cl
ATOM     11  C   UNL     1       3.832   3.931  18.506  0.00  0.00    +0.000 A 
ATOM     12  H   UNL     1       7.057   4.611  19.049  0.00  0.00    +0.000 HD
ATOM     13  H   UNL     1       6.294   3.093  19.292  0.00  0.00    +0.000 HD
ENDROOT
BRANCH   4  14
ATOM     14  C   UNL     1       3.236   7.347  17.446  0.00  0.00    +0.000 C 
BRANCH  14  15
ATOM     15  C   UNL     1       2.286   8.064  18.376  0.00  0.00    +0.000 A 
ATOM     16  C   UNL     1       2.184   7.675  19.718  0.00  0.00    +0.000 A 
ATOM     17  C   UNL     1       1.378   8.391  20.607  0.00  0.00    +0.000 A 
ATOM     18  C   UNL     1       0.642   9.501  20.170  0.00  0.00    +0.000 A 
ATOM     19  C   UNL     1       0.714   9.868  18.820  0.00  0.00    +0.000 A 
ATOM     20  C   UNL     1       1.527   9.157  17.932  0.00  0.00    +0.000 A 
BRANCH  18  21
ATOM     21  C   UNL     1      -0.203  10.299  21.134  0.00  0.00    +0.000 C 
ATOM     22  F   UNL     1      -0.769   9.543  22.116  0.00  0.00    +0.000 F 
ATOM     23  F   UNL     1       0.513  11.263  21.776  0.00  0.00    +0.000 F 
ATOM     24  F   UNL     1      -1.232  10.946  20.520  0.00  0.00    +0.000 F 
ENDBRANCH  18  21
ENDBRANCH  14  15
ENDBRANCH   4  14
TORSDOF 3
ENDMDL
