MODEL 1
REMARK VINA RESULT:      -8.0      0.000      0.000
REMARK  Name = 
REMARK  9 active torsions:
REMARK  status: ('A' for Active; 'I' for Inactive)
REMARK    1  A    between atoms: C_1  and  C_2
REMARK    2  A    between atoms: C_2  and  C_3
REMARK    3  A    between atoms: C_2  and  C_4
REMARK    4  A    between atoms: C_2  and  C_5
REMARK    5  A    between atoms: C_7  and  C_8
REMARK    6  A    between atoms: C_8  and  N_9
REMARK    7  A    between atoms: N_9  and  C_10
REMARK    8  A    between atoms: N_9  and  C_18
REMARK    9  A    between atoms: C_10  and  C_11
REMARK                            x       y       z     vdW  Elec       q    Type
REMARK                         _______ _______ _______ _____ _____    ______ ____
ROOT
ATOM      1  N   UNL     1       2.844   5.491  18.291  0.00  0.00    +0.000 NA
ENDROOT
BRANCH   1   2
ATOM      2  C   UNL     1       1.776   4.634  18.851  0.00  0.00    +0.000 C 
ATOM      3  C   UNL     1       1.582   3.253  18.196  0.00  0.00    +0.000 C 
ATOM      4  C   UNL     1       0.735   2.472  19.202  0.00  0.00    +0.000 C 
ATOM      5  C   UNL     1       1.099   3.033  20.570  0.00  0.00    +0.000 C 
ATOM      6  C   UNL     1       2.042   4.201  20.302  0.00  0.00    +0.000 C 
ENDBRANCH   1   2
BRANCH   1   7
ATOM      7  C   UNL     1       3.098   6.715  19.088  0.00  0.00    +0.000 C 
BRANCH   7  10
ATOM      8  C   UNL     1       1.020   9.633  18.777  0.00  0.00    +0.000 A 
ATOM      9  N   UNL     1       1.418   8.634  19.545  0.00  0.00    +0.000 NA
ATOM     10  C   UNL     1       2.287   7.943  18.716  0.00  0.00    +0.000 A 
ATOM     11  N   UNL     1       2.445   8.515  17.512  0.00  0.00    +0.000 NA
ATOM     12  O   UNL     1       1.579   9.589  17.530  0.00  0.00    +0.000 OA
BRANCH   8  14
ATOM     13  C   UNL     1       0.787  12.142  18.753  0.00  0.00    +0.000 C 
ATOM     14  C   UNL     1       0.093  10.799  19.021  0.00  0.00    +0.000 C 
ATOM     15  C   UNL     1      -0.395  10.776  20.480  0.00  0.00    +0.000 C 
ATOM     16  C   UNL     1      -1.132  10.698  18.083  0.00  0.00    +0.000 C 
ENDBRANCH   8  14
ENDBRANCH   7  10
ENDBRANCH   1   7
BRANCH   1  17
ATOM     17  C   UNL     1       4.047   4.729  17.876  0.00  0.00    +0.000 C 
BRANCH  17  18
ATOM     18  C   UNL     1       5.426   5.377  17.983  0.00  0.00    +0.000 A 
ATOM     19  C   UNL     1       6.220   5.136  19.117  0.00  0.00    +0.000 A 
ATOM     20  C   UNL     1       7.440   5.778  19.335  0.00  0.00    +0.000 A 
ATOM     21  C   UNL     1       7.917   6.687  18.405  0.00  0.00    +0.000 A 
ATOM     22  C   UNL     1       7.160   6.954  17.271  0.00  0.00    +0.000 A 
ATOM     23  C   UNL     1       5.918   6.324  17.066  0.00  0.00    +0.000 A 
ATOM     24 CL   UNL     1       5.045   6.851  15.671  0.00  0.00    +0.000 Cl
ENDBRANCH  17  18
ENDBRANCH   1  17
TORSDOF 6
ENDMDL
MODEL 2
REMARK VINA RESULT:      -7.9      1.187      1.525
REMARK  Name = 
REMARK  9 active torsions:
REMARK  status: ('A' for Active; 'I' for Inactive)
REMARK    1  A    between atoms: C_1  and  C_2
REMARK    2  A    between atoms: C_2  and  C_3
REMARK    3  A    between atoms: C_2  and  C_4
REMARK    4  A    between atoms: C_2  and  C_5
REMARK    5  A    between atoms: C_7  and  C_8
REMARK    6  A    between atoms: C_8  and  N_9
REMARK    7  A    between atoms: N_9  and  C_10
REMARK    8  A    between atoms: N_9  and  C_18
REMARK    9  A    between atoms: C_10  and  C_11
REMARK                            x       y       z     vdW  Elec       q    Type
REMARK                         _______ _______ _______ _____ _____    ______ ____
ROOT
ATOM      1  N   UNL     1       2.598   5.697  17.848  0.00  0.00    +0.000 NA
ENDROOT
BRANCH   1   2
ATOM      2  C   UNL     1       1.730   4.559  18.222  0.00  0.00    +0.000 C 
ATOM      3  C   UNL     1       2.222   3.154  17.826  0.00  0.00    +0.000 C 
ATOM      4  C   UNL     1       1.370   2.202  18.668  0.00  0.00    +0.000 C 
ATOM      5  C   UNL     1       1.039   2.965  19.943  0.00  0.00    +0.000 C 
ATOM      6  C   UNL     1       1.597   4.370  19.743  0.00  0.00    +0.000 C 
ENDBRANCH   1   2
BRANCH   1   7
ATOM      7  C   UNL     1       2.752   6.701  18.928  0.00  0.00    +0.000 C 
BRANCH   7  10
ATOM      8  C   UNL     1       1.288   9.982  18.817  0.00  0.00    +0.000 A 
ATOM      9  N   UNL     1       1.458   8.869  19.508  0.00  0.00    +0.000 NA
ATOM     10  C   UNL     1       2.207   8.089  18.642  0.00  0.00    +0.000 A 
ATOM     11  N   UNL     1       2.515   8.711  17.493  0.00  0.00    +0.000 NA
ATOM     12  O   UNL     1       1.871   9.928  17.583  0.00  0.00    +0.000 OA
BRANCH   8  14
ATOM     13  C   UNL     1       1.374  12.492  18.600  0.00  0.00    +0.000 C 
ATOM     14  C   UNL     1       0.594  11.285  19.138  0.00  0.00    +0.000 C 
ATOM     15  C   UNL     1       0.448  11.430  20.663  0.00  0.00    +0.000 C 
ATOM     16  C   UNL     1      -0.812  11.299  18.498  0.00  0.00    +0.000 C 
ENDBRANCH   8  14
ENDBRANCH   7  10
ENDBRANCH   1   7
BRANCH   1  17
ATOM     17  C   UNL     1       3.849   5.279  17.170  0.00  0.00    +0.000 C 
BRANCH  17  18
ATOM     18  C   UNL     1       5.197   5.727  17.729  0.00  0.00    +0.000 A 
ATOM     19  C   UNL     1       5.912   6.750  17.083  0.00  0.00    +0.000 A 
ATOM     20  C   UNL     1       7.196   7.135  17.471  0.00  0.00    +0.000 A 
ATOM     21  C   UNL     1       7.811   6.507  18.541  0.00  0.00    +0.000 A 
ATOM     22  C   UNL     1       7.138   5.489  19.206  0.00  0.00    +0.000 A 
ATOM     23  C   UNL     1       5.853   5.085  18.797  0.00  0.00    +0.000 A 
ATOM     24 CL   UNL     1       5.201   3.730  19.646  0.00  0.00    +0.000 Cl
ENDBRANCH  17  18
ENDBRANCH   1  17
TORSDOF 6
ENDMDL
MODEL 3
REMARK VINA RESULT:      -7.8      1.535      2.170
REMARK  Name = 
REMARK  9 active torsions:
REMARK  status: ('A' for Active; 'I' for Inactive)
REMARK    1  A    between atoms: C_1  and  C_2
REMARK    2  A    between atoms: C_2  and  C_3
REMARK    3  A    between atoms: C_2  and  C_4
REMARK    4  A    between atoms: C_2  and  C_5
REMARK    5  A    between atoms: C_7  and  C_8
REMARK    6  A    between atoms: C_8  and  N_9
REMARK    7  A    between atoms: N_9  and  C_10
REMARK    8  A    between atoms: N_9  and  C_18
REMARK    9  A    between atoms: C_10  and  C_11
REMARK                            x       y       z     vdW  Elec       q    Type
REMARK                         _______ _______ _______ _____ _____    ______ ____
ROOT
ATOM      1  N   UNL     1       3.147   5.270  18.156  0.00  0.00    +0.000 NA
ENDROOT
BRANCH   1   2
ATOM      2  C   UNL     1       1.973   4.671  18.828  0.00  0.00    +0.000 C 
ATOM      3  C   UNL     1       1.516   3.289  18.322  0.00  0.00    +0.000 C 
ATOM      4  C   UNL     1       0.592   2.769  19.424  0.00  0.00    +0.000 C 
ATOM      5  C   UNL     1       1.106   3.386  20.718  0.00  0.00    +0.000 C 
ATOM      6  C   UNL     1       2.223   4.339  20.308  0.00  0.00    +0.000 C 
ENDBRANCH   1   2
BRANCH   1   7
ATOM      7  C   UNL     1       3.557   6.572  18.734  0.00  0.00    +0.000 C 
BRANCH   7  10
ATOM      8  C   UNL     1       1.228   9.310  18.698  0.00  0.00    +0.000 A 
ATOM      9  N   UNL     1       1.738   8.301  19.381  0.00  0.00    +0.000 NA
ATOM     10  C   UNL     1       2.631   7.747  18.476  0.00  0.00    +0.000 A 
ATOM     11  N   UNL     1       2.694   8.412  17.312  0.00  0.00    +0.000 NA
ATOM     12  O   UNL     1       1.740   9.401  17.435  0.00  0.00    +0.000 OA
BRANCH   8  14
ATOM     13  C   UNL     1      -0.282  10.221  20.499  0.00  0.00    +0.000 C 
ATOM     14  C   UNL     1       0.214  10.371  19.054  0.00  0.00    +0.000 C 
ATOM     15  C   UNL     1      -0.992  10.274  18.104  0.00  0.00    +0.000 C 
ATOM     16  C   UNL     1       0.852  11.772  18.911  0.00  0.00    +0.000 C 
ENDBRANCH   8  14
ENDBRANCH   7  10
ENDBRANCH   1   7
BRANCH   1  17
ATOM     17  C   UNL     1       4.240   4.297  17.913  0.00  0.00    +0.000 C 
BRANCH  17  18
ATOM     18  C   UNL     1       5.227   4.539  16.773  0.00  0.00    +0.000 A 
ATOM     19  C   UNL     1       4.846   4.250  15.452  0.00  0.00    +0.000 A 
ATOM     20  C   UNL     1       5.728   4.341  14.374  0.00  0.00    +0.000 A 
ATOM     21  C   UNL     1       7.036   4.741  14.586  0.00  0.00    +0.000 A 
ATOM     22  C   UNL     1       7.454   5.034  15.879  0.00  0.00    +0.000 A 
ATOM     23  C   UNL     1       6.569   4.917  16.967  0.00  0.00    +0.000 A 
ATOM     24 CL   UNL     1       7.269   5.201  18.520  0.00  0.00    +0.000 Cl
ENDBRANCH  17  18
ENDBRANCH   1  17
TORSDOF 6
ENDMDL
MODEL 4
REMARK VINA RESULT:      -7.7      1.099      1.884
REMARK  Name = 
REMARK  9 active torsions:
REMARK  status: ('A' for Active; 'I' for Inactive)
REMARK    1  A    between atoms: C_1  and  C_2
REMARK    2  A    between atoms: C_2  and  C_3
REMARK    3  A    between atoms: C_2  and  C_4
REMARK    4  A    between atoms: C_2  and  C_5
REMARK    5  A    between atoms: C_7  and  C_8
REMARK    6  A    between atoms: C_8  and  N_9
REMARK    7  A    between atoms: N_9  and  C_10
REMARK    8  A    between atoms: N_9  and  C_18
REMARK    9  A    between atoms: C_10  and  C_11
REMARK                            x       y       z     vdW  Elec       q    Type
REMARK                         _______ _______ _______ _____ _____    ______ ____
ROOT
ATOM      1  N   UNL     1       2.826   5.723  18.195  0.00  0.00    +0.000 NA
ENDROOT
BRANCH   1   2
ATOM      2  C   UNL     1       2.393   4.450  18.812  0.00  0.00    +0.000 C 
ATOM      3  C   UNL     1       1.512   4.556  20.072  0.00  0.00    +0.000 C 
ATOM      4  C   UNL     1       0.909   3.159  20.231  0.00  0.00    +0.000 C 
ATOM      5  C   UNL     1       0.802   2.594  18.821  0.00  0.00    +0.000 C 
ATOM      6  C   UNL     1       1.461   3.623  17.910  0.00  0.00    +0.000 C 
ENDBRANCH   1   2
BRANCH   1   7
ATOM      7  C   UNL     1       2.884   6.853  19.153  0.00  0.00    +0.000 C 
BRANCH   7  10
ATOM      8  C   UNL     1       0.890   9.824  18.801  0.00  0.00    +0.000 A 
ATOM      9  N   UNL     1       1.233   8.806  19.571  0.00  0.00    +0.000 NA
ATOM     10  C   UNL     1       2.118   8.106  18.766  0.00  0.00    +0.000 A 
ATOM     11  N   UNL     1       2.337   8.690  17.578  0.00  0.00    +0.000 NA
ATOM     12  O   UNL     1       1.496   9.783  17.577  0.00  0.00    +0.000 OA
BRANCH   8  14
ATOM     13  C   UNL     1      -1.280  10.930  18.154  0.00  0.00    +0.000 C 
ATOM     14  C   UNL     1      -0.019  11.009  19.025  0.00  0.00    +0.000 C 
ATOM     15  C   UNL     1       0.733  12.308  18.689  0.00  0.00    +0.000 C 
ATOM     16  C   UNL     1      -0.462  11.056  20.505  0.00  0.00    +0.000 C 
ENDBRANCH   8  14
ENDBRANCH   7  10
ENDBRANCH   1   7
BRANCH   1  17
ATOM     17  C   UNL     1       4.002   5.571  17.304  0.00  0.00    +0.000 C 
BRANCH  17  18
ATOM     18  C   UNL     1       5.386   5.981  17.803  0.00  0.00    +0.000 A 
ATOM     19  C   UNL     1       6.051   7.060  17.196  0.00  0.00    +0.000 A 
ATOM     20  C   UNL     1       7.359   7.422  17.522  0.00  0.00    +0.000 A 
ATOM     21  C   UNL     1       8.049   6.712  18.491  0.00  0.00    +0.000 A 
ATOM     22  C   UNL     1       7.427   5.638  19.114  0.00  0.00    +0.000 A 
ATOM     23  C   UNL     1       6.117   5.259  18.765  0.00  0.00    +0.000 A 
ATOM     24 CL   UNL     1       5.529   3.833  19.542  0.00  0.00    +0.000 Cl
ENDBRANCH  17  18
ENDBRANCH   1  17
TORSDOF 6
ENDMDL
MODEL 5
REMARK VINA RESULT:      -7.7      1.418      1.833
REMARK  Name = 
REMARK  9 active torsions:
REMARK  status: ('A' for Active; 'I' for Inactive)
REMARK    1  A    between atoms: C_1  and  C_2
REMARK    2  A    between atoms: C_2  and  C_3
REMARK    3  A    between atoms: C_2  and  C_4
REMARK    4  A    between atoms: C_2  and  C_5
REMARK    5  A    between atoms: C_7  and  C_8
REMARK    6  A    between atoms: C_8  and  N_9
REMARK    7  A    between atoms: N_9  and  C_10
REMARK    8  A    between atoms: N_9  and  C_18
REMARK    9  A    between atoms: C_10  and  C_11
REMARK                            x       y       z     vdW  Elec       q    Type
REMARK                         _______ _______ _______ _____ _____    ______ ____
ROOT
ATOM      1  N   UNL     1       2.471   5.892  18.291  0.00  0.00    +0.000 NA
ENDROOT
BRANCH   1   2
ATOM      2  C   UNL     1       1.588   4.740  18.575  0.00  0.00    +0.000 C 
ATOM      3  C   UNL     1       1.954   3.404  17.901  0.00  0.00    +0.000 C 
ATOM      4  C   UNL     1       1.148   2.357  18.671  0.00  0.00    +0.000 C 
ATOM      5  C   UNL     1       1.001   2.907  20.084  0.00  0.00    +0.000 C 
ATOM      6  C   UNL     1       1.612   4.304  20.050  0.00  0.00    +0.000 C 
ENDBRANCH   1   2
BRANCH   1   7
ATOM      7  C   UNL     1       2.812   6.685  19.497  0.00  0.00    +0.000 C 
BRANCH   7  10
ATOM      8  C   UNL     1       0.733   9.616  19.625  0.00  0.00    +0.000 A 
ATOM      9  N   UNL     1       1.544   8.865  18.901  0.00  0.00    +0.000 NA
ATOM     10  C   UNL     1       1.917   7.875  19.796  0.00  0.00    +0.000 A 
ATOM     11  N   UNL     1       1.330   7.991  20.997  0.00  0.00    +0.000 NA
ATOM     12  O   UNL     1       0.598   9.157  20.905  0.00  0.00    +0.000 OA
BRANCH   8  14
ATOM     13  C   UNL     1       0.828  11.995  18.799  0.00  0.00    +0.000 C 
ATOM     14  C   UNL     1      -0.068  10.855  19.303  0.00  0.00    +0.000 C 
ATOM     15  C   UNL     1      -0.814  11.330  20.561  0.00  0.00    +0.000 C 
ATOM     16  C   UNL     1      -1.102  10.535  18.199  0.00  0.00    +0.000 C 
ENDBRANCH   8  14
ENDBRANCH   7  10
ENDBRANCH   1   7
BRANCH   1  17
ATOM     17  C   UNL     1       3.608   5.551  17.400  0.00  0.00    +0.000 C 
BRANCH  17  18
ATOM     18  C   UNL     1       5.033   5.883  17.833  0.00  0.00    +0.000 A 
ATOM     19  C   UNL     1       5.729   6.923  17.193  0.00  0.00    +0.000 A 
ATOM     20  C   UNL     1       7.069   7.212  17.458  0.00  0.00    +0.000 A 
ATOM     21  C   UNL     1       7.762   6.464  18.395  0.00  0.00    +0.000 A 
ATOM     22  C   UNL     1       7.110   5.425  19.050  0.00  0.00    +0.000 A 
ATOM     23  C   UNL     1       5.767   5.121  18.762  0.00  0.00    +0.000 A 
ATOM     24 CL   UNL     1       5.137   3.730  19.568  0.00  0.00    +0.000 Cl
ENDBRANCH  17  18
ENDBRANCH   1  17
TORSDOF 6
ENDMDL
MODEL 6
REMARK VINA RESULT:      -7.7      1.606      4.426
REMARK  Name = 
REMARK  9 active torsions:
REMARK  status: ('A' for Active; 'I' for Inactive)
REMARK    1  A    between atoms: C_1  and  C_2
REMARK    2  A    between atoms: C_2  and  C_3
REMARK    3  A    between atoms: C_2  and  C_4
REMARK    4  A    between atoms: C_2  and  C_5
REMARK    5  A    between atoms: C_7  and  C_8
REMARK    6  A    between atoms: C_8  and  N_9
REMARK    7  A    between atoms: N_9  and  C_10
REMARK    8  A    between atoms: N_9  and  C_18
REMARK    9  A    between atoms: C_10  and  C_11
REMARK                            x       y       z     vdW  Elec       q    Type
REMARK                         _______ _______ _______ _____ _____    ______ ____
ROOT
ATOM      1  N   UNL     1       4.468   6.278  18.368  0.00  0.00    +0.000 NA
ENDROOT
BRANCH   1   2
ATOM      2  C   UNL     1       5.621   6.079  17.462  0.00  0.00    +0.000 C 
ATOM      3  C   UNL     1       6.549   4.889  17.775  0.00  0.00    +0.000 C 
ATOM      4  C   UNL     1       7.364   4.698  16.495  0.00  0.00    +0.000 C 
ATOM      5  C   UNL     1       6.461   5.160  15.358  0.00  0.00    +0.000 C 
ATOM      6  C   UNL     1       5.210   5.719  16.025  0.00  0.00    +0.000 C 
ENDBRANCH   1   2
BRANCH   1   7
ATOM      7  C   UNL     1       3.205   6.591  17.656  0.00  0.00    +0.000 C 
BRANCH   7  10
ATOM      8  C   UNL     1       1.419   9.262  19.267  0.00  0.00    +0.000 A 
ATOM      9  N   UNL     1       1.871   8.024  19.353  0.00  0.00    +0.000 NA
ATOM     10  C   UNL     1       2.462   7.833  18.114  0.00  0.00    +0.000 A 
ATOM     11  N   UNL     1       2.409   8.916  17.323  0.00  0.00    +0.000 NA
ATOM     12  O   UNL     1       1.682   9.833  18.054  0.00  0.00    +0.000 OA
BRANCH   8  14
ATOM     13  C   UNL     1       0.884   9.677  21.694  0.00  0.00    +0.000 C 
ATOM     14  C   UNL     1       0.691  10.151  20.247  0.00  0.00    +0.000 C 
ATOM     15  C   UNL     1      -0.813  10.155  19.924  0.00  0.00    +0.000 C 
ATOM     16  C   UNL     1       1.229  11.596  20.140  0.00  0.00    +0.000 C 
ENDBRANCH   8  14
ENDBRANCH   7  10
ENDBRANCH   1   7
BRANCH   1  17
ATOM     17  C   UNL     1       4.373   5.246  19.429  0.00  0.00    +0.000 C 
BRANCH  17  18
ATOM     18  C   UNL     1       3.111   4.394  19.543  0.00  0.00    +0.000 A 
ATOM     19  C   UNL     1       2.196   4.645  20.580  0.00  0.00    +0.000 A 
ATOM     20  C   UNL     1       1.079   3.841  20.814  0.00  0.00    +0.000 A 
ATOM     21  C   UNL     1       0.833   2.750  19.997  0.00  0.00    +0.000 A 
ATOM     22  C   UNL     1       1.715   2.466  18.961  0.00  0.00    +0.000 A 
ATOM     23  C   UNL     1       2.854   3.264  18.744  0.00  0.00    +0.000 A 
ATOM     24 CL   UNL     1       3.914   2.713  17.497  0.00  0.00    +0.000 Cl
ENDBRANCH  17  18
ENDBRANCH   1  17
TORSDOF 6
ENDMDL
MODEL 7
REMARK VINA RESULT:      -7.7      1.679      4.674
REMARK  Name = 
REMARK  9 active torsions:
REMARK  status: ('A' for Active; 'I' for Inactive)
REMARK    1  A    between atoms: C_1  and  C_2
REMARK    2  A    between atoms: C_2  and  C_3
REMARK    3  A    between atoms: C_2  and  C_4
REMARK    4  A    between atoms: C_2  and  C_5
REMARK    5  A    between atoms: C_7  and  C_8
REMARK    6  A    between atoms: C_8  and  N_9
REMARK    7  A    between atoms: N_9  and  C_10
REMARK    8  A    between atoms: N_9  and  C_18
REMARK    9  A    between atoms: C_10  and  C_11
REMARK                            x       y       z     vdW  Elec       q    Type
REMARK                         _______ _______ _______ _____ _____    ______ ____
ROOT
ATOM      1  N   UNL     1       4.224   5.705  18.049  0.00  0.00    +0.000 NA
ENDROOT
BRANCH   1   2
ATOM      2  C   UNL     1       5.696   5.726  17.897  0.00  0.00    +0.000 C 
ATOM      3  C   UNL     1       6.326   7.057  17.444  0.00  0.00    +0.000 C 
ATOM      4  C   UNL     1       7.814   6.901  17.764  0.00  0.00    +0.000 C 
ATOM      5  C   UNL     1       7.881   5.970  18.968  0.00  0.00    +0.000 C 
ATOM      6  C   UNL     1       6.447   5.519  19.224  0.00  0.00    +0.000 C 
ENDBRANCH   1   2
BRANCH   1   7
ATOM      7  C   UNL     1       3.540   6.792  17.310  0.00  0.00    +0.000 C 
BRANCH   7  10
ATOM      8  C   UNL     1       1.374   9.275  18.747  0.00  0.00    +0.000 A 
ATOM      9  N   UNL     1       2.039   8.872  17.679  0.00  0.00    +0.000 NA
ATOM     10  C   UNL     1       2.668   7.723  18.133  0.00  0.00    +0.000 A 
ATOM     11  N   UNL     1       2.369   7.417  19.405  0.00  0.00    +0.000 NA
ATOM     12  O   UNL     1       1.566   8.458  19.825  0.00  0.00    +0.000 OA
BRANCH   8  14
ATOM     13  C   UNL     1      -0.818  10.351  18.124  0.00  0.00    +0.000 C 
ATOM     14  C   UNL     1       0.446  10.442  18.989  0.00  0.00    +0.000 C 
ATOM     15  C   UNL     1       1.175  11.758  18.663  0.00  0.00    +0.000 C 
ATOM     16  C   UNL     1       0.012  10.466  20.472  0.00  0.00    +0.000 C 
ENDBRANCH   8  14
ENDBRANCH   7  10
ENDBRANCH   1   7
BRANCH   1  17
ATOM     17  C   UNL     1       3.640   4.350  17.893  0.00  0.00    +0.000 C 
BRANCH  17  18
ATOM     18  C   UNL     1       2.788   3.761  19.015  0.00  0.00    +0.000 A 
ATOM     19  C   UNL     1       1.460   4.190  19.175  0.00  0.00    +0.000 A 
ATOM     20  C   UNL     1       0.656   3.780  20.241  0.00  0.00    +0.000 A 
ATOM     21  C   UNL     1       1.162   2.905  21.187  0.00  0.00    +0.000 A 
ATOM     22  C   UNL     1       2.472   2.458  21.065  0.00  0.00    +0.000 A 
ATOM     23  C   UNL     1       3.287   2.893  20.004  0.00  0.00    +0.000 A 
ATOM     24 CL   UNL     1       4.924   2.344  20.058  0.00  0.00    +0.000 Cl
ENDBRANCH  17  18
ENDBRANCH   1  17
TORSDOF 6
ENDMDL
MODEL 8
REMARK VINA RESULT:      -7.7      1.695      4.535
REMARK  Name = 
REMARK  9 active torsions:
REMARK  status: ('A' for Active; 'I' for Inactive)
REMARK    1  A    between atoms: C_1  and  C_2
REMARK    2  A    between atoms: C_2  and  C_3
REMARK    3  A    between atoms: C_2  and  C_4
REMARK    4  A    between atoms: C_2  and  C_5
REMARK    5  A    between atoms: C_7  and  C_8
REMARK    6  A    between atoms: C_8  and  N_9
REMARK    7  A    between atoms: N_9  and  C_10
REMARK    8  A    between atoms: N_9  and  C_18
REMARK    9  A    between atoms: C_10  and  C_11
REMARK                            x       y       z     vdW  Elec       q    Type
REMARK                         _______ _______ _______ _____ _____    ______ ____
ROOT
ATOM      1  N   UNL     1       4.082   5.912  18.060  0.00  0.00    +0.000 NA
ENDROOT
BRANCH   1   2
ATOM      2  C   UNL     1       5.553   5.882  17.900  0.00  0.00    +0.000 C 
ATOM      3  C   UNL     1       6.380   5.581  19.165  0.00  0.00    +0.000 C 
ATOM      4  C   UNL     1       7.768   5.221  18.633  0.00  0.00    +0.000 C 
ATOM      5  C   UNL     1       7.536   4.603  17.260  0.00  0.00    +0.000 C 
ATOM      6  C   UNL     1       6.042   4.743  16.991  0.00  0.00    +0.000 C 
ENDBRANCH   1   2
BRANCH   1   7
ATOM      7  C   UNL     1       3.436   7.051  17.364  0.00  0.00    +0.000 C 
BRANCH   7  10
ATOM      8  C   UNL     1       1.155   9.400  18.849  0.00  0.00    +0.000 A 
ATOM      9  N   UNL     1       1.812   9.030  17.764  0.00  0.00    +0.000 NA
ATOM     10  C   UNL     1       2.530   7.931  18.207  0.00  0.00    +0.000 A 
ATOM     11  N   UNL     1       2.291   7.618  19.490  0.00  0.00    +0.000 NA
ATOM     12  O   UNL     1       1.434   8.608  19.926  0.00  0.00    +0.000 OA
BRANCH   8  14
ATOM     13  C   UNL     1      -0.356  10.476  20.554  0.00  0.00    +0.000 C 
ATOM     14  C   UNL     1       0.160  10.506  19.109  0.00  0.00    +0.000 C 
ATOM     15  C   UNL     1      -1.037  10.361  18.153  0.00  0.00    +0.000 C 
ATOM     16  C   UNL     1       0.829  11.878  18.867  0.00  0.00    +0.000 C 
ENDBRANCH   8  14
ENDBRANCH   7  10
ENDBRANCH   1   7
BRANCH   1  17
ATOM     17  C   UNL     1       3.445   4.587  17.860  0.00  0.00    +0.000 C 
BRANCH  17  18
ATOM     18  C   UNL     1       2.704   3.923  19.018  0.00  0.00    +0.000 A 
ATOM     19  C   UNL     1       1.381   4.300  19.303  0.00  0.00    +0.000 A 
ATOM     20  C   UNL     1       0.679   3.819  20.409  0.00  0.00    +0.000 A 
ATOM     21  C   UNL     1       1.285   2.921  21.272  0.00  0.00    +0.000 A 
ATOM     22  C   UNL     1       2.594   2.524  21.026  0.00  0.00    +0.000 A 
ATOM     23  C   UNL     1       3.307   3.031  19.925  0.00  0.00    +0.000 A 
ATOM     24 CL   UNL     1       4.959   2.534  19.823  0.00  0.00    +0.000 Cl
ENDBRANCH  17  18
ENDBRANCH   1  17
TORSDOF 6
ENDMDL
MODEL 9
REMARK VINA RESULT:      -7.7      1.801      4.329
REMARK  Name = 
REMARK  9 active torsions:
REMARK  status: ('A' for Active; 'I' for Inactive)
REMARK    1  A    between atoms: C_1  and  C_2
REMARK    2  A    between atoms: C_2  and  C_3
REMARK    3  A    between atoms: C_2  and  C_4
REMARK    4  A    between atoms: C_2  and  C_5
REMARK    5  A    between atoms: C_7  and  C_8
REMARK    6  A    between atoms: C_8  and  N_9
REMARK    7  A    between atoms: N_9  and  C_10
REMARK    8  A    between atoms: N_9  and  C_18
REMARK    9  A    between atoms: C_10  and  C_11
REMARK                            x       y       z     vdW  Elec       q    Type
REMARK                         _______ _______ _______ _____ _____    ______ ____
ROOT
ATOM      1  N   UNL     1       3.744   6.085  18.080  0.00  0.00    +0.000 NA
ENDROOT
BRANCH   1   2
ATOM      2  C   UNL     1       4.966   5.373  17.646  0.00  0.00    +0.000 C 
ATOM      3  C   UNL     1       4.848   4.506  16.377  0.00  0.00    +0.000 C 
ATOM      4  C   UNL     1       6.296   4.243  15.961  0.00  0.00    +0.000 C 
ATOM      5  C   UNL     1       7.086   5.458  16.431  0.00  0.00    +0.000 C 
ATOM      6  C   UNL     1       6.098   6.318  17.212  0.00  0.00    +0.000 C 
ENDBRANCH   1   2
BRANCH   1   7
ATOM      7  C   UNL     1       3.638   7.460  17.537  0.00  0.00    +0.000 C 
BRANCH   7  10
ATOM      8  C   UNL     1       1.117   9.252  19.369  0.00  0.00    +0.000 A 
ATOM      9  N   UNL     1       2.030   8.297  19.388  0.00  0.00    +0.000 NA
ATOM     10  C   UNL     1       2.515   8.320  18.090  0.00  0.00    +0.000 A 
ATOM     11  N   UNL     1       1.956   9.271  17.326  0.00  0.00    +0.000 NA
ATOM     12  O   UNL     1       1.004   9.846  18.144  0.00  0.00    +0.000 OA
BRANCH   8  14
ATOM     13  C   UNL     1       0.865  10.957  21.208  0.00  0.00    +0.000 C 
ATOM     14  C   UNL     1       0.203   9.808  20.435  0.00  0.00    +0.000 C 
ATOM     15  C   UNL     1      -0.173   8.694  21.427  0.00  0.00    +0.000 C 
ATOM     16  C   UNL     1      -1.089  10.352  19.783  0.00  0.00    +0.000 C 
ENDBRANCH   8  14
ENDBRANCH   7  10
ENDBRANCH   1   7
BRANCH   1  17
ATOM     17  C   UNL     1       2.518   5.255  17.981  0.00  0.00    +0.000 C 
BRANCH  17  18
ATOM     18  C   UNL     1       2.164   4.292  19.112  0.00  0.00    +0.000 A 
ATOM     19  C   UNL     1       1.989   4.787  20.415  0.00  0.00    +0.000 A 
ATOM     20  C   UNL     1       1.774   3.956  21.517  0.00  0.00    +0.000 A 
ATOM     21  C   UNL     1       1.715   2.583  21.342  0.00  0.00    +0.000 A 
ATOM     22  C   UNL     1       1.884   2.054  20.069  0.00  0.00    +0.000 A 
ATOM     23  C   UNL     1       2.127   2.893  18.965  0.00  0.00    +0.000 A 
ATOM     24 CL   UNL     1       2.435   2.078  17.473  0.00  0.00    +0.000 Cl
ENDBRANCH  17  18
ENDBRANCH   1  17
TORSDOF 6
ENDMDL
