MODEL 1
REMARK VINA RESULT:      -7.5      0.000      0.000
REMARK  Name = 
REMARK  3 active torsions:
REMARK  status: ('A' for Active; 'I' for Inactive)
REMARK    1  A    between atoms: C_4  and  N_5
REMARK    2  A    between atoms: C_12  and  C_13
REMARK    3  A    between atoms: C_16  and  C_17
REMARK                            x       y       z     vdW  Elec       q    Type
REMARK                         _______ _______ _______ _____ _____    ______ ____
ROOT
ATOM      1 CL   UNL     1       1.748   9.828  17.851  0.00  0.00    +0.000 Cl
ATOM      2  C   UNL     1       1.948   8.417  18.831  0.00  0.00    +0.000 A 
ATOM      3  C   UNL     1       2.653   7.362  18.241  0.00  0.00    +0.000 A 
ATOM      4  C   UNL     1       2.768   6.138  18.899  0.00  0.00    +0.000 A 
ATOM      5  C   UNL     1       2.181   6.032  20.150  0.00  0.00    +0.000 A 
ATOM      6  N   UNL     1       1.519   7.049  20.759  0.00  0.00    +0.000 NA
ATOM      7  C   UNL     1       1.403   8.246  20.110  0.00  0.00    +0.000 A 
ENDROOT
BRANCH   7   8
ATOM      8  C   UNL     1       0.631   9.261  20.869  0.00  0.00    +0.000 A 
ATOM      9  C   UNL     1       0.207  10.475  20.312  0.00  0.00    +0.000 A 
ATOM     10  C   UNL     1      -0.588  11.377  21.029  0.00  0.00    +0.000 A 
ATOM     11  C   UNL     1      -0.942  11.129  22.359  0.00  0.00    +0.000 A 
ATOM     12  C   UNL     1      -0.464   9.959  22.958  0.00  0.00    +0.000 A 
ATOM     13  C   UNL     1       0.304   9.043  22.221  0.00  0.00    +0.000 A 
BRANCH  11  14
ATOM     14  C   UNL     1      -1.794  12.086  23.058  0.00  0.00    +0.000 A 
ATOM     15  N   UNL     1      -1.524  13.352  23.326  0.00  0.00    +0.000 NA
ATOM     16  N   UNL     1      -2.617  13.860  23.982  0.00  0.00    +0.000 NA
ATOM     17  N   UNL     1      -3.553  12.935  24.128  0.00  0.00    +0.000 NA
ATOM     18  N   UNL     1      -3.043  11.836  23.558  0.00  0.00    +0.000 N 
ATOM     19  H   UNL     1      -3.587  10.985  23.551  0.00  0.00    +0.000 HD
ENDBRANCH  11  14
ENDBRANCH   7   8
BRANCH   4  20
ATOM     20  N   UNL     1       3.441   5.045  18.298  0.00  0.00    +0.000 N 
ATOM     21  C   UNL     1       4.255   5.081  17.186  0.00  0.00    +0.000 A 
ATOM     22  C   UNL     1       4.669   3.788  16.971  0.00  0.00    +0.000 A 
ATOM     23  N   UNL     1       4.143   2.952  17.907  0.00  0.00    +0.000 NA
ATOM     24  C   UNL     1       3.414   3.723  18.686  0.00  0.00    +0.000 A 
ENDBRANCH   4  20
TORSDOF 3
ENDMDL
MODEL 2
REMARK VINA RESULT:      -7.4      2.141      2.994
REMARK  Name = 
REMARK  3 active torsions:
REMARK  status: ('A' for Active; 'I' for Inactive)
REMARK    1  A    between atoms: C_4  and  N_5
REMARK    2  A    between atoms: C_12  and  C_13
REMARK    3  A    between atoms: C_16  and  C_17
REMARK                            x       y       z     vdW  Elec       q    Type
REMARK                         _______ _______ _______ _____ _____    ______ ____
ROOT
ATOM      1 CL   UNL     1       2.025   5.004  20.302  0.00  0.00    +0.000 Cl
ATOM      2  C   UNL     1       2.790   5.927  19.055  0.00  0.00    +0.000 A 
ATOM      3  C   UNL     1       3.698   5.228  18.252  0.00  0.00    +0.000 A 
ATOM      4  C   UNL     1       4.456   5.903  17.296  0.00  0.00    +0.000 A 
ATOM      5  C   UNL     1       4.249   7.268  17.170  0.00  0.00    +0.000 A 
ATOM      6  N   UNL     1       3.352   7.965  17.913  0.00  0.00    +0.000 NA
ATOM      7  C   UNL     1       2.614   7.302  18.854  0.00  0.00    +0.000 A 
ENDROOT
BRANCH   7   8
ATOM      8  C   UNL     1       1.696   8.182  19.618  0.00  0.00    +0.000 A 
ATOM      9  C   UNL     1       1.425   8.007  20.981  0.00  0.00    +0.000 A 
ATOM     10  C   UNL     1       0.616   8.902  21.692  0.00  0.00    +0.000 A 
ATOM     11  C   UNL     1      -0.005   9.979  21.053  0.00  0.00    +0.000 A 
ATOM     12  C   UNL     1       0.191  10.127  19.676  0.00  0.00    +0.000 A 
ATOM     13  C   UNL     1       1.031   9.246  18.977  0.00  0.00    +0.000 A 
BRANCH  11  14
ATOM     14  C   UNL     1      -0.818  10.900  21.841  0.00  0.00    +0.000 A 
ATOM     15  N   UNL     1      -0.953  10.925  23.157  0.00  0.00    +0.000 NA
ATOM     16  N   UNL     1      -1.799  11.965  23.448  0.00  0.00    +0.000 NA
ATOM     17  N   UNL     1      -2.193  12.579  22.343  0.00  0.00    +0.000 NA
ATOM     18  N   UNL     1      -1.588  11.919  21.347  0.00  0.00    +0.000 N 
ATOM     19  H   UNL     1      -1.744  12.211  20.393  0.00  0.00    +0.000 HD
ENDBRANCH  11  14
ENDBRANCH   7   8
BRANCH   4  20
ATOM     20  N   UNL     1       5.412   5.219  16.503  0.00  0.00    +0.000 N 
ATOM     21  C   UNL     1       5.164   4.240  15.565  0.00  0.00    +0.000 A 
ATOM     22  C   UNL     1       6.390   3.868  15.066  0.00  0.00    +0.000 A 
ATOM     23  N   UNL     1       7.387   4.579  15.659  0.00  0.00    +0.000 NA
ATOM     24  C   UNL     1       6.781   5.377  16.513  0.00  0.00    +0.000 A 
ENDBRANCH   4  20
TORSDOF 3
ENDMDL
MODEL 3
REMARK VINA RESULT:      -7.4      0.410      1.069
REMARK  Name = 
REMARK  3 active torsions:
REMARK  status: ('A' for Active; 'I' for Inactive)
REMARK    1  A    between atoms: C_4  and  N_5
REMARK    2  A    between atoms: C_12  and  C_13
REMARK    3  A    between atoms: C_16  and  C_17
REMARK                            x       y       z     vdW  Elec       q    Type
REMARK                         _______ _______ _______ _____ _____    ______ ____
ROOT
ATOM      1 CL   UNL     1       1.780   9.860  17.909  0.00  0.00    +0.000 Cl
ATOM      2  C   UNL     1       1.945   8.438  18.878  0.00  0.00    +0.000 A 
ATOM      3  C   UNL     1       2.651   7.382  18.292  0.00  0.00    +0.000 A 
ATOM      4  C   UNL     1       2.740   6.150  18.940  0.00  0.00    +0.000 A 
ATOM      5  C   UNL     1       2.125   6.037  20.177  0.00  0.00    +0.000 A 
ATOM      6  N   UNL     1       1.461   7.055  20.783  0.00  0.00    +0.000 NA
ATOM      7  C   UNL     1       1.370   8.259  20.144  0.00  0.00    +0.000 A 
ENDROOT
BRANCH   7   8
ATOM      8  C   UNL     1       0.593   9.274  20.897  0.00  0.00    +0.000 A 
ATOM      9  C   UNL     1       0.092  10.444  20.311  0.00  0.00    +0.000 A 
ATOM     10  C   UNL     1      -0.706  11.344  21.028  0.00  0.00    +0.000 A 
ATOM     11  C   UNL     1      -0.986  11.140  22.382  0.00  0.00    +0.000 A 
ATOM     12  C   UNL     1      -0.431  10.017  23.006  0.00  0.00    +0.000 A 
ATOM     13  C   UNL     1       0.339   9.103  22.271  0.00  0.00    +0.000 A 
BRANCH  11  14
ATOM     14  C   UNL     1      -1.844  12.091  23.082  0.00  0.00    +0.000 A 
ATOM     15  N   UNL     1      -3.069  11.883  23.535  0.00  0.00    +0.000 NA
ATOM     16  N   UNL     1      -3.475  13.050  24.131  0.00  0.00    +0.000 NA
ATOM     17  N   UNL     1      -2.530  13.975  24.052  0.00  0.00    +0.000 NA
ATOM     18  N   UNL     1      -1.521  13.383  23.401  0.00  0.00    +0.000 N 
ATOM     19  H   UNL     1      -0.677  13.905  23.217  0.00  0.00    +0.000 HD
ENDBRANCH  11  14
ENDBRANCH   7   8
BRANCH   4  20
ATOM     20  N   UNL     1       3.414   5.055  18.342  0.00  0.00    +0.000 N 
ATOM     21  C   UNL     1       3.407   3.744  18.766  0.00  0.00    +0.000 A 
ATOM     22  C   UNL     1       4.207   3.052  17.888  0.00  0.00    +0.000 A 
ATOM     23  N   UNL     1       4.709   3.884  16.936  0.00  0.00    +0.000 NA
ATOM     24  C   UNL     1       4.224   5.073  17.227  0.00  0.00    +0.000 A 
ENDBRANCH   4  20
TORSDOF 3
ENDMDL
MODEL 4
REMARK VINA RESULT:      -7.4      3.240      9.920
REMARK  Name = 
REMARK  3 active torsions:
REMARK  status: ('A' for Active; 'I' for Inactive)
REMARK    1  A    between atoms: C_4  and  N_5
REMARK    2  A    between atoms: C_12  and  C_13
REMARK    3  A    between atoms: C_16  and  C_17
REMARK                            x       y       z     vdW  Elec       q    Type
REMARK                         _______ _______ _______ _____ _____    ______ ____
ROOT
ATOM      1 CL   UNL     1       3.190   4.151  19.955  0.00  0.00    +0.000 Cl
ATOM      2  C   UNL     1       2.864   5.827  19.680  0.00  0.00    +0.000 A 
ATOM      3  C   UNL     1       2.123   6.473  20.676  0.00  0.00    +0.000 A 
ATOM      4  C   UNL     1       1.704   7.791  20.498  0.00  0.00    +0.000 A 
ATOM      5  C   UNL     1       2.074   8.421  19.319  0.00  0.00    +0.000 A 
ATOM      6  N   UNL     1       2.819   7.828  18.351  0.00  0.00    +0.000 NA
ATOM      7  C   UNL     1       3.223   6.535  18.525  0.00  0.00    +0.000 A 
ENDROOT
BRANCH   7   8
ATOM      8  C   UNL     1       4.002   5.996  17.383  0.00  0.00    +0.000 A 
ATOM      9  C   UNL     1       4.098   4.627  17.099  0.00  0.00    +0.000 A 
ATOM     10  C   UNL     1       4.775   4.156  15.968  0.00  0.00    +0.000 A 
ATOM     11  C   UNL     1       5.436   5.033  15.103  0.00  0.00    +0.000 A 
ATOM     12  C   UNL     1       5.417   6.398  15.411  0.00  0.00    +0.000 A 
ATOM     13  C   UNL     1       4.708   6.865  16.529  0.00  0.00    +0.000 A 
BRANCH  11  14
ATOM     14  C   UNL     1       6.106   4.497  13.922  0.00  0.00    +0.000 A 
ATOM     15  N   UNL     1       7.173   4.988  13.315  0.00  0.00    +0.000 NA
ATOM     16  N   UNL     1       7.451   4.150  12.264  0.00  0.00    +0.000 NA
ATOM     17  N   UNL     1       6.578   3.156  12.208  0.00  0.00    +0.000 NA
ATOM     18  N   UNL     1       5.743   3.372  13.232  0.00  0.00    +0.000 N 
ATOM     19  H   UNL     1       4.978   2.732  13.390  0.00  0.00    +0.000 HD
ENDBRANCH  11  14
ENDBRANCH   7   8
BRANCH   4  20
ATOM     20  N   UNL     1       0.916   8.448  21.477  0.00  0.00    +0.000 N 
ATOM     21  C   UNL     1      -0.460   8.471  21.554  0.00  0.00    +0.000 A 
ATOM     22  C   UNL     1      -0.769   9.236  22.654  0.00  0.00    +0.000 A 
ATOM     23  N   UNL     1       0.363   9.687  23.260  0.00  0.00    +0.000 NA
ATOM     24  C   UNL     1       1.355   9.206  22.540  0.00  0.00    +0.000 A 
ENDBRANCH   4  20
TORSDOF 3
ENDMDL
MODEL 5
REMARK VINA RESULT:      -7.3      0.249      1.015
REMARK  Name = 
REMARK  3 active torsions:
REMARK  status: ('A' for Active; 'I' for Inactive)
REMARK    1  A    between atoms: C_4  and  N_5
REMARK    2  A    between atoms: C_12  and  C_13
REMARK    3  A    between atoms: C_16  and  C_17
REMARK                            x       y       z     vdW  Elec       q    Type
REMARK                         _______ _______ _______ _____ _____    ______ ____
ROOT
ATOM      1 CL   UNL     1       1.736   9.923  17.858  0.00  0.00    +0.000 Cl
ATOM      2  C   UNL     1       1.959   8.487  18.795  0.00  0.00    +0.000 A 
ATOM      3  C   UNL     1       2.730   7.484  18.196  0.00  0.00    +0.000 A 
ATOM      4  C   UNL     1       2.872   6.242  18.814  0.00  0.00    +0.000 A 
ATOM      5  C   UNL     1       2.243   6.066  20.037  0.00  0.00    +0.000 A 
ATOM      6  N   UNL     1       1.516   7.031  20.655  0.00  0.00    +0.000 NA
ATOM      7  C   UNL     1       1.373   8.245  20.045  0.00  0.00    +0.000 A 
ENDROOT
BRANCH   7   8
ATOM      8  C   UNL     1       0.531   9.199  20.808  0.00  0.00    +0.000 A 
ATOM      9  C   UNL     1       0.363   9.130  22.197  0.00  0.00    +0.000 A 
ATOM     10  C   UNL     1      -0.374  10.093  22.899  0.00  0.00    +0.000 A 
ATOM     11  C   UNL     1      -1.024  11.134  22.230  0.00  0.00    +0.000 A 
ATOM     12  C   UNL     1      -0.932  11.176  20.835  0.00  0.00    +0.000 A 
ATOM     13  C   UNL     1      -0.163  10.227  20.142  0.00  0.00    +0.000 A 
BRANCH  11  14
ATOM     14  C   UNL     1      -1.758  12.128  23.006  0.00  0.00    +0.000 A 
ATOM     15  N   UNL     1      -1.347  13.336  23.355  0.00  0.00    +0.000 NA
ATOM     16  N   UNL     1      -2.371  13.914  24.062  0.00  0.00    +0.000 NA
ATOM     17  N   UNL     1      -3.402  13.090  24.161  0.00  0.00    +0.000 NA
ATOM     18  N   UNL     1      -3.023  11.983  23.510  0.00  0.00    +0.000 N 
ATOM     19  H   UNL     1      -3.658  11.199  23.455  0.00  0.00    +0.000 HD
ENDBRANCH  11  14
ENDBRANCH   7   8
BRANCH   4  20
ATOM     20  N   UNL     1       3.613   5.200  18.201  0.00  0.00    +0.000 N 
ATOM     21  C   UNL     1       4.589   5.332  17.236  0.00  0.00    +0.000 A 
ATOM     22  C   UNL     1       5.012   4.058  16.942  0.00  0.00    +0.000 A 
ATOM     23  N   UNL     1       4.336   3.142  17.686  0.00  0.00    +0.000 NA
ATOM     24  C   UNL     1       3.507   3.846  18.429  0.00  0.00    +0.000 A 
ENDBRANCH   4  20
TORSDOF 3
ENDMDL
MODEL 6
REMARK VINA RESULT:      -7.2      2.028      2.609
REMARK  Name = 
REMARK  3 active torsions:
REMARK  status: ('A' for Active; 'I' for Inactive)
REMARK    1  A    between atoms: C_4  and  N_5
REMARK    2  A    between atoms: C_12  and  C_13
REMARK    3  A    between atoms: C_16  and  C_17
REMARK                            x       y       z     vdW  Elec       q    Type
REMARK                         _______ _______ _______ _____ _____    ______ ____
ROOT
ATOM      1 CL   UNL     1       1.930   5.354  20.598  0.00  0.00    +0.000 Cl
ATOM      2  C   UNL     1       2.665   6.174  19.265  0.00  0.00    +0.000 A 
ATOM      3  C   UNL     1       3.546   5.410  18.492  0.00  0.00    +0.000 A 
ATOM      4  C   UNL     1       4.282   6.006  17.468  0.00  0.00    +0.000 A 
ATOM      5  C   UNL     1       4.080   7.360  17.246  0.00  0.00    +0.000 A 
ATOM      6  N   UNL     1       3.209   8.117  17.960  0.00  0.00    +0.000 NA
ATOM      7  C   UNL     1       2.494   7.533  18.967  0.00  0.00    +0.000 A 
ENDROOT
BRANCH   7   8
ATOM      8  C   UNL     1       1.603   8.475  19.688  0.00  0.00    +0.000 A 
ATOM      9  C   UNL     1       0.966   9.557  19.064  0.00  0.00    +0.000 A 
ATOM     10  C   UNL     1       0.068  10.380  19.754  0.00  0.00    +0.000 A 
ATOM     11  C   UNL     1      -0.184  10.192  21.117  0.00  0.00    +0.000 A 
ATOM     12  C   UNL     1       0.501   9.166  21.776  0.00  0.00    +0.000 A 
ATOM     13  C   UNL     1       1.373   8.323  21.069  0.00  0.00    +0.000 A 
BRANCH  11  14
ATOM     14  C   UNL     1      -1.147  11.060  21.787  0.00  0.00    +0.000 A 
ATOM     15  N   UNL     1      -1.856  12.037  21.248  0.00  0.00    +0.000 NA
ATOM     16  N   UNL     1      -2.633  12.563  22.250  0.00  0.00    +0.000 NA
ATOM     17  N   UNL     1      -2.415  11.935  23.396  0.00  0.00    +0.000 NA
ATOM     18  N   UNL     1      -1.494  11.006  23.111  0.00  0.00    +0.000 N 
ATOM     19  H   UNL     1      -1.163  10.396  23.844  0.00  0.00    +0.000 HD
ENDBRANCH  11  14
ENDBRANCH   7   8
BRANCH   4  20
ATOM     20  N   UNL     1       5.210   5.257  16.702  0.00  0.00    +0.000 N 
ATOM     21  C   UNL     1       4.970   4.080  16.026  0.00  0.00    +0.000 A 
ATOM     22  C   UNL     1       6.163   3.722  15.443  0.00  0.00    +0.000 A 
ATOM     23  N   UNL     1       7.133   4.631  15.733  0.00  0.00    +0.000 NA
ATOM     24  C   UNL     1       6.542   5.536  16.486  0.00  0.00    +0.000 A 
ENDBRANCH   4  20
TORSDOF 3
ENDMDL
MODEL 7
REMARK VINA RESULT:      -7.1      1.094      1.457
REMARK  Name = 
REMARK  3 active torsions:
REMARK  status: ('A' for Active; 'I' for Inactive)
REMARK    1  A    between atoms: C_4  and  N_5
REMARK    2  A    between atoms: C_12  and  C_13
REMARK    3  A    between atoms: C_16  and  C_17
REMARK                            x       y       z     vdW  Elec       q    Type
REMARK                         _______ _______ _______ _____ _____    ______ ____
ROOT
ATOM      1 CL   UNL     1       2.542   8.640  17.919  0.00  0.00    +0.000 Cl
ATOM      2  C   UNL     1       2.324   7.297  18.987  0.00  0.00    +0.000 A 
ATOM      3  C   UNL     1       2.823   6.071  18.532  0.00  0.00    +0.000 A 
ATOM      4  C   UNL     1       2.595   4.905  19.261  0.00  0.00    +0.000 A 
ATOM      5  C   UNL     1       1.883   5.025  20.445  0.00  0.00    +0.000 A 
ATOM      6  N   UNL     1       1.416   6.205  20.925  0.00  0.00    +0.000 NA
ATOM      7  C   UNL     1       1.635   7.346  20.206  0.00  0.00    +0.000 A 
ENDROOT
BRANCH   7   8
ATOM      8  C   UNL     1       1.046   8.560  20.823  0.00  0.00    +0.000 A 
ATOM      9  C   UNL     1       0.628   9.672  20.079  0.00  0.00    +0.000 A 
ATOM     10  C   UNL     1       0.003  10.769  20.683  0.00  0.00    +0.000 A 
ATOM     11  C   UNL     1      -0.176  10.827  22.068  0.00  0.00    +0.000 A 
ATOM     12  C   UNL     1       0.304   9.762  22.837  0.00  0.00    +0.000 A 
ATOM     13  C   UNL     1       0.899   8.650  22.221  0.00  0.00    +0.000 A 
BRANCH  11  14
ATOM     14  C   UNL     1      -0.857  11.980  22.649  0.00  0.00    +0.000 A 
ATOM     15  N   UNL     1      -0.339  13.168  22.912  0.00  0.00    +0.000 NA
ATOM     16  N   UNL     1      -1.349  13.934  23.436  0.00  0.00    +0.000 NA
ATOM     17  N   UNL     1      -2.477  13.244  23.508  0.00  0.00    +0.000 NA
ATOM     18  N   UNL     1      -2.173  12.033  23.024  0.00  0.00    +0.000 N 
ATOM     19  H   UNL     1      -2.889  11.322  22.982  0.00  0.00    +0.000 HD
ENDBRANCH  11  14
ENDBRANCH   7   8
BRANCH   4  20
ATOM     20  N   UNL     1       3.056   3.648  18.794  0.00  0.00    +0.000 N 
ATOM     21  C   UNL     1       3.033   2.450  19.476  0.00  0.00    +0.000 A 
ATOM     22  C   UNL     1       3.591   1.518  18.634  0.00  0.00    +0.000 A 
ATOM     23  N   UNL     1       3.960   2.093  17.456  0.00  0.00    +0.000 NA
ATOM     24  C   UNL     1       3.632   3.363  17.576  0.00  0.00    +0.000 A 
ENDBRANCH   4  20
TORSDOF 3
ENDMDL
MODEL 8
REMARK VINA RESULT:      -7.0      1.615      8.866
REMARK  Name = 
REMARK  3 active torsions:
REMARK  status: ('A' for Active; 'I' for Inactive)
REMARK    1  A    between atoms: C_4  and  N_5
REMARK    2  A    between atoms: C_12  and  C_13
REMARK    3  A    between atoms: C_16  and  C_17
REMARK                            x       y       z     vdW  Elec       q    Type
REMARK                         _______ _______ _______ _____ _____    ______ ____
ROOT
ATOM      1 CL   UNL     1       1.503   9.196  17.807  0.00  0.00    +0.000 Cl
ATOM      2  C   UNL     1       1.156   9.315  19.497  0.00  0.00    +0.000 A 
ATOM      3  C   UNL     1       0.661  10.550  19.930  0.00  0.00    +0.000 A 
ATOM      4  C   UNL     1       0.461  10.790  21.289  0.00  0.00    +0.000 A 
ATOM      5  C   UNL     1       0.750   9.755  22.166  0.00  0.00    +0.000 A 
ATOM      6  N   UNL     1       1.200   8.537  21.770  0.00  0.00    +0.000 NA
ATOM      7  C   UNL     1       1.401   8.306  20.438  0.00  0.00    +0.000 A 
ENDROOT
BRANCH   7   8
ATOM      8  C   UNL     1       1.924   6.950  20.142  0.00  0.00    +0.000 A 
ATOM      9  C   UNL     1       2.921   6.705  19.188  0.00  0.00    +0.000 A 
ATOM     10  C   UNL     1       3.450   5.424  18.989  0.00  0.00    +0.000 A 
ATOM     11  C   UNL     1       2.960   4.321  19.695  0.00  0.00    +0.000 A 
ATOM     12  C   UNL     1       1.911   4.532  20.596  0.00  0.00    +0.000 A 
ATOM     13  C   UNL     1       1.410   5.825  20.816  0.00  0.00    +0.000 A 
BRANCH  11  14
ATOM     14  C   UNL     1       3.561   3.010  19.472  0.00  0.00    +0.000 A 
ATOM     15  N   UNL     1       3.191   2.099  18.587  0.00  0.00    +0.000 NA
ATOM     16  N   UNL     1       4.049   1.038  18.730  0.00  0.00    +0.000 NA
ATOM     17  N   UNL     1       4.936   1.271  19.685  0.00  0.00    +0.000 NA
ATOM     18  N   UNL     1       4.633   2.491  20.147  0.00  0.00    +0.000 N 
ATOM     19  H   UNL     1       5.182   2.887  20.896  0.00  0.00    +0.000 HD
ENDBRANCH  11  14
ENDBRANCH   7   8
BRANCH   4  20
ATOM     20  N   UNL     1       0.001  12.049  21.751  0.00  0.00    +0.000 N 
ATOM     21  C   UNL     1       0.428  13.292  21.334  0.00  0.00    +0.000 A 
ATOM     22  C   UNL     1      -0.289  14.209  22.065  0.00  0.00    +0.000 A 
ATOM     23  N   UNL     1      -1.142  13.582  22.919  0.00  0.00    +0.000 NA
ATOM     24  C   UNL     1      -0.951  12.296  22.715  0.00  0.00    +0.000 A 
ENDBRANCH   4  20
TORSDOF 3
ENDMDL
MODEL 9
REMARK VINA RESULT:      -7.0      0.968      1.281
REMARK  Name = 
REMARK  3 active torsions:
REMARK  status: ('A' for Active; 'I' for Inactive)
REMARK    1  A    between atoms: C_4  and  N_5
REMARK    2  A    between atoms: C_12  and  C_13
REMARK    3  A    between atoms: C_16  and  C_17
REMARK                            x       y       z     vdW  Elec       q    Type
REMARK                         _______ _______ _______ _____ _____    ______ ____
ROOT
ATOM      1 CL   UNL     1       2.316   8.922  18.028  0.00  0.00    +0.000 Cl
ATOM      2  C   UNL     1       2.178   7.584  19.115  0.00  0.00    +0.000 A 
ATOM      3  C   UNL     1       2.743   6.382  18.675  0.00  0.00    +0.000 A 
ATOM      4  C   UNL     1       2.584   5.215  19.420  0.00  0.00    +0.000 A 
ATOM      5  C   UNL     1       1.872   5.311  20.607  0.00  0.00    +0.000 A 
ATOM      6  N   UNL     1       1.341   6.470  21.073  0.00  0.00    +0.000 NA
ATOM      7  C   UNL     1       1.493   7.612  20.338  0.00  0.00    +0.000 A 
ENDROOT
BRANCH   7   8
ATOM      8  C   UNL     1       0.840   8.799  20.941  0.00  0.00    +0.000 A 
ATOM      9  C   UNL     1       0.388   9.891  20.187  0.00  0.00    +0.000 A 
ATOM     10  C   UNL     1      -0.296  10.960  20.777  0.00  0.00    +0.000 A 
ATOM     11  C   UNL     1      -0.505  11.011  22.158  0.00  0.00    +0.000 A 
ATOM     12  C   UNL     1       0.006   9.969  22.938  0.00  0.00    +0.000 A 
ATOM     13  C   UNL     1       0.661   8.883  22.335  0.00  0.00    +0.000 A 
BRANCH  11  14
ATOM     14  C   UNL     1      -1.247  12.134  22.724  0.00  0.00    +0.000 A 
ATOM     15  N   UNL     1      -2.464  12.110  23.241  0.00  0.00    +0.000 NA
ATOM     16  N   UNL     1      -2.741  13.388  23.658  0.00  0.00    +0.000 NA
ATOM     17  N   UNL     1      -1.725  14.199  23.405  0.00  0.00    +0.000 NA
ATOM     18  N   UNL     1      -0.801  13.424  22.825  0.00  0.00    +0.000 N 
ATOM     19  H   UNL     1       0.076  13.833  22.535  0.00  0.00    +0.000 HD
ENDBRANCH  11  14
ENDBRANCH   7   8
BRANCH   4  20
ATOM     20  N   UNL     1       3.113   3.979  18.968  0.00  0.00    +0.000 N 
ATOM     21  C   UNL     1       3.130   3.509  17.673  0.00  0.00    +0.000 A 
ATOM     22  C   UNL     1       3.728   2.272  17.722  0.00  0.00    +0.000 A 
ATOM     23  N   UNL     1       4.081   1.958  18.998  0.00  0.00    +0.000 NA
ATOM     24  C   UNL     1       3.703   2.990  19.724  0.00  0.00    +0.000 A 
ENDBRANCH   4  20
TORSDOF 3
ENDMDL
