MODEL 1
REMARK VINA RESULT:      -7.4      0.000      0.000
REMARK  Name = 
REMARK  7 active torsions:
REMARK  status: ('A' for Active; 'I' for Inactive)
REMARK    1  A    between atoms: C_1  and  C_2
REMARK    2  A    between atoms: C_7  and  C_8
REMARK    3  A    between atoms: N_11  and  C_12
REMARK    4  A    between atoms: C_12  and  C_13
REMARK    5  A    between atoms: C_22  and  O_23
REMARK    6  A    between atoms: C_26  and  C_27
REMARK    7  A    between atoms: C_27  and  O_28
REMARK                            x       y       z     vdW  Elec       q    Type
REMARK                         _______ _______ _______ _____ _____    ______ ____
ROOT
ATOM      1  C   UNL     1       3.556   5.616  17.805  0.00  0.00    +0.000 C 
ATOM      2  C   UNL     1       3.063   7.055  17.513  0.00  0.00    +0.000 C 
ATOM      3  C   UNL     1       2.569   7.881  18.713  0.00  0.00    +0.000 C 
ATOM      4  N   UNL     1       1.781   7.088  19.678  0.00  0.00    +0.000 NA
ATOM      5  C   UNL     1       2.634   5.992  20.151  0.00  0.00    +0.000 C 
ATOM      6  C   UNL     1       2.835   4.976  19.017  0.00  0.00    +0.000 C 
ENDROOT
BRANCH   1  13
ATOM      7  C   UNL     1       5.148   4.519  15.484  0.00  0.00    +0.000 C 
ATOM      8  C   UNL     1       5.793   4.835  16.809  0.00  0.00    +0.000 A 
ATOM      9  C   UNL     1       7.172   4.579  16.935  0.00  0.00    +0.000 A 
ATOM     10  C   UNL     1       7.839   4.846  18.125  0.00  0.00    +0.000 A 
ATOM     11  C   UNL     1       7.139   5.379  19.204  0.00  0.00    +0.000 A 
ATOM     12  C   UNL     1       5.769   5.638  19.099  0.00  0.00    +0.000 A 
ATOM     13  C   UNL     1       5.071   5.378  17.909  0.00  0.00    +0.000 A 
ENDBRANCH   1  13
BRANCH   4  14
ATOM     14  C   UNL     1       1.274   7.953  20.764  0.00  0.00    +0.000 C 
BRANCH  14  15
ATOM     15  C   UNL     1       0.971   9.438  20.380  0.00  0.00    +0.000 C 
ATOM     16  C   UNL     1       0.565  10.266  21.619  0.00  0.00    +0.000 C 
ATOM     17  C   UNL     1       0.365  11.765  21.361  0.00  0.00    +0.000 C 
ATOM     18  C   UNL     1      -0.989  12.060  20.778  0.00  0.00    +0.000 A 
ATOM     19  C   UNL     1      -1.947  12.733  21.549  0.00  0.00    +0.000 A 
ATOM     20  C   UNL     1      -3.235  12.915  21.062  0.00  0.00    +0.000 A 
ATOM     21  C   UNL     1      -3.527  12.432  19.804  0.00  0.00    +0.000 A 
ATOM     22  N   UNL     1      -2.631  11.796  19.023  0.00  0.00    +0.000 NA
ATOM     23  C   UNL     1      -1.369  11.617  19.507  0.00  0.00    +0.000 A 
ATOM     24  C   UNL     1      -0.440  10.805  18.627  0.00  0.00    +0.000 C 
ATOM     25  C   UNL     1      -0.091   9.445  19.255  0.00  0.00    +0.000 C 
BRANCH  24  26
ATOM     26  O   UNL     1       0.701  11.543  18.188  0.00  0.00    +0.000 OA
ATOM     27  H   UNL     1       1.063  12.055  18.924  0.00  0.00    +0.000 HD
ENDBRANCH  24  26
ENDBRANCH  14  15
ENDBRANCH   4  14
BRANCH   6  28
ATOM     28  C   UNL     1       1.506   4.344  18.564  0.00  0.00    +0.000 C 
BRANCH  28  29
ATOM     29  O   UNL     1       1.617   3.814  17.247  0.00  0.00    +0.000 OA
ATOM     30  H   UNL     1       1.658   2.849  17.338  0.00  0.00    +0.000 HD
ENDBRANCH  28  29
ENDBRANCH   6  28
TORSDOF 6
ENDMDL
MODEL 2
REMARK VINA RESULT:      -7.4      2.347      8.473
REMARK  Name = 
REMARK  7 active torsions:
REMARK  status: ('A' for Active; 'I' for Inactive)
REMARK    1  A    between atoms: C_1  and  C_2
REMARK    2  A    between atoms: C_7  and  C_8
REMARK    3  A    between atoms: N_11  and  C_12
REMARK    4  A    between atoms: C_12  and  C_13
REMARK    5  A    between atoms: C_22  and  O_23
REMARK    6  A    between atoms: C_26  and  C_27
REMARK    7  A    between atoms: C_27  and  O_28
REMARK                            x       y       z     vdW  Elec       q    Type
REMARK                         _______ _______ _______ _____ _____    ______ ____
ROOT
ATOM      1  C   UNL     1      -0.212  10.455  20.038  0.00  0.00    +0.000 C 
ATOM      2  C   UNL     1       0.460   9.206  20.663  0.00  0.00    +0.000 C 
ATOM      3  C   UNL     1       1.742   8.692  19.987  0.00  0.00    +0.000 C 
ATOM      4  N   UNL     1       1.685   8.751  18.512  0.00  0.00    +0.000 NA
ATOM      5  C   UNL     1       1.455  10.150  18.135  0.00  0.00    +0.000 C 
ATOM      6  C   UNL     1       0.021  10.553  18.511  0.00  0.00    +0.000 C 
ENDROOT
BRANCH   1  13
ATOM      7  C   UNL     1      -1.424  11.173  22.710  0.00  0.00    +0.000 C 
ATOM      8  C   UNL     1      -0.561  12.143  21.945  0.00  0.00    +0.000 A 
ATOM      9  C   UNL     1      -0.355  13.414  22.514  0.00  0.00    +0.000 A 
ATOM     10  C   UNL     1       0.430  14.363  21.869  0.00  0.00    +0.000 A 
ATOM     11  C   UNL     1       1.027  14.053  20.650  0.00  0.00    +0.000 A 
ATOM     12  C   UNL     1       0.832  12.795  20.068  0.00  0.00    +0.000 A 
ATOM     13  C   UNL     1       0.044  11.819  20.697  0.00  0.00    +0.000 A 
ENDBRANCH   1  13
BRANCH   4  14
ATOM     14  C   UNL     1       2.911   8.174  17.925  0.00  0.00    +0.000 C 
BRANCH  14  15
ATOM     15  C   UNL     1       2.981   6.613  17.867  0.00  0.00    +0.000 C 
ATOM     16  C   UNL     1       1.574   5.984  17.978  0.00  0.00    +0.000 C 
ATOM     17  C   UNL     1       1.530   4.460  17.809  0.00  0.00    +0.000 C 
ATOM     18  C   UNL     1       1.899   3.743  19.078  0.00  0.00    +0.000 A 
ATOM     19  C   UNL     1       0.918   3.037  19.788  0.00  0.00    +0.000 A 
ATOM     20  C   UNL     1       1.221   2.461  21.016  0.00  0.00    +0.000 A 
ATOM     21  C   UNL     1       2.507   2.594  21.495  0.00  0.00    +0.000 A 
ATOM     22  N   UNL     1       3.483   3.250  20.835  0.00  0.00    +0.000 NA
ATOM     23  C   UNL     1       3.181   3.814  19.632  0.00  0.00    +0.000 A 
ATOM     24  C   UNL     1       4.290   4.625  18.992  0.00  0.00    +0.000 C 
ATOM     25  C   UNL     1       3.964   6.127  18.959  0.00  0.00    +0.000 C 
BRANCH  24  26
ATOM     26  O   UNL     1       4.707   4.100  17.730  0.00  0.00    +0.000 OA
ATOM     27  H   UNL     1       5.272   3.328  17.867  0.00  0.00    +0.000 HD
ENDBRANCH  24  26
ENDBRANCH  14  15
ENDBRANCH   4  14
BRANCH   6  28
ATOM     28  C   UNL     1      -1.029   9.710  17.764  0.00  0.00    +0.000 C 
BRANCH  28  29
ATOM     29  O   UNL     1      -1.643  10.467  16.725  0.00  0.00    +0.000 OA
ATOM     30  H   UNL     1      -2.471  10.012  16.502  0.00  0.00    +0.000 HD
ENDBRANCH  28  29
ENDBRANCH   6  28
TORSDOF 6
ENDMDL
MODEL 3
REMARK VINA RESULT:      -7.3      2.512      8.814
REMARK  Name = 
REMARK  7 active torsions:
REMARK  status: ('A' for Active; 'I' for Inactive)
REMARK    1  A    between atoms: C_1  and  C_2
REMARK    2  A    between atoms: C_7  and  C_8
REMARK    3  A    between atoms: N_11  and  C_12
REMARK    4  A    between atoms: C_12  and  C_13
REMARK    5  A    between atoms: C_22  and  O_23
REMARK    6  A    between atoms: C_26  and  C_27
REMARK    7  A    between atoms: C_27  and  O_28
REMARK                            x       y       z     vdW  Elec       q    Type
REMARK                         _______ _______ _______ _____ _____    ______ ____
ROOT
ATOM      1  C   UNL     1      -0.628  11.216  19.349  0.00  0.00    +0.000 C 
ATOM      2  C   UNL     1       0.680  11.562  18.594  0.00  0.00    +0.000 C 
ATOM      3  C   UNL     1       1.582  10.386  18.186  0.00  0.00    +0.000 C 
ATOM      4  N   UNL     1       1.665   9.332  19.219  0.00  0.00    +0.000 NA
ATOM      5  C   UNL     1       0.303   8.847  19.466  0.00  0.00    +0.000 C 
ATOM      6  C   UNL     1      -0.500   9.931  20.202  0.00  0.00    +0.000 C 
ENDROOT
BRANCH   1  13
ATOM      7  C   UNL     1      -3.098  12.674  20.297  0.00  0.00    +0.000 C 
ATOM      8  C   UNL     1      -3.097  11.859  19.030  0.00  0.00    +0.000 A 
ATOM      9  C   UNL     1      -4.303  11.783  18.307  0.00  0.00    +0.000 A 
ATOM     10  C   UNL     1      -4.380  11.052  17.127  0.00  0.00    +0.000 A 
ATOM     11  C   UNL     1      -3.252  10.393  16.648  0.00  0.00    +0.000 A 
ATOM     12  C   UNL     1      -2.045  10.455  17.353  0.00  0.00    +0.000 A 
ATOM     13  C   UNL     1      -1.939  11.186  18.547  0.00  0.00    +0.000 A 
ENDBRANCH   1  13
BRANCH   4  14
ATOM     14  C   UNL     1       2.604   8.271  18.799  0.00  0.00    +0.000 C 
BRANCH  14  15
ATOM     15  C   UNL     1       2.063   6.806  18.865  0.00  0.00    +0.000 C 
ATOM     16  C   UNL     1       2.043   6.281  20.319  0.00  0.00    +0.000 C 
ATOM     17  C   UNL     1       1.415   4.893  20.499  0.00  0.00    +0.000 C 
ATOM     18  C   UNL     1       2.381   3.791  20.164  0.00  0.00    +0.000 A 
ATOM     19  C   UNL     1       2.885   2.974  21.185  0.00  0.00    +0.000 A 
ATOM     20  C   UNL     1       3.859   2.023  20.906  0.00  0.00    +0.000 A 
ATOM     21  C   UNL     1       4.292   1.904  19.602  0.00  0.00    +0.000 A 
ATOM     22  N   UNL     1       3.820   2.657  18.588  0.00  0.00    +0.000 NA
ATOM     23  C   UNL     1       2.866   3.589  18.868  0.00  0.00    +0.000 A 
ATOM     24  C   UNL     1       2.454   4.473  17.708  0.00  0.00    +0.000 C 
ATOM     25  C   UNL     1       2.903   5.931  17.904  0.00  0.00    +0.000 C 
BRANCH  24  26
ATOM     26  O   UNL     1       1.074   4.339  17.368  0.00  0.00    +0.000 OA
ATOM     27  H   UNL     1       0.952   3.575  16.786  0.00  0.00    +0.000 HD
ENDBRANCH  24  26
ENDBRANCH  14  15
ENDBRANCH   4  14
BRANCH   6  28
ATOM     28  C   UNL     1       0.110  10.269  21.574  0.00  0.00    +0.000 C 
BRANCH  28  29
ATOM     29  O   UNL     1       0.744   9.129  22.145  0.00  0.00    +0.000 OA
ATOM     30  H   UNL     1       1.697   9.237  21.995  0.00  0.00    +0.000 HD
ENDBRANCH  28  29
ENDBRANCH   6  28
TORSDOF 6
ENDMDL
MODEL 4
REMARK VINA RESULT:      -7.3      2.375      8.971
REMARK  Name = 
REMARK  7 active torsions:
REMARK  status: ('A' for Active; 'I' for Inactive)
REMARK    1  A    between atoms: C_1  and  C_2
REMARK    2  A    between atoms: C_7  and  C_8
REMARK    3  A    between atoms: N_11  and  C_12
REMARK    4  A    between atoms: C_12  and  C_13
REMARK    5  A    between atoms: C_22  and  O_23
REMARK    6  A    between atoms: C_26  and  C_27
REMARK    7  A    between atoms: C_27  and  O_28
REMARK                            x       y       z     vdW  Elec       q    Type
REMARK                         _______ _______ _______ _____ _____    ______ ____
ROOT
ATOM      1  C   UNL     1      -0.306  10.972  19.248  0.00  0.00    +0.000 C 
ATOM      2  C   UNL     1       0.981  10.426  18.579  0.00  0.00    +0.000 C 
ATOM      3  C   UNL     1       1.428   9.010  18.979  0.00  0.00    +0.000 C 
ATOM      4  N   UNL     1       1.254   8.731  20.419  0.00  0.00    +0.000 NA
ATOM      5  C   UNL     1      -0.168   8.907  20.735  0.00  0.00    +0.000 C 
ATOM      6  C   UNL     1      -0.525  10.400  20.669  0.00  0.00    +0.000 C 
ENDROOT
BRANCH   1  13
ATOM      7  C   UNL     1      -2.659  12.738  19.932  0.00  0.00    +0.000 C 
ATOM      8  C   UNL     1      -2.721  11.735  18.809  0.00  0.00    +0.000 A 
ATOM      9  C   UNL     1      -3.932  11.633  18.096  0.00  0.00    +0.000 A 
ATOM     10  C   UNL     1      -4.066  10.733  17.046  0.00  0.00    +0.000 A 
ATOM     11  C   UNL     1      -2.990   9.926  16.688  0.00  0.00    +0.000 A 
ATOM     12  C   UNL     1      -1.780  10.011  17.384  0.00  0.00    +0.000 A 
ATOM     13  C   UNL     1      -1.617  10.911  18.449  0.00  0.00    +0.000 A 
ENDBRANCH   1  13
BRANCH   4  14
ATOM     14  C   UNL     1       1.770   7.387  20.751  0.00  0.00    +0.000 C 
BRANCH  14  15
ATOM     15  C   UNL     1       2.379   6.569  19.565  0.00  0.00    +0.000 C 
ATOM     16  C   UNL     1       1.404   5.473  19.080  0.00  0.00    +0.000 C 
ATOM     17  C   UNL     1       1.865   4.698  17.840  0.00  0.00    +0.000 C 
ATOM     18  C   UNL     1       2.841   3.608  18.189  0.00  0.00    +0.000 A 
ATOM     19  C   UNL     1       2.454   2.266  18.078  0.00  0.00    +0.000 A 
ATOM     20  C   UNL     1       3.308   1.254  18.499  0.00  0.00    +0.000 A 
ATOM     21  C   UNL     1       4.539   1.614  19.006  0.00  0.00    +0.000 A 
ATOM     22  N   UNL     1       4.956   2.891  19.112  0.00  0.00    +0.000 NA
ATOM     23  C   UNL     1       4.114   3.880  18.700  0.00  0.00    +0.000 A 
ATOM     24  C   UNL     1       4.598   5.296  18.943  0.00  0.00    +0.000 C 
ATOM     25  C   UNL     1       3.756   6.020  20.007  0.00  0.00    +0.000 C 
BRANCH  24  26
ATOM     26  O   UNL     1       4.765   6.043  17.737  0.00  0.00    +0.000 OA
ATOM     27  H   UNL     1       3.980   6.584  17.575  0.00  0.00    +0.000 HD
ENDBRANCH  24  26
ENDBRANCH  14  15
ENDBRANCH   4  14
BRANCH   6  28
ATOM     28  C   UNL     1       0.267  11.229  21.697  0.00  0.00    +0.000 C 
BRANCH  28  29
ATOM     29  O   UNL     1      -0.388  11.231  22.962  0.00  0.00    +0.000 OA
ATOM     30  H   UNL     1      -0.965  12.011  22.975  0.00  0.00    +0.000 HD
ENDBRANCH  28  29
ENDBRANCH   6  28
TORSDOF 6
ENDMDL
MODEL 5
REMARK VINA RESULT:      -7.2      1.067      1.143
REMARK  Name = 
REMARK  7 active torsions:
REMARK  status: ('A' for Active; 'I' for Inactive)
REMARK    1  A    between atoms: C_1  and  C_2
REMARK    2  A    between atoms: C_7  and  C_8
REMARK    3  A    between atoms: N_11  and  C_12
REMARK    4  A    between atoms: C_12  and  C_13
REMARK    5  A    between atoms: C_22  and  O_23
REMARK    6  A    between atoms: C_26  and  C_27
REMARK    7  A    between atoms: C_27  and  O_28
REMARK                            x       y       z     vdW  Elec       q    Type
REMARK                         _______ _______ _______ _____ _____    ______ ____
ROOT
ATOM      1  C   UNL     1       3.698   5.852  17.516  0.00  0.00    +0.000 C 
ATOM      2  C   UNL     1       3.338   7.264  16.990  0.00  0.00    +0.000 C 
ATOM      3  C   UNL     1       2.813   8.279  18.020  0.00  0.00    +0.000 C 
ATOM      4  N   UNL     1       1.894   7.680  19.009  0.00  0.00    +0.000 NA
ATOM      5  C   UNL     1       2.623   6.609  19.699  0.00  0.00    +0.000 C 
ATOM      6  C   UNL     1       2.838   5.434  18.733  0.00  0.00    +0.000 C 
ENDROOT
BRANCH   1  13
ATOM      7  C   UNL     1       5.463   4.618  15.398  0.00  0.00    +0.000 C 
ATOM      8  C   UNL     1       5.982   4.930  16.778  0.00  0.00    +0.000 A 
ATOM      9  C   UNL     1       7.324   4.604  17.055  0.00  0.00    +0.000 A 
ATOM     10  C   UNL     1       7.875   4.864  18.304  0.00  0.00    +0.000 A 
ATOM     11  C   UNL     1       7.096   5.458  19.293  0.00  0.00    +0.000 A 
ATOM     12  C   UNL     1       5.760   5.787  19.037  0.00  0.00    +0.000 A 
ATOM     13  C   UNL     1       5.178   5.537  17.785  0.00  0.00    +0.000 A 
ENDBRANCH   1  13
BRANCH   4  14
ATOM     14  C   UNL     1       1.368   8.718  19.919  0.00  0.00    +0.000 C 
BRANCH  14  15
ATOM     15  C   UNL     1       0.704   9.960  19.240  0.00  0.00    +0.000 C 
ATOM     16  C   UNL     1       1.195  11.278  19.881  0.00  0.00    +0.000 C 
ATOM     17  C   UNL     1       0.691  12.557  19.200  0.00  0.00    +0.000 C 
ATOM     18  C   UNL     1      -0.702  12.916  19.641  0.00  0.00    +0.000 A 
ATOM     19  C   UNL     1      -0.907  14.046  20.445  0.00  0.00    +0.000 A 
ATOM     20  C   UNL     1      -2.171  14.327  20.947  0.00  0.00    +0.000 A 
ATOM     21  C   UNL     1      -3.205  13.477  20.615  0.00  0.00    +0.000 A 
ATOM     22  N   UNL     1      -3.053  12.391  19.831  0.00  0.00    +0.000 NA
ATOM     23  C   UNL     1      -1.810  12.118  19.342  0.00  0.00    +0.000 A 
ATOM     24  C   UNL     1      -1.685  10.829  18.556  0.00  0.00    +0.000 C 
ATOM     25  C   UNL     1      -0.832   9.782  19.292  0.00  0.00    +0.000 C 
BRANCH  24  26
ATOM     26  O   UNL     1      -1.290  11.039  17.199  0.00  0.00    +0.000 OA
ATOM     27  H   UNL     1      -1.092  11.975  17.057  0.00  0.00    +0.000 HD
ENDBRANCH  24  26
ENDBRANCH  14  15
ENDBRANCH   4  14
BRANCH   6  28
ATOM     28  C   UNL     1       1.506   4.829  18.253  0.00  0.00    +0.000 C 
BRANCH  28  29
ATOM     29  O   UNL     1       1.730   3.806  17.288  0.00  0.00    +0.000 OA
ATOM     30  H   UNL     1       2.575   3.388  17.517  0.00  0.00    +0.000 HD
ENDBRANCH  28  29
ENDBRANCH   6  28
TORSDOF 6
ENDMDL
MODEL 6
REMARK VINA RESULT:      -7.2      2.612      8.729
REMARK  Name = 
REMARK  7 active torsions:
REMARK  status: ('A' for Active; 'I' for Inactive)
REMARK    1  A    between atoms: C_1  and  C_2
REMARK    2  A    between atoms: C_7  and  C_8
REMARK    3  A    between atoms: N_11  and  C_12
REMARK    4  A    between atoms: C_12  and  C_13
REMARK    5  A    between atoms: C_22  and  O_23
REMARK    6  A    between atoms: C_26  and  C_27
REMARK    7  A    between atoms: C_27  and  O_28
REMARK                            x       y       z     vdW  Elec       q    Type
REMARK                         _______ _______ _______ _____ _____    ______ ____
ROOT
ATOM      1  C   UNL     1      -0.322  10.989  19.339  0.00  0.00    +0.000 C 
ATOM      2  C   UNL     1       1.063  10.581  18.778  0.00  0.00    +0.000 C 
ATOM      3  C   UNL     1       1.596   9.194  19.176  0.00  0.00    +0.000 C 
ATOM      4  N   UNL     1       1.318   8.848  20.585  0.00  0.00    +0.000 NA
ATOM      5  C   UNL     1      -0.137   8.889  20.771  0.00  0.00    +0.000 C 
ATOM      6  C   UNL     1      -0.617  10.347  20.717  0.00  0.00    +0.000 C 
ENDROOT
BRANCH   1  13
ATOM      7  C   UNL     1      -2.834  12.608  19.783  0.00  0.00    +0.000 C 
ATOM      8  C   UNL     1      -2.727  11.601  18.667  0.00  0.00    +0.000 A 
ATOM      9  C   UNL     1      -3.856  11.424  17.844  0.00  0.00    +0.000 A 
ATOM     10  C   UNL     1      -3.834  10.515  16.793  0.00  0.00    +0.000 A 
ATOM     11  C   UNL     1      -2.681   9.774  16.544  0.00  0.00    +0.000 A 
ATOM     12  C   UNL     1      -1.551   9.935  17.352  0.00  0.00    +0.000 A 
ATOM     13  C   UNL     1      -1.545  10.845  18.420  0.00  0.00    +0.000 A 
ENDBRANCH   1  13
BRANCH   4  14
ATOM     14  C   UNL     1       1.920   7.542  20.923  0.00  0.00    +0.000 C 
BRANCH  14  15
ATOM     15  C   UNL     1       1.531   6.341  19.999  0.00  0.00    +0.000 C 
ATOM     16  C   UNL     1       1.400   5.031  20.808  0.00  0.00    +0.000 C 
ATOM     17  C   UNL     1       0.902   3.821  20.007  0.00  0.00    +0.000 C 
ATOM     18  C   UNL     1       2.010   3.172  19.223  0.00  0.00    +0.000 A 
ATOM     19  C   UNL     1       2.476   1.905  19.598  0.00  0.00    +0.000 A 
ATOM     20  C   UNL     1       3.569   1.341  18.950  0.00  0.00    +0.000 A 
ATOM     21  C   UNL     1       4.158   2.058  17.929  0.00  0.00    +0.000 A 
ATOM     22  N   UNL     1       3.728   3.271  17.526  0.00  0.00    +0.000 NA
ATOM     23  C   UNL     1       2.657   3.820  18.166  0.00  0.00    +0.000 A 
ATOM     24  C   UNL     1       2.290   5.226  17.739  0.00  0.00    +0.000 C 
ATOM     25  C   UNL     1       2.560   6.257  18.848  0.00  0.00    +0.000 C 
BRANCH  24  26
ATOM     26  O   UNL     1       0.979   5.315  17.180  0.00  0.00    +0.000 OA
ATOM     27  H   UNL     1       0.595   4.430  17.100  0.00  0.00    +0.000 HD
ENDBRANCH  24  26
ENDBRANCH  14  15
ENDBRANCH   4  14
BRANCH   6  28
ATOM     28  C   UNL     1       0.002  11.202  21.838  0.00  0.00    +0.000 C 
BRANCH  28  29
ATOM     29  O   UNL     1       0.125  10.450  23.041  0.00  0.00    +0.000 OA
ATOM     30  H   UNL     1      -0.610   9.816  23.050  0.00  0.00    +0.000 HD
ENDBRANCH  28  29
ENDBRANCH   6  28
TORSDOF 6
ENDMDL
MODEL 7
REMARK VINA RESULT:      -7.2      2.400      9.196
REMARK  Name = 
REMARK  7 active torsions:
REMARK  status: ('A' for Active; 'I' for Inactive)
REMARK    1  A    between atoms: C_1  and  C_2
REMARK    2  A    between atoms: C_7  and  C_8
REMARK    3  A    between atoms: N_11  and  C_12
REMARK    4  A    between atoms: C_12  and  C_13
REMARK    5  A    between atoms: C_22  and  O_23
REMARK    6  A    between atoms: C_26  and  C_27
REMARK    7  A    between atoms: C_27  and  O_28
REMARK                            x       y       z     vdW  Elec       q    Type
REMARK                         _______ _______ _______ _____ _____    ______ ____
ROOT
ATOM      1  C   UNL     1      -0.357  11.505  21.252  0.00  0.00    +0.000 C 
ATOM      2  C   UNL     1       0.786  11.908  20.286  0.00  0.00    +0.000 C 
ATOM      3  C   UNL     1       1.222  10.862  19.246  0.00  0.00    +0.000 C 
ATOM      4  N   UNL     1       1.256   9.487  19.785  0.00  0.00    +0.000 NA
ATOM      5  C   UNL     1      -0.091   9.169  20.270  0.00  0.00    +0.000 C 
ATOM      6  C   UNL     1      -0.384   9.985  21.539  0.00  0.00    +0.000 C 
ENDROOT
BRANCH   1  13
ATOM      7  C   UNL     1      -2.142  12.641  23.408  0.00  0.00    +0.000 C 
ATOM      8  C   UNL     1      -2.607  12.512  21.980  0.00  0.00    +0.000 A 
ATOM      9  C   UNL     1      -3.922  12.924  21.688  0.00  0.00    +0.000 A 
ATOM     10  C   UNL     1      -4.422  12.839  20.394  0.00  0.00    +0.000 A 
ATOM     11  C   UNL     1      -3.615  12.347  19.372  0.00  0.00    +0.000 A 
ATOM     12  C   UNL     1      -2.307  11.931  19.644  0.00  0.00    +0.000 A 
ATOM     13  C   UNL     1      -1.776  12.007  20.940  0.00  0.00    +0.000 A 
ENDBRANCH   1  13
BRANCH   4  14
ATOM     14  C   UNL     1       1.753   8.545  18.762  0.00  0.00    +0.000 C 
BRANCH  14  15
ATOM     15  C   UNL     1       2.432   7.241  19.295  0.00  0.00    +0.000 C 
ATOM     16  C   UNL     1       3.401   6.645  18.249  0.00  0.00    +0.000 C 
ATOM     17  C   UNL     1       4.206   5.430  18.729  0.00  0.00    +0.000 C 
ATOM     18  C   UNL     1       3.408   4.158  18.646  0.00  0.00    +0.000 A 
ATOM     19  C   UNL     1       3.748   3.185  17.696  0.00  0.00    +0.000 A 
ATOM     20  C   UNL     1       2.955   2.056  17.537  0.00  0.00    +0.000 A 
ATOM     21  C   UNL     1       1.847   1.922  18.347  0.00  0.00    +0.000 A 
ATOM     22  N   UNL     1       1.496   2.826  19.284  0.00  0.00    +0.000 NA
ATOM     23  C   UNL     1       2.276   3.933  19.435  0.00  0.00    +0.000 A 
ATOM     24  C   UNL     1       1.771   4.959  20.429  0.00  0.00    +0.000 C 
ATOM     25  C   UNL     1       1.323   6.260  19.741  0.00  0.00    +0.000 C 
BRANCH  24  26
ATOM     26  O   UNL     1       2.668   5.167  21.521  0.00  0.00    +0.000 OA
ATOM     27  H   UNL     1       3.091   4.331  21.761  0.00  0.00    +0.000 HD
ENDBRANCH  24  26
ENDBRANCH  14  15
ENDBRANCH   4  14
BRANCH   6  28
ATOM     28  C   UNL     1       0.593   9.648  22.680  0.00  0.00    +0.000 C 
BRANCH  28  29
ATOM     29  O   UNL     1      -0.045   9.763  23.948  0.00  0.00    +0.000 OA
ATOM     30  H   UNL     1       0.588   9.440  24.608  0.00  0.00    +0.000 HD
ENDBRANCH  28  29
ENDBRANCH   6  28
TORSDOF 6
ENDMDL
MODEL 8
REMARK VINA RESULT:      -7.2      2.250      8.959
REMARK  Name = 
REMARK  7 active torsions:
REMARK  status: ('A' for Active; 'I' for Inactive)
REMARK    1  A    between atoms: C_1  and  C_2
REMARK    2  A    between atoms: C_7  and  C_8
REMARK    3  A    between atoms: N_11  and  C_12
REMARK    4  A    between atoms: C_12  and  C_13
REMARK    5  A    between atoms: C_22  and  O_23
REMARK    6  A    between atoms: C_26  and  C_27
REMARK    7  A    between atoms: C_27  and  O_28
REMARK                            x       y       z     vdW  Elec       q    Type
REMARK                         _______ _______ _______ _____ _____    ______ ____
ROOT
ATOM      1  C   UNL     1       0.248  10.554  19.262  0.00  0.00    +0.000 C 
ATOM      2  C   UNL     1       1.398  10.114  18.320  0.00  0.00    +0.000 C 
ATOM      3  C   UNL     1       1.807   8.632  18.366  0.00  0.00    +0.000 C 
ATOM      4  N   UNL     1       1.811   8.072  19.732  0.00  0.00    +0.000 NA
ATOM      5  C   UNL     1       0.458   8.227  20.278  0.00  0.00    +0.000 C 
ATOM      6  C   UNL     1       0.187   9.713  20.559  0.00  0.00    +0.000 C 
ENDROOT
BRANCH   1  13
ATOM      7  C   UNL     1      -1.700  12.623  20.286  0.00  0.00    +0.000 C 
ATOM      8  C   UNL     1      -2.069  11.665  19.182  0.00  0.00    +0.000 A 
ATOM      9  C   UNL     1      -3.372  11.755  18.655  0.00  0.00    +0.000 A 
ATOM     10  C   UNL     1      -3.785  10.907  17.634  0.00  0.00    +0.000 A 
ATOM     11  C   UNL     1      -2.901   9.962  17.120  0.00  0.00    +0.000 A 
ATOM     12  C   UNL     1      -1.604   9.857  17.633  0.00  0.00    +0.000 A 
ATOM     13  C   UNL     1      -1.160  10.700  18.663  0.00  0.00    +0.000 A 
ENDBRANCH   1  13
BRANCH   4  14
ATOM     14  C   UNL     1       2.284   6.673  19.715  0.00  0.00    +0.000 C 
BRANCH  14  15
ATOM     15  C   UNL     1       3.715   6.435  19.131  0.00  0.00    +0.000 C 
ATOM     16  C   UNL     1       3.889   7.144  17.768  0.00  0.00    +0.000 C 
ATOM     17  C   UNL     1       5.301   7.068  17.174  0.00  0.00    +0.000 C 
ATOM     18  C   UNL     1       5.546   5.761  16.472  0.00  0.00    +0.000 A 
ATOM     19  C   UNL     1       5.666   5.733  15.076  0.00  0.00    +0.000 A 
ATOM     20  C   UNL     1       5.784   4.520  14.407  0.00  0.00    +0.000 A 
ATOM     21  C   UNL     1       5.797   3.364  15.159  0.00  0.00    +0.000 A 
ATOM     22  N   UNL     1       5.703   3.349  16.504  0.00  0.00    +0.000 NA
ATOM     23  C   UNL     1       5.585   4.541  17.154  0.00  0.00    +0.000 A 
ATOM     24  C   UNL     1       5.378   4.451  18.653  0.00  0.00    +0.000 C 
ATOM     25  C   UNL     1       3.971   4.910  19.072  0.00  0.00    +0.000 C 
BRANCH  24  26
ATOM     26  O   UNL     1       6.429   5.067  19.399  0.00  0.00    +0.000 OA
ATOM     27  H   UNL     1       6.640   5.930  19.017  0.00  0.00    +0.000 HD
ENDBRANCH  24  26
ENDBRANCH  14  15
ENDBRANCH   4  14
BRANCH   6  28
ATOM     28  C   UNL     1       1.159  10.289  21.605  0.00  0.00    +0.000 C 
BRANCH  28  29
ATOM     29  O   UNL     1       1.738   9.250  22.388  0.00  0.00    +0.000 OA
ATOM     30  H   UNL     1       2.076   9.666  23.197  0.00  0.00    +0.000 HD
ENDBRANCH  28  29
ENDBRANCH   6  28
TORSDOF 6
ENDMDL
MODEL 9
REMARK VINA RESULT:      -7.1      2.195      8.799
REMARK  Name = 
REMARK  7 active torsions:
REMARK  status: ('A' for Active; 'I' for Inactive)
REMARK    1  A    between atoms: C_1  and  C_2
REMARK    2  A    between atoms: C_7  and  C_8
REMARK    3  A    between atoms: N_11  and  C_12
REMARK    4  A    between atoms: C_12  and  C_13
REMARK    5  A    between atoms: C_22  and  O_23
REMARK    6  A    between atoms: C_26  and  C_27
REMARK    7  A    between atoms: C_27  and  O_28
REMARK                            x       y       z     vdW  Elec       q    Type
REMARK                         _______ _______ _______ _____ _____    ______ ____
ROOT
ATOM      1  C   UNL     1      -0.541  11.058  20.558  0.00  0.00    +0.000 C 
ATOM      2  C   UNL     1       0.043   9.755  21.158  0.00  0.00    +0.000 C 
ATOM      3  C   UNL     1       1.217   9.106  20.406  0.00  0.00    +0.000 C 
ATOM      4  N   UNL     1       1.065   9.155  18.938  0.00  0.00    +0.000 NA
ATOM      5  C   UNL     1       0.951  10.566  18.552  0.00  0.00    +0.000 C 
ATOM      6  C   UNL     1      -0.406  11.116  19.017  0.00  0.00    +0.000 C 
ENDROOT
BRANCH   1  13
ATOM      7  C   UNL     1      -2.168  12.413  22.713  0.00  0.00    +0.000 C 
ATOM      8  C   UNL     1      -0.904  13.028  22.170  0.00  0.00    +0.000 A 
ATOM      9  C   UNL     1      -0.515  14.277  22.691  0.00  0.00    +0.000 A 
ATOM     10  C   UNL     1       0.640  14.907  22.242  0.00  0.00    +0.000 A 
ATOM     11  C   UNL     1       1.427  14.294  21.271  0.00  0.00    +0.000 A 
ATOM     12  C   UNL     1       1.056  13.055  20.739  0.00  0.00    +0.000 A 
ATOM     13  C   UNL     1      -0.105  12.396  21.174  0.00  0.00    +0.000 A 
ENDBRANCH   1  13
BRANCH   4  14
ATOM     14  C   UNL     1       2.184   8.451  18.279  0.00  0.00    +0.000 C 
BRANCH  14  15
ATOM     15  C   UNL     1       2.736   7.188  19.018  0.00  0.00    +0.000 C 
ATOM     16  C   UNL     1       3.840   6.492  18.190  0.00  0.00    +0.000 C 
ATOM     17  C   UNL     1       4.527   5.312  18.888  0.00  0.00    +0.000 C 
ATOM     18  C   UNL     1       3.718   4.048  18.785  0.00  0.00    +0.000 A 
ATOM     19  C   UNL     1       4.175   2.993  17.984  0.00  0.00    +0.000 A 
ATOM     20  C   UNL     1       3.386   1.865  17.794  0.00  0.00    +0.000 A 
ATOM     21  C   UNL     1       2.162   1.816  18.427  0.00  0.00    +0.000 A 
ATOM     22  N   UNL     1       1.694   2.801  19.220  0.00  0.00    +0.000 NA
ATOM     23  C   UNL     1       2.471   3.906  19.401  0.00  0.00    +0.000 A 
ATOM     24  C   UNL     1       1.844   5.020  20.216  0.00  0.00    +0.000 C 
ATOM     25  C   UNL     1       1.544   6.263  19.362  0.00  0.00    +0.000 C 
BRANCH  24  26
ATOM     26  O   UNL     1       2.565   5.308  21.414  0.00  0.00    +0.000 OA
ATOM     27  H   UNL     1       2.512   6.254  21.611  0.00  0.00    +0.000 HD
ENDBRANCH  24  26
ENDBRANCH  14  15
ENDBRANCH   4  14
BRANCH   6  28
ATOM     28  C   UNL     1      -1.585  10.376  18.358  0.00  0.00    +0.000 C 
BRANCH  28  29
ATOM     29  O   UNL     1      -1.238   9.929  17.051  0.00  0.00    +0.000 OA
ATOM     30  H   UNL     1      -2.021  10.064  16.494  0.00  0.00    +0.000 HD
ENDBRANCH  28  29
ENDBRANCH   6  28
TORSDOF 6
ENDMDL
