MODEL 1
REMARK VINA RESULT:      -9.0      0.000      0.000
REMARK  Name = 
REMARK  5 active torsions:
REMARK  status: ('A' for Active; 'I' for Inactive)
REMARK    1  A    between atoms: C_1  and  O_2
REMARK    2  A    between atoms: O_2  and  C_3
REMARK    3  A    between atoms: C_6  and  C_7
REMARK    4  A    between atoms: C_9  and  C_10
REMARK    5  A    between atoms: N_21  and  C_22
REMARK                            x       y       z     vdW  Elec       q    Type
REMARK                         _______ _______ _______ _____ _____    ______ ____
ROOT
ATOM      1  C   UNL     1      -0.702  10.845  18.511  0.00  0.00    +0.000 A 
ATOM      2  C   UNL     1      -0.045   9.713  18.038  0.00  0.00    +0.000 A 
ATOM      3  C   UNL     1       1.076   9.482  18.858  0.00  0.00    +0.000 A 
ATOM      4  N   UNL     1       1.104  10.440  19.799  0.00  0.00    +0.000 NA
ATOM      5  N   UNL     1       0.161  11.391  19.447  0.00  0.00    +0.000 N 
ENDROOT
BRANCH   5   6
ATOM      6  C   UNL     1       0.025  12.555  20.363  0.00  0.00    +0.000 C 
ATOM      7  C   UNL     1       0.014  13.892  19.559  0.00  0.00    +0.000 C 
ATOM      8  O   UNL     1       0.061  14.107  18.356  0.00  0.00    +0.000 OA
ATOM      9  N   UNL     1      -0.348  14.902  20.449  0.00  0.00    +0.000 N 
ATOM     10  C   UNL     1      -1.153  14.314  21.422  0.00  0.00    +0.000 A 
ATOM     11  C   UNL     1      -1.974  15.078  22.258  0.00  0.00    +0.000 A 
ATOM     12  C   UNL     1      -2.798  14.397  23.119  0.00  0.00    +0.000 A 
ATOM     13  C   UNL     1      -2.762  12.996  23.146  0.00  0.00    +0.000 A 
ATOM     14 CL   UNL     1      -3.780  12.191  24.281  0.00  0.00    +0.000 Cl
ATOM     15  C   UNL     1      -1.910  12.247  22.289  0.00  0.00    +0.000 A 
ATOM     16  C   UNL     1      -1.098  12.904  21.368  0.00  0.00    +0.000 A 
ATOM     17  H   UNL     1       0.446  15.394  20.846  0.00  0.00    +0.000 HD
ENDBRANCH   5   6
BRANCH   3  18
ATOM     18  C   UNL     1       2.005   8.318  18.817  0.00  0.00    +0.000 A 
ATOM     19  C   UNL     1       2.007   7.345  19.830  0.00  0.00    +0.000 A 
ATOM     20  C   UNL     1       2.807   6.191  19.736  0.00  0.00    +0.000 A 
ATOM     21  C   UNL     1       3.638   5.962  18.635  0.00  0.00    +0.000 A 
ATOM     22  C   UNL     1       4.380   4.767  18.474  0.00  0.00    +0.000 A 
ATOM     23  C   UNL     1       5.207   4.558  17.369  0.00  0.00    +0.000 A 
ATOM     24  C   UNL     1       5.348   5.565  16.423  0.00  0.00    +0.000 A 
ATOM     25  C   UNL     1       4.618   6.754  16.565  0.00  0.00    +0.000 A 
ATOM     26  C   UNL     1       3.723   6.959  17.638  0.00  0.00    +0.000 A 
ATOM     27  C   UNL     1       2.906   8.121  17.750  0.00  0.00    +0.000 A 
ENDBRANCH   3  18
BRANCH   1  31
ATOM     28  C   UNL     1      -4.680  11.788  17.295  0.00  0.00    +0.000 A 
ATOM     29  C   UNL     1      -4.307  11.940  18.633  0.00  0.00    +0.000 A 
ATOM     30  C   UNL     1      -3.005  11.649  19.049  0.00  0.00    +0.000 A 
ATOM     31  C   UNL     1      -2.041  11.262  18.116  0.00  0.00    +0.000 A 
ATOM     32  C   UNL     1      -2.425  11.113  16.776  0.00  0.00    +0.000 A 
ATOM     33  C   UNL     1      -3.736  11.359  16.368  0.00  0.00    +0.000 A 
BRANCH  28  35
ATOM     34  C   UNL     1      -6.921  11.646  18.041  0.00  0.00    +0.000 C 
ATOM     35  O   UNL     1      -5.996  12.043  17.036  0.00  0.00    +0.000 OA
ENDBRANCH  28  35
ENDBRANCH   1  31
TORSDOF 4
ENDMDL
MODEL 2
REMARK VINA RESULT:      -8.9      2.371      3.001
REMARK  Name = 
REMARK  5 active torsions:
REMARK  status: ('A' for Active; 'I' for Inactive)
REMARK    1  A    between atoms: C_1  and  O_2
REMARK    2  A    between atoms: O_2  and  C_3
REMARK    3  A    between atoms: C_6  and  C_7
REMARK    4  A    between atoms: C_9  and  C_10
REMARK    5  A    between atoms: N_21  and  C_22
REMARK                            x       y       z     vdW  Elec       q    Type
REMARK                         _______ _______ _______ _____ _____    ______ ____
ROOT
ATOM      1  C   UNL     1      -0.726  10.898  18.310  0.00  0.00    +0.000 A 
ATOM      2  C   UNL     1      -0.136   9.686  17.962  0.00  0.00    +0.000 A 
ATOM      3  C   UNL     1       1.078   9.572  18.666  0.00  0.00    +0.000 A 
ATOM      4  N   UNL     1       1.226  10.676  19.417  0.00  0.00    +0.000 NA
ATOM      5  N   UNL     1       0.248  11.576  19.024  0.00  0.00    +0.000 N 
ENDROOT
BRANCH   5   6
ATOM      6  C   UNL     1       0.231  12.882  19.735  0.00  0.00    +0.000 C 
ATOM      7  C   UNL     1       0.139  12.671  21.278  0.00  0.00    +0.000 C 
ATOM      8  O   UNL     1       0.116  11.649  21.949  0.00  0.00    +0.000 OA
ATOM      9  N   UNL     1       0.364  13.910  21.875  0.00  0.00    +0.000 N 
ATOM     10  C   UNL     1       1.187  14.631  21.013  0.00  0.00    +0.000 A 
ATOM     11  C   UNL     1       1.894  15.758  21.442  0.00  0.00    +0.000 A 
ATOM     12  C   UNL     1       2.750  16.342  20.541  0.00  0.00    +0.000 A 
ATOM     13  C   UNL     1       2.853  15.814  19.247  0.00  0.00    +0.000 A 
ATOM     14 CL   UNL     1       3.904  16.614  18.138  0.00  0.00    +0.000 Cl
ATOM     15  C   UNL     1       2.114  14.671  18.836  0.00  0.00    +0.000 A 
ATOM     16  C   UNL     1       1.275  14.024  19.741  0.00  0.00    +0.000 A 
ATOM     17  H   UNL     1      -0.490  14.408  22.106  0.00  0.00    +0.000 HD
ENDBRANCH   5   6
BRANCH   3  18
ATOM     18  C   UNL     1       1.992   8.397  18.713  0.00  0.00    +0.000 A 
ATOM     19  C   UNL     1       1.953   7.480  19.776  0.00  0.00    +0.000 A 
ATOM     20  C   UNL     1       2.740   6.312  19.765  0.00  0.00    +0.000 A 
ATOM     21  C   UNL     1       3.597   6.015  18.702  0.00  0.00    +0.000 A 
ATOM     22  C   UNL     1       4.328   4.805  18.625  0.00  0.00    +0.000 A 
ATOM     23  C   UNL     1       5.182   4.527  17.556  0.00  0.00    +0.000 A 
ATOM     24  C   UNL     1       5.362   5.481  16.562  0.00  0.00    +0.000 A 
ATOM     25  C   UNL     1       4.644   6.684  16.621  0.00  0.00    +0.000 A 
ATOM     26  C   UNL     1       3.724   6.957  17.656  0.00  0.00    +0.000 A 
ATOM     27  C   UNL     1       2.920   8.133  17.684  0.00  0.00    +0.000 A 
ENDBRANCH   3  18
BRANCH   1  31
ATOM     28  C   UNL     1      -4.816  11.714  17.414  0.00  0.00    +0.000 A 
ATOM     29  C   UNL     1      -4.324  11.954  18.699  0.00  0.00    +0.000 A 
ATOM     30  C   UNL     1      -2.985  11.705  19.010  0.00  0.00    +0.000 A 
ATOM     31  C   UNL     1      -2.103  11.273  18.017  0.00  0.00    +0.000 A 
ATOM     32  C   UNL     1      -2.607  11.036  16.729  0.00  0.00    +0.000 A 
ATOM     33  C   UNL     1      -3.954  11.240  16.431  0.00  0.00    +0.000 A 
BRANCH  28  35
ATOM     34  C   UNL     1      -6.967  11.660  18.398  0.00  0.00    +0.000 C 
ATOM     35  O   UNL     1      -6.155  11.936  17.264  0.00  0.00    +0.000 OA
ENDBRANCH  28  35
ENDBRANCH   1  31
TORSDOF 4
ENDMDL
MODEL 3
REMARK VINA RESULT:      -8.7      1.281      1.531
REMARK  Name = 
REMARK  5 active torsions:
REMARK  status: ('A' for Active; 'I' for Inactive)
REMARK    1  A    between atoms: C_1  and  O_2
REMARK    2  A    between atoms: O_2  and  C_3
REMARK    3  A    between atoms: C_6  and  C_7
REMARK    4  A    between atoms: C_9  and  C_10
REMARK    5  A    between atoms: N_21  and  C_22
REMARK                            x       y       z     vdW  Elec       q    Type
REMARK                         _______ _______ _______ _____ _____    ______ ____
ROOT
ATOM      1  C   UNL     1       0.065  10.074  18.399  0.00  0.00    +0.000 A 
ATOM      2  C   UNL     1       0.561   8.976  17.703  0.00  0.00    +0.000 A 
ATOM      3  C   UNL     1       1.752   8.562  18.329  0.00  0.00    +0.000 A 
ATOM      4  N   UNL     1       1.978   9.380  19.371  0.00  0.00    +0.000 NA
ATOM      5  N   UNL     1       1.080  10.431  19.271  0.00  0.00    +0.000 N 
ENDROOT
BRANCH   5   6
ATOM      6  C   UNL     1       1.158  11.467  20.336  0.00  0.00    +0.000 C 
ATOM      7  C   UNL     1       1.654  12.825  19.749  0.00  0.00    +0.000 C 
ATOM      8  O   UNL     1       1.936  13.151  18.605  0.00  0.00    +0.000 OA
ATOM      9  N   UNL     1       1.477  13.788  20.741  0.00  0.00    +0.000 N 
ATOM     10  C   UNL     1       0.402  13.369  21.523  0.00  0.00    +0.000 A 
ATOM     11  C   UNL     1      -0.272  14.248  22.377  0.00  0.00    +0.000 A 
ATOM     12  C   UNL     1      -1.376  13.761  23.033  0.00  0.00    +0.000 A 
ATOM     13  C   UNL     1      -1.753  12.424  22.848  0.00  0.00    +0.000 A 
ATOM     14 CL   UNL     1      -3.116  11.848  23.734  0.00  0.00    +0.000 Cl
ATOM     15  C   UNL     1      -1.042  11.551  21.980  0.00  0.00    +0.000 A 
ATOM     16  C   UNL     1       0.052  12.027  21.260  0.00  0.00    +0.000 A 
ATOM     17  H   UNL     1       2.313  13.962  21.290  0.00  0.00    +0.000 HD
ENDBRANCH   5   6
BRANCH   3  18
ATOM     18  C   UNL     1       2.569   7.356  18.017  0.00  0.00    +0.000 A 
ATOM     19  C   UNL     1       2.102   6.062  18.299  0.00  0.00    +0.000 A 
ATOM     20  C   UNL     1       2.826   4.920  17.904  0.00  0.00    +0.000 A 
ATOM     21  C   UNL     1       4.041   5.022  17.220  0.00  0.00    +0.000 A 
ATOM     22  C   UNL     1       4.740   3.890  16.734  0.00  0.00    +0.000 A 
ATOM     23  C   UNL     1       5.954   4.012  16.055  0.00  0.00    +0.000 A 
ATOM     24  C   UNL     1       6.521   5.269  15.893  0.00  0.00    +0.000 A 
ATOM     25  C   UNL     1       5.842   6.400  16.367  0.00  0.00    +0.000 A 
ATOM     26  C   UNL     1       4.580   6.308  16.995  0.00  0.00    +0.000 A 
ATOM     27  C   UNL     1       3.835   7.451  17.401  0.00  0.00    +0.000 A 
ENDBRANCH   3  18
BRANCH   1  31
ATOM     28  C   UNL     1      -3.946  11.503  18.144  0.00  0.00    +0.000 A 
ATOM     29  C   UNL     1      -2.949  12.322  18.679  0.00  0.00    +0.000 A 
ATOM     30  C   UNL     1      -1.627  11.877  18.760  0.00  0.00    +0.000 A 
ATOM     31  C   UNL     1      -1.274  10.628  18.245  0.00  0.00    +0.000 A 
ATOM     32  C   UNL     1      -2.282   9.814  17.708  0.00  0.00    +0.000 A 
ATOM     33  C   UNL     1      -3.610  10.239  17.670  0.00  0.00    +0.000 A 
BRANCH  28  35
ATOM     34  C   UNL     1      -6.275  11.100  18.246  0.00  0.00    +0.000 C 
ATOM     35  O   UNL     1      -5.204  12.033  18.184  0.00  0.00    +0.000 OA
ENDBRANCH  28  35
ENDBRANCH   1  31
TORSDOF 4
ENDMDL
MODEL 4
REMARK VINA RESULT:      -8.6      1.988      4.420
REMARK  Name = 
REMARK  5 active torsions:
REMARK  status: ('A' for Active; 'I' for Inactive)
REMARK    1  A    between atoms: C_1  and  O_2
REMARK    2  A    between atoms: O_2  and  C_3
REMARK    3  A    between atoms: C_6  and  C_7
REMARK    4  A    between atoms: C_9  and  C_10
REMARK    5  A    between atoms: N_21  and  C_22
REMARK                            x       y       z     vdW  Elec       q    Type
REMARK                         _______ _______ _______ _____ _____    ______ ____
ROOT
ATOM      1  C   UNL     1      -0.167  10.876  20.375  0.00  0.00    +0.000 A 
ATOM      2  C   UNL     1       0.796   9.892  20.580  0.00  0.00    +0.000 A 
ATOM      3  C   UNL     1       0.976   9.197  19.369  0.00  0.00    +0.000 A 
ATOM      4  N   UNL     1       0.152   9.736  18.456  0.00  0.00    +0.000 NA
ATOM      5  N   UNL     1      -0.700  10.597  19.127  0.00  0.00    +0.000 N 
ENDROOT
BRANCH   5   6
ATOM      6  C   UNL     1      -1.708  11.308  18.295  0.00  0.00    +0.000 C 
ATOM      7  C   UNL     1      -2.049  10.482  17.016  0.00  0.00    +0.000 C 
ATOM      8  O   UNL     1      -1.658   9.386  16.638  0.00  0.00    +0.000 OA
ATOM      9  N   UNL     1      -3.153  11.088  16.419  0.00  0.00    +0.000 N 
ATOM     10  C   UNL     1      -3.881  11.696  17.441  0.00  0.00    +0.000 A 
ATOM     11  C   UNL     1      -5.212  12.087  17.263  0.00  0.00    +0.000 A 
ATOM     12  C   UNL     1      -5.869  12.590  18.359  0.00  0.00    +0.000 A 
ATOM     13  C   UNL     1      -5.184  12.717  19.575  0.00  0.00    +0.000 A 
ATOM     14 CL   UNL     1      -6.039  13.402  20.907  0.00  0.00    +0.000 Cl
ATOM     15  C   UNL     1      -3.826  12.320  19.722  0.00  0.00    +0.000 A 
ATOM     16  C   UNL     1      -3.146  11.758  18.644  0.00  0.00    +0.000 A 
ATOM     17  H   UNL     1      -2.907  11.737  15.678  0.00  0.00    +0.000 HD
ENDBRANCH   5   6
BRANCH   3  18
ATOM     18  C   UNL     1       1.989   8.145  19.070  0.00  0.00    +0.000 A 
ATOM     19  C   UNL     1       2.184   7.052  19.929  0.00  0.00    +0.000 A 
ATOM     20  C   UNL     1       3.062   6.004  19.592  0.00  0.00    +0.000 A 
ATOM     21  C   UNL     1       3.780   6.005  18.393  0.00  0.00    +0.000 A 
ATOM     22  C   UNL     1       4.597   4.921  17.991  0.00  0.00    +0.000 A 
ATOM     23  C   UNL     1       5.310   4.943  16.791  0.00  0.00    +0.000 A 
ATOM     24  C   UNL     1       5.260   6.076  15.988  0.00  0.00    +0.000 A 
ATOM     25  C   UNL     1       4.454   7.157  16.370  0.00  0.00    +0.000 A 
ATOM     26  C   UNL     1       3.672   7.130  17.546  0.00  0.00    +0.000 A 
ATOM     27  C   UNL     1       2.779   8.181  17.902  0.00  0.00    +0.000 A 
ENDBRANCH   3  18
BRANCH   1  31
ATOM     28  C   UNL     1      -0.858  13.945  23.256  0.00  0.00    +0.000 A 
ATOM     29  C   UNL     1       0.032  14.168  22.203  0.00  0.00    +0.000 A 
ATOM     30  C   UNL     1       0.262  13.180  21.241  0.00  0.00    +0.000 A 
ATOM     31  C   UNL     1      -0.446  11.978  21.287  0.00  0.00    +0.000 A 
ATOM     32  C   UNL     1      -1.338  11.764  22.348  0.00  0.00    +0.000 A 
ATOM     33  C   UNL     1      -1.534  12.731  23.333  0.00  0.00    +0.000 A 
BRANCH  28  35
ATOM     34  C   UNL     1      -1.330  16.231  23.641  0.00  0.00    +0.000 C 
ATOM     35  O   UNL     1      -0.942  14.965  24.160  0.00  0.00    +0.000 OA
ENDBRANCH  28  35
ENDBRANCH   1  31
TORSDOF 4
ENDMDL
MODEL 5
REMARK VINA RESULT:      -8.5      2.020      4.565
REMARK  Name = 
REMARK  5 active torsions:
REMARK  status: ('A' for Active; 'I' for Inactive)
REMARK    1  A    between atoms: C_1  and  O_2
REMARK    2  A    between atoms: O_2  and  C_3
REMARK    3  A    between atoms: C_6  and  C_7
REMARK    4  A    between atoms: C_9  and  C_10
REMARK    5  A    between atoms: N_21  and  C_22
REMARK                            x       y       z     vdW  Elec       q    Type
REMARK                         _______ _______ _______ _____ _____    ______ ____
ROOT
ATOM      1  C   UNL     1      -0.303  10.932  20.254  0.00  0.00    +0.000 A 
ATOM      2  C   UNL     1       0.687   9.960  20.369  0.00  0.00    +0.000 A 
ATOM      3  C   UNL     1       0.832   9.333  19.117  0.00  0.00    +0.000 A 
ATOM      4  N   UNL     1      -0.040   9.900  18.266  0.00  0.00    +0.000 NA
ATOM      5  N   UNL     1      -0.881  10.706  19.016  0.00  0.00    +0.000 N 
ENDROOT
BRANCH   5   6
ATOM      6  C   UNL     1      -1.937  11.437  18.264  0.00  0.00    +0.000 C 
ATOM      7  C   UNL     1      -2.325  10.663  16.965  0.00  0.00    +0.000 C 
ATOM      8  O   UNL     1      -1.937   9.591  16.522  0.00  0.00    +0.000 OA
ATOM      9  N   UNL     1      -3.464  11.277  16.448  0.00  0.00    +0.000 N 
ATOM     10  C   UNL     1      -4.152  11.827  17.528  0.00  0.00    +0.000 A 
ATOM     11  C   UNL     1      -5.496  12.203  17.429  0.00  0.00    +0.000 A 
ATOM     12  C   UNL     1      -6.108  12.647  18.576  0.00  0.00    +0.000 A 
ATOM     13  C   UNL     1      -5.369  12.732  19.763  0.00  0.00    +0.000 A 
ATOM     14 CL   UNL     1      -6.171  13.343  21.162  0.00  0.00    +0.000 Cl
ATOM     15  C   UNL     1      -4.001  12.350  19.830  0.00  0.00    +0.000 A 
ATOM     16  C   UNL     1      -3.363  11.848  18.698  0.00  0.00    +0.000 A 
ATOM     17  H   UNL     1      -3.262  11.961  15.726  0.00  0.00    +0.000 HD
ENDBRANCH   5   6
BRANCH   3  18
ATOM     18  C   UNL     1       1.852   8.322  18.722  0.00  0.00    +0.000 A 
ATOM     19  C   UNL     1       2.700   8.527  17.622  0.00  0.00    +0.000 A 
ATOM     20  C   UNL     1       3.735   7.623  17.316  0.00  0.00    +0.000 A 
ATOM     21  C   UNL     1       3.962   6.480  18.088  0.00  0.00    +0.000 A 
ATOM     22  C   UNL     1       5.052   5.606  17.855  0.00  0.00    +0.000 A 
ATOM     23  C   UNL     1       5.261   4.467  18.635  0.00  0.00    +0.000 A 
ATOM     24  C   UNL     1       4.352   4.151  19.637  0.00  0.00    +0.000 A 
ATOM     25  C   UNL     1       3.269   5.006  19.883  0.00  0.00    +0.000 A 
ATOM     26  C   UNL     1       3.076   6.199  19.151  0.00  0.00    +0.000 A 
ATOM     27  C   UNL     1       2.035   7.125  19.446  0.00  0.00    +0.000 A 
ENDBRANCH   3  18
BRANCH   1  31
ATOM     28  C   UNL     1      -0.937  13.830  23.319  0.00  0.00    +0.000 A 
ATOM     29  C   UNL     1      -0.100  14.129  22.242  0.00  0.00    +0.000 A 
ATOM     30  C   UNL     1       0.111  13.198  21.221  0.00  0.00    +0.000 A 
ATOM     31  C   UNL     1      -0.567  11.977  21.234  0.00  0.00    +0.000 A 
ATOM     32  C   UNL     1      -1.406  11.687  22.320  0.00  0.00    +0.000 A 
ATOM     33  C   UNL     1      -1.581  12.598  23.362  0.00  0.00    +0.000 A 
BRANCH  28  35
ATOM     34  C   UNL     1      -2.293  15.058  24.819  0.00  0.00    +0.000 C 
ATOM     35  O   UNL     1      -1.004  14.800  24.278  0.00  0.00    +0.000 OA
ENDBRANCH  28  35
ENDBRANCH   1  31
TORSDOF 4
ENDMDL
MODEL 6
REMARK VINA RESULT:      -8.5      2.778      3.736
REMARK  Name = 
REMARK  5 active torsions:
REMARK  status: ('A' for Active; 'I' for Inactive)
REMARK    1  A    between atoms: C_1  and  O_2
REMARK    2  A    between atoms: O_2  and  C_3
REMARK    3  A    between atoms: C_6  and  C_7
REMARK    4  A    between atoms: C_9  and  C_10
REMARK    5  A    between atoms: N_21  and  C_22
REMARK                            x       y       z     vdW  Elec       q    Type
REMARK                         _______ _______ _______ _____ _____    ______ ____
ROOT
ATOM      1  C   UNL     1      -0.231  10.402  18.050  0.00  0.00    +0.000 A 
ATOM      2  C   UNL     1       0.231   9.137  17.698  0.00  0.00    +0.000 A 
ATOM      3  C   UNL     1       1.509   8.965  18.264  0.00  0.00    +0.000 A 
ATOM      4  N   UNL     1       1.818  10.086  18.936  0.00  0.00    +0.000 NA
ATOM      5  N   UNL     1       0.864  11.037  18.613  0.00  0.00    +0.000 N 
ENDROOT
BRANCH   5   6
ATOM      6  C   UNL     1       1.019  12.370  19.254  0.00  0.00    +0.000 C 
ATOM      7  C   UNL     1       0.755  12.278  20.789  0.00  0.00    +0.000 C 
ATOM      8  O   UNL     1       0.491  11.322  21.504  0.00  0.00    +0.000 OA
ATOM      9  N   UNL     1       1.145  13.496  21.344  0.00  0.00    +0.000 N 
ATOM     10  C   UNL     1       2.156  14.005  20.532  0.00  0.00    +0.000 A 
ATOM     11  C   UNL     1       3.013  15.019  20.973  0.00  0.00    +0.000 A 
ATOM     12  C   UNL     1       4.035  15.385  20.132  0.00  0.00    +0.000 A 
ATOM     13  C   UNL     1       4.155  14.764  18.882  0.00  0.00    +0.000 A 
ATOM     14 CL   UNL     1       5.425  15.295  17.843  0.00  0.00    +0.000 Cl
ATOM     15  C   UNL     1       3.262  13.742  18.457  0.00  0.00    +0.000 A 
ATOM     16  C   UNL     1       2.245  13.311  19.306  0.00  0.00    +0.000 A 
ATOM     17  H   UNL     1       0.377  14.149  21.466  0.00  0.00    +0.000 HD
ENDBRANCH   5   6
BRANCH   3  18
ATOM     18  C   UNL     1       2.341   7.729  18.264  0.00  0.00    +0.000 A 
ATOM     19  C   UNL     1       3.515   7.636  17.499  0.00  0.00    +0.000 A 
ATOM     20  C   UNL     1       4.357   6.511  17.584  0.00  0.00    +0.000 A 
ATOM     21  C   UNL     1       4.062   5.436  18.428  0.00  0.00    +0.000 A 
ATOM     22  C   UNL     1       4.939   4.337  18.599  0.00  0.00    +0.000 A 
ATOM     23  C   UNL     1       4.626   3.271  19.444  0.00  0.00    +0.000 A 
ATOM     24  C   UNL     1       3.401   3.258  20.100  0.00  0.00    +0.000 A 
ATOM     25  C   UNL     1       2.522   4.339  19.943  0.00  0.00    +0.000 A 
ATOM     26  C   UNL     1       2.847   5.459  19.148  0.00  0.00    +0.000 A 
ATOM     27  C   UNL     1       2.008   6.606  19.050  0.00  0.00    +0.000 A 
ENDBRANCH   3  18
BRANCH   1  31
ATOM     28  C   UNL     1      -4.336  11.475  17.609  0.00  0.00    +0.000 A 
ATOM     29  C   UNL     1      -3.652  11.809  18.780  0.00  0.00    +0.000 A 
ATOM     30  C   UNL     1      -2.303  11.478  18.938  0.00  0.00    +0.000 A 
ATOM     31  C   UNL     1      -1.605  10.863  17.897  0.00  0.00    +0.000 A 
ATOM     32  C   UNL     1      -2.301  10.532  16.725  0.00  0.00    +0.000 A 
ATOM     33  C   UNL     1      -3.658  10.821  16.585  0.00  0.00    +0.000 A 
BRANCH  28  35
ATOM     34  C   UNL     1      -6.511  10.956  18.380  0.00  0.00    +0.000 C 
ATOM     35  O   UNL     1      -5.663  11.798  17.610  0.00  0.00    +0.000 OA
ENDBRANCH  28  35
ENDBRANCH   1  31
TORSDOF 4
ENDMDL
MODEL 7
REMARK VINA RESULT:      -8.4      2.255      4.500
REMARK  Name = 
REMARK  5 active torsions:
REMARK  status: ('A' for Active; 'I' for Inactive)
REMARK    1  A    between atoms: C_1  and  O_2
REMARK    2  A    between atoms: O_2  and  C_3
REMARK    3  A    between atoms: C_6  and  C_7
REMARK    4  A    between atoms: C_9  and  C_10
REMARK    5  A    between atoms: N_21  and  C_22
REMARK                            x       y       z     vdW  Elec       q    Type
REMARK                         _______ _______ _______ _____ _____    ______ ____
ROOT
ATOM      1  C   UNL     1       0.866  12.586  19.017  0.00  0.00    +0.000 A 
ATOM      2  C   UNL     1       1.807  11.562  19.060  0.00  0.00    +0.000 A 
ATOM      3  C   UNL     1       1.123  10.335  18.966  0.00  0.00    +0.000 A 
ATOM      4  N   UNL     1      -0.190  10.599  18.871  0.00  0.00    +0.000 NA
ATOM      5  N   UNL     1      -0.359  11.949  19.133  0.00  0.00    +0.000 N 
ENDROOT
BRANCH   5   6
ATOM      6  C   UNL     1      -1.754  12.461  19.082  0.00  0.00    +0.000 C 
ATOM      7  C   UNL     1      -2.570  11.730  17.971  0.00  0.00    +0.000 C 
ATOM      8  O   UNL     1      -2.258  10.827  17.207  0.00  0.00    +0.000 OA
ATOM      9  N   UNL     1      -3.906  12.088  18.141  0.00  0.00    +0.000 N 
ATOM     10  C   UNL     1      -4.082  12.359  19.497  0.00  0.00    +0.000 A 
ATOM     11  C   UNL     1      -5.354  12.403  20.078  0.00  0.00    +0.000 A 
ATOM     12  C   UNL     1      -5.414  12.584  21.438  0.00  0.00    +0.000 A 
ATOM     13  C   UNL     1      -4.228  12.745  22.166  0.00  0.00    +0.000 A 
ATOM     14 CL   UNL     1      -4.361  13.019  23.863  0.00  0.00    +0.000 Cl
ATOM     15  C   UNL     1      -2.949  12.705  21.545  0.00  0.00    +0.000 A 
ATOM     16  C   UNL     1      -2.849  12.472  20.175  0.00  0.00    +0.000 A 
ATOM     17  H   UNL     1      -4.196  12.861  17.549  0.00  0.00    +0.000 HD
ENDBRANCH   5   6
BRANCH   3  18
ATOM     18  C   UNL     1       1.717   8.973  18.845  0.00  0.00    +0.000 A 
ATOM     19  C   UNL     1       2.581   8.643  17.788  0.00  0.00    +0.000 A 
ATOM     20  C   UNL     1       3.226   7.393  17.734  0.00  0.00    +0.000 A 
ATOM     21  C   UNL     1       3.033   6.424  18.723  0.00  0.00    +0.000 A 
ATOM     22  C   UNL     1       3.741   5.197  18.739  0.00  0.00    +0.000 A 
ATOM     23  C   UNL     1       3.532   4.241  19.734  0.00  0.00    +0.000 A 
ATOM     24  C   UNL     1       2.571   4.471  20.711  0.00  0.00    +0.000 A 
ATOM     25  C   UNL     1       1.864   5.682  20.712  0.00  0.00    +0.000 A 
ATOM     26  C   UNL     1       2.106   6.692  19.755  0.00  0.00    +0.000 A 
ATOM     27  C   UNL     1       1.463   7.962  19.794  0.00  0.00    +0.000 A 
ENDBRANCH   3  18
BRANCH   1  31
ATOM     28  C   UNL     1       1.785  16.658  18.142  0.00  0.00    +0.000 A 
ATOM     29  C   UNL     1       0.514  16.318  18.610  0.00  0.00    +0.000 A 
ATOM     30  C   UNL     1       0.197  14.992  18.915  0.00  0.00    +0.000 A 
ATOM     31  C   UNL     1       1.172  13.996  18.815  0.00  0.00    +0.000 A 
ATOM     32  C   UNL     1       2.445  14.349  18.344  0.00  0.00    +0.000 A 
ATOM     33  C   UNL     1       2.748  15.665  17.996  0.00  0.00    +0.000 A 
BRANCH  28  35
ATOM     34  C   UNL     1       0.885  18.569  17.076  0.00  0.00    +0.000 C 
ATOM     35  O   UNL     1       1.942  17.976  17.820  0.00  0.00    +0.000 OA
ENDBRANCH  28  35
ENDBRANCH   1  31
TORSDOF 4
ENDMDL
MODEL 8
REMARK VINA RESULT:      -8.4      1.402      1.887
REMARK  Name = 
REMARK  5 active torsions:
REMARK  status: ('A' for Active; 'I' for Inactive)
REMARK    1  A    between atoms: C_1  and  O_2
REMARK    2  A    between atoms: O_2  and  C_3
REMARK    3  A    between atoms: C_6  and  C_7
REMARK    4  A    between atoms: C_9  and  C_10
REMARK    5  A    between atoms: N_21  and  C_22
REMARK                            x       y       z     vdW  Elec       q    Type
REMARK                         _______ _______ _______ _____ _____    ______ ____
ROOT
ATOM      1  C   UNL     1      -0.039  10.100  18.179  0.00  0.00    +0.000 A 
ATOM      2  C   UNL     1       0.420   8.953  17.539  0.00  0.00    +0.000 A 
ATOM      3  C   UNL     1       1.579   8.513  18.207  0.00  0.00    +0.000 A 
ATOM      4  N   UNL     1       1.821   9.362  19.218  0.00  0.00    +0.000 NA
ATOM      5  N   UNL     1       0.975  10.447  19.057  0.00  0.00    +0.000 N 
ENDROOT
BRANCH   5   6
ATOM      6  C   UNL     1       1.079  11.522  20.080  0.00  0.00    +0.000 C 
ATOM      7  C   UNL     1       1.460  12.881  19.416  0.00  0.00    +0.000 C 
ATOM      8  O   UNL     1       1.640  13.181  18.244  0.00  0.00    +0.000 OA
ATOM      9  N   UNL     1       1.309  13.868  20.388  0.00  0.00    +0.000 N 
ATOM     10  C   UNL     1       0.317  13.426  21.262  0.00  0.00    +0.000 A 
ATOM     11  C   UNL     1      -0.336  14.301  22.137  0.00  0.00    +0.000 A 
ATOM     12  C   UNL     1      -1.362  13.784  22.889  0.00  0.00    +0.000 A 
ATOM     13  C   UNL     1      -1.684  12.425  22.775  0.00  0.00    +0.000 A 
ATOM     14 CL   UNL     1      -2.947  11.815  23.778  0.00  0.00    +0.000 Cl
ATOM     15  C   UNL     1      -0.995  11.558  21.883  0.00  0.00    +0.000 A 
ATOM     16  C   UNL     1       0.017  12.060  21.067  0.00  0.00    +0.000 A 
ATOM     17  H   UNL     1       2.174  14.101  20.866  0.00  0.00    +0.000 HD
ENDBRANCH   5   6
BRANCH   3  18
ATOM     18  C   UNL     1       2.346   7.259  17.961  0.00  0.00    +0.000 A 
ATOM     19  C   UNL     1       3.727   7.283  17.709  0.00  0.00    +0.000 A 
ATOM     20  C   UNL     1       4.470   6.093  17.585  0.00  0.00    +0.000 A 
ATOM     21  C   UNL     1       3.868   4.837  17.703  0.00  0.00    +0.000 A 
ATOM     22  C   UNL     1       4.608   3.630  17.674  0.00  0.00    +0.000 A 
ATOM     23  C   UNL     1       3.988   2.385  17.790  0.00  0.00    +0.000 A 
ATOM     24  C   UNL     1       2.604   2.318  17.886  0.00  0.00    +0.000 A 
ATOM     25  C   UNL     1       1.856   3.504  17.919  0.00  0.00    +0.000 A 
ATOM     26  C   UNL     1       2.467   4.776  17.872  0.00  0.00    +0.000 A 
ATOM     27  C   UNL     1       1.732   5.990  17.995  0.00  0.00    +0.000 A 
ENDBRANCH   3  18
BRANCH   1  31
ATOM     28  C   UNL     1      -3.985  11.609  17.590  0.00  0.00    +0.000 A 
ATOM     29  C   UNL     1      -3.293  11.912  18.765  0.00  0.00    +0.000 A 
ATOM     30  C   UNL     1      -1.994  11.438  18.971  0.00  0.00    +0.000 A 
ATOM     31  C   UNL     1      -1.347  10.707  17.973  0.00  0.00    +0.000 A 
ATOM     32  C   UNL     1      -2.051  10.409  16.797  0.00  0.00    +0.000 A 
ATOM     33  C   UNL     1      -3.363  10.842  16.610  0.00  0.00    +0.000 A 
BRANCH  28  35
ATOM     34  C   UNL     1      -6.248  11.286  18.201  0.00  0.00    +0.000 C 
ATOM     35  O   UNL     1      -5.266  12.079  17.544  0.00  0.00    +0.000 OA
ENDBRANCH  28  35
ENDBRANCH   1  31
TORSDOF 4
ENDMDL
MODEL 9
REMARK VINA RESULT:      -8.3      2.093      4.379
REMARK  Name = 
REMARK  5 active torsions:
REMARK  status: ('A' for Active; 'I' for Inactive)
REMARK    1  A    between atoms: C_1  and  O_2
REMARK    2  A    between atoms: O_2  and  C_3
REMARK    3  A    between atoms: C_6  and  C_7
REMARK    4  A    between atoms: C_9  and  C_10
REMARK    5  A    between atoms: N_21  and  C_22
REMARK                            x       y       z     vdW  Elec       q    Type
REMARK                         _______ _______ _______ _____ _____    ______ ____
ROOT
ATOM      1  C   UNL     1       0.555  12.183  18.871  0.00  0.00    +0.000 A 
ATOM      2  C   UNL     1       1.554  11.267  19.189  0.00  0.00    +0.000 A 
ATOM      3  C   UNL     1       1.104   9.985  18.821  0.00  0.00    +0.000 A 
ATOM      4  N   UNL     1      -0.126  10.111  18.298  0.00  0.00    +0.000 NA
ATOM      5  N   UNL     1      -0.545  11.410  18.541  0.00  0.00    +0.000 N 
ENDROOT
BRANCH   5   6
ATOM      6  C   UNL     1      -1.899  11.769  18.042  0.00  0.00    +0.000 C 
ATOM      7  C   UNL     1      -2.390  10.734  16.982  0.00  0.00    +0.000 C 
ATOM      8  O   UNL     1      -1.870   9.713  16.555  0.00  0.00    +0.000 OA
ATOM      9  N   UNL     1      -3.736  11.001  16.742  0.00  0.00    +0.000 N 
ATOM     10  C   UNL     1      -4.253  11.557  17.911  0.00  0.00    +0.000 A 
ATOM     11  C   UNL     1      -5.630  11.618  18.150  0.00  0.00    +0.000 A 
ATOM     12  C   UNL     1      -6.032  12.098  19.372  0.00  0.00    +0.000 A 
ATOM     13  C   UNL     1      -5.070  12.526  20.296  0.00  0.00    +0.000 A 
ATOM     14 CL   UNL     1      -5.630  13.167  21.796  0.00  0.00    +0.000 Cl
ATOM     15  C   UNL     1      -3.676  12.460  20.020  0.00  0.00    +0.000 A 
ATOM     16  C   UNL     1      -3.232  11.931  18.811  0.00  0.00    +0.000 A 
ATOM     17  H   UNL     1      -3.893  11.589  15.929  0.00  0.00    +0.000 HD
ENDBRANCH   5   6
BRANCH   3  18
ATOM     18  C   UNL     1       1.875   8.710  18.853  0.00  0.00    +0.000 A 
ATOM     19  C   UNL     1       1.721   7.787  19.901  0.00  0.00    +0.000 A 
ATOM     20  C   UNL     1       2.367   6.536  19.875  0.00  0.00    +0.000 A 
ATOM     21  C   UNL     1       3.192   6.158  18.812  0.00  0.00    +0.000 A 
ATOM     22  C   UNL     1       3.778   4.872  18.720  0.00  0.00    +0.000 A 
ATOM     23  C   UNL     1       4.602   4.514  17.652  0.00  0.00    +0.000 A 
ATOM     24  C   UNL     1       4.900   5.456  16.675  0.00  0.00    +0.000 A 
ATOM     25  C   UNL     1       4.327   6.733  16.749  0.00  0.00    +0.000 A 
ATOM     26  C   UNL     1       3.436   7.095  17.784  0.00  0.00    +0.000 A 
ATOM     27  C   UNL     1       2.774   8.356  17.826  0.00  0.00    +0.000 A 
ENDBRANCH   3  18
BRANCH   1  31
ATOM     28  C   UNL     1       1.114  16.395  18.498  0.00  0.00    +0.000 A 
ATOM     29  C   UNL     1      -0.155  15.885  18.781  0.00  0.00    +0.000 A 
ATOM     30  C   UNL     1      -0.356  14.509  18.920  0.00  0.00    +0.000 A 
ATOM     31  C   UNL     1       0.726  13.630  18.841  0.00  0.00    +0.000 A 
ATOM     32  C   UNL     1       1.996  14.153  18.558  0.00  0.00    +0.000 A 
ATOM     33  C   UNL     1       2.190  15.522  18.373  0.00  0.00    +0.000 A 
BRANCH  28  35
ATOM     34  C   UNL     1       0.342  18.274  17.286  0.00  0.00    +0.000 C 
ATOM     35  O   UNL     1       1.160  17.749  18.323  0.00  0.00    +0.000 OA
ENDBRANCH  28  35
ENDBRANCH   1  31
TORSDOF 4
ENDMDL
