MODEL 1
REMARK VINA RESULT:      -8.2      0.000      0.000
REMARK  Name = 
REMARK  8 active torsions:
REMARK  status: ('A' for Active; 'I' for Inactive)
REMARK    1  A    between atoms: C_1  and  C_2
REMARK    2  A    between atoms: C_2  and  C_3
REMARK    3  A    between atoms: C_2  and  C_4
REMARK    4  A    between atoms: C_2  and  C_5
REMARK    5  A    between atoms: C_7  and  C_8
REMARK    6  A    between atoms: C_8  and  C_10
REMARK    7  A    between atoms: C_20  and  C_21
REMARK    8  A    between atoms: C_20  and  C_22
REMARK                            x       y       z     vdW  Elec       q    Type
REMARK                         _______ _______ _______ _____ _____    ______ ____
ROOT
ATOM      1  C   UNL     1       5.332   5.681  18.425  0.00  0.00    +0.000 A 
ATOM      2  C   UNL     1       4.545   6.840  18.200  0.00  0.00    +0.000 A 
ATOM      3  C   UNL     1       3.154   6.871  18.441  0.00  0.00    +0.000 A 
ATOM      4  C   UNL     1       2.521   5.736  18.952  0.00  0.00    +0.000 A 
ATOM      5  C   UNL     1       3.280   4.602  19.196  0.00  0.00    +0.000 A 
ATOM      6  C   UNL     1       4.646   4.577  18.935  0.00  0.00    +0.000 A 
ATOM      7  O   UNL     1       5.214   3.372  19.241  0.00  0.00    +0.000 OA
ATOM      8  C   UNL     1       4.169   2.545  19.794  0.00  0.00    +0.000 C 
ATOM      9  C   UNL     1       2.828   3.301  19.766  0.00  0.00    +0.000 C 
ATOM     10  C   UNL     1       2.257   3.471  21.178  0.00  0.00    +0.000 C 
ATOM     11  C   UNL     1       1.815   2.605  18.852  0.00  0.00    +0.000 C 
ENDROOT
BRANCH   1  13
ATOM     12  C   UNL     1       7.654   5.632  19.419  0.00  0.00    +0.000 C 
ATOM     13  C   UNL     1       6.840   5.707  18.108  0.00  0.00    +0.000 C 
ATOM     14  C   UNL     1       7.179   7.024  17.375  0.00  0.00    +0.000 C 
ATOM     15  C   UNL     1       7.350   4.557  17.210  0.00  0.00    +0.000 C 
ENDBRANCH   1  13
BRANCH   3  16
ATOM     16  C   UNL     1       2.322   8.094  18.257  0.00  0.00    +0.000 C 
ATOM     17  O   UNL     1       2.311   8.631  17.150  0.00  0.00    +0.000 OA
BRANCH  16  18
ATOM     18  C   UNL     1       1.531   8.631  19.366  0.00  0.00    +0.000 A 
ATOM     19  C   UNL     1       1.502   8.198  20.736  0.00  0.00    +0.000 A 
ATOM     20  C   UNL     1       0.629   8.932  21.508  0.00  0.00    +0.000 A 
ATOM     21  S   UNL     1      -0.131  10.173  20.615  0.00  0.00    +0.000 S 
ATOM     22  C   UNL     1       0.710   9.734  19.194  0.00  0.00    +0.000 A 
ENDBRANCH  16  18
ENDBRANCH   3  16
TORSDOF 3
ENDMDL
MODEL 2
REMARK VINA RESULT:      -8.2      1.189      3.866
REMARK  Name = 
REMARK  8 active torsions:
REMARK  status: ('A' for Active; 'I' for Inactive)
REMARK    1  A    between atoms: C_1  and  C_2
REMARK    2  A    between atoms: C_2  and  C_3
REMARK    3  A    between atoms: C_2  and  C_4
REMARK    4  A    between atoms: C_2  and  C_5
REMARK    5  A    between atoms: C_7  and  C_8
REMARK    6  A    between atoms: C_8  and  C_10
REMARK    7  A    between atoms: C_20  and  C_21
REMARK    8  A    between atoms: C_20  and  C_22
REMARK                            x       y       z     vdW  Elec       q    Type
REMARK                         _______ _______ _______ _____ _____    ______ ____
ROOT
ATOM      1  C   UNL     1       2.746   4.791  18.753  0.00  0.00    +0.000 A 
ATOM      2  C   UNL     1       2.127   6.062  18.884  0.00  0.00    +0.000 A 
ATOM      3  C   UNL     1       2.663   7.230  18.301  0.00  0.00    +0.000 A 
ATOM      4  C   UNL     1       3.827   7.142  17.534  0.00  0.00    +0.000 A 
ATOM      5  C   UNL     1       4.432   5.905  17.380  0.00  0.00    +0.000 A 
ATOM      6  C   UNL     1       3.906   4.764  17.977  0.00  0.00    +0.000 A 
ATOM      7  O   UNL     1       4.645   3.646  17.708  0.00  0.00    +0.000 OA
ATOM      8  C   UNL     1       5.714   4.053  16.827  0.00  0.00    +0.000 C 
ATOM      9  C   UNL     1       5.650   5.572  16.587  0.00  0.00    +0.000 C 
ATOM     10  C   UNL     1       5.460   5.893  15.101  0.00  0.00    +0.000 C 
ATOM     11  C   UNL     1       6.893   6.275  17.138  0.00  0.00    +0.000 C 
ENDROOT
BRANCH   1  13
ATOM     12  C   UNL     1       1.572   2.585  18.383  0.00  0.00    +0.000 C 
ATOM     13  C   UNL     1       2.124   3.562  19.445  0.00  0.00    +0.000 C 
ATOM     14  C   UNL     1       0.967   4.028  20.356  0.00  0.00    +0.000 C 
ATOM     15  C   UNL     1       3.087   2.744  20.335  0.00  0.00    +0.000 C 
ENDBRANCH   1  13
BRANCH   3  16
ATOM     16  C   UNL     1       1.999   8.562  18.387  0.00  0.00    +0.000 C 
ATOM     17  O   UNL     1       2.033   9.296  17.400  0.00  0.00    +0.000 OA
BRANCH  16  18
ATOM     18  C   UNL     1       1.315   8.976  19.614  0.00  0.00    +0.000 A 
ATOM     19  C   UNL     1       1.411   8.403  20.928  0.00  0.00    +0.000 A 
ATOM     20  C   UNL     1       0.615   9.047  21.849  0.00  0.00    +0.000 A 
ATOM     21  S   UNL     1      -0.219  10.369  21.164  0.00  0.00    +0.000 S 
ATOM     22  C   UNL     1       0.487  10.086  19.634  0.00  0.00    +0.000 A 
ENDBRANCH  16  18
ENDBRANCH   3  16
TORSDOF 3
ENDMDL
MODEL 3
REMARK VINA RESULT:      -8.0      0.705      1.000
REMARK  Name = 
REMARK  8 active torsions:
REMARK  status: ('A' for Active; 'I' for Inactive)
REMARK    1  A    between atoms: C_1  and  C_2
REMARK    2  A    between atoms: C_2  and  C_3
REMARK    3  A    between atoms: C_2  and  C_4
REMARK    4  A    between atoms: C_2  and  C_5
REMARK    5  A    between atoms: C_7  and  C_8
REMARK    6  A    between atoms: C_8  and  C_10
REMARK    7  A    between atoms: C_20  and  C_21
REMARK    8  A    between atoms: C_20  and  C_22
REMARK                            x       y       z     vdW  Elec       q    Type
REMARK                         _______ _______ _______ _____ _____    ______ ____
ROOT
ATOM      1  C   UNL     1       4.926   5.725  17.774  0.00  0.00    +0.000 A 
ATOM      2  C   UNL     1       4.218   6.956  17.765  0.00  0.00    +0.000 A 
ATOM      3  C   UNL     1       2.882   7.065  18.206  0.00  0.00    +0.000 A 
ATOM      4  C   UNL     1       2.229   5.936  18.706  0.00  0.00    +0.000 A 
ATOM      5  C   UNL     1       2.914   4.732  18.740  0.00  0.00    +0.000 A 
ATOM      6  C   UNL     1       4.223   4.631  18.283  0.00  0.00    +0.000 A 
ATOM      7  O   UNL     1       4.721   3.364  18.401  0.00  0.00    +0.000 OA
ATOM      8  C   UNL     1       3.694   2.567  19.027  0.00  0.00    +0.000 C 
ATOM      9  C   UNL     1       2.432   3.418  19.258  0.00  0.00    +0.000 C 
ATOM     10  C   UNL     1       2.077   3.494  20.746  0.00  0.00    +0.000 C 
ATOM     11  C   UNL     1       1.247   2.890  18.444  0.00  0.00    +0.000 C 
ENDROOT
BRANCH   1  13
ATOM     12  C   UNL     1       6.972   7.094  17.209  0.00  0.00    +0.000 C 
ATOM     13  C   UNL     1       6.372   5.670  17.246  0.00  0.00    +0.000 C 
ATOM     14  C   UNL     1       6.366   5.086  15.816  0.00  0.00    +0.000 C 
ATOM     15  C   UNL     1       7.349   4.804  18.073  0.00  0.00    +0.000 C 
ENDBRANCH   1  13
BRANCH   3  16
ATOM     16  C   UNL     1       2.141   8.359  18.249  0.00  0.00    +0.000 C 
ATOM     17  O   UNL     1       2.114   9.049  17.231  0.00  0.00    +0.000 OA
BRANCH  16  18
ATOM     18  C   UNL     1       1.456   8.785  19.470  0.00  0.00    +0.000 A 
ATOM     19  C   UNL     1       1.536   8.215  20.787  0.00  0.00    +0.000 A 
ATOM     20  C   UNL     1       0.744   8.872  21.702  0.00  0.00    +0.000 A 
ATOM     21  S   UNL     1      -0.069  10.203  21.008  0.00  0.00    +0.000 S 
ATOM     22  C   UNL     1       0.642   9.906  19.482  0.00  0.00    +0.000 A 
ENDBRANCH  16  18
ENDBRANCH   3  16
TORSDOF 3
ENDMDL
MODEL 4
REMARK VINA RESULT:      -7.9      1.302      3.936
REMARK  Name = 
REMARK  8 active torsions:
REMARK  status: ('A' for Active; 'I' for Inactive)
REMARK    1  A    between atoms: C_1  and  C_2
REMARK    2  A    between atoms: C_2  and  C_3
REMARK    3  A    between atoms: C_2  and  C_4
REMARK    4  A    between atoms: C_2  and  C_5
REMARK    5  A    between atoms: C_7  and  C_8
REMARK    6  A    between atoms: C_8  and  C_10
REMARK    7  A    between atoms: C_20  and  C_21
REMARK    8  A    between atoms: C_20  and  C_22
REMARK                            x       y       z     vdW  Elec       q    Type
REMARK                         _______ _______ _______ _____ _____    ______ ____
ROOT
ATOM      1  C   UNL     1       2.710   4.836  18.734  0.00  0.00    +0.000 A 
ATOM      2  C   UNL     1       2.093   6.109  18.849  0.00  0.00    +0.000 A 
ATOM      3  C   UNL     1       2.641   7.273  18.267  0.00  0.00    +0.000 A 
ATOM      4  C   UNL     1       3.815   7.177  17.518  0.00  0.00    +0.000 A 
ATOM      5  C   UNL     1       4.418   5.937  17.379  0.00  0.00    +0.000 A 
ATOM      6  C   UNL     1       3.881   4.801  17.975  0.00  0.00    +0.000 A 
ATOM      7  O   UNL     1       4.620   3.680  17.722  0.00  0.00    +0.000 OA
ATOM      8  C   UNL     1       5.701   4.078  16.854  0.00  0.00    +0.000 C 
ATOM      9  C   UNL     1       5.646   5.596  16.605  0.00  0.00    +0.000 C 
ATOM     10  C   UNL     1       5.478   5.909  15.114  0.00  0.00    +0.000 C 
ATOM     11  C   UNL     1       6.884   6.299  17.170  0.00  0.00    +0.000 C 
ENDROOT
BRANCH   1  13
ATOM     12  C   UNL     1       0.895   4.066  20.315  0.00  0.00    +0.000 C 
ATOM     13  C   UNL     1       2.075   3.613  19.424  0.00  0.00    +0.000 C 
ATOM     14  C   UNL     1       3.138   2.921  20.305  0.00  0.00    +0.000 C 
ATOM     15  C   UNL     1       1.515   2.531  18.474  0.00  0.00    +0.000 C 
ENDBRANCH   1  13
BRANCH   3  16
ATOM     16  C   UNL     1       1.980   8.608  18.337  0.00  0.00    +0.000 C 
ATOM     17  O   UNL     1       2.055   9.347  17.357  0.00  0.00    +0.000 OA
BRANCH  16  18
ATOM     18  C   UNL     1       1.251   9.017  19.539  0.00  0.00    +0.000 A 
ATOM     19  C   UNL     1       0.144   9.926  19.648  0.00  0.00    +0.000 A 
ATOM     20  C   UNL     1      -0.291  10.083  20.945  0.00  0.00    +0.000 A 
ATOM     21  S   UNL     1       0.589   9.113  22.040  0.00  0.00    +0.000 S 
ATOM     22  C   UNL     1       1.551   8.476  20.779  0.00  0.00    +0.000 A 
ENDBRANCH  16  18
ENDBRANCH   3  16
TORSDOF 3
ENDMDL
MODEL 5
REMARK VINA RESULT:      -7.9      0.523      1.255
REMARK  Name = 
REMARK  8 active torsions:
REMARK  status: ('A' for Active; 'I' for Inactive)
REMARK    1  A    between atoms: C_1  and  C_2
REMARK    2  A    between atoms: C_2  and  C_3
REMARK    3  A    between atoms: C_2  and  C_4
REMARK    4  A    between atoms: C_2  and  C_5
REMARK    5  A    between atoms: C_7  and  C_8
REMARK    6  A    between atoms: C_8  and  C_10
REMARK    7  A    between atoms: C_20  and  C_21
REMARK    8  A    between atoms: C_20  and  C_22
REMARK                            x       y       z     vdW  Elec       q    Type
REMARK                         _______ _______ _______ _____ _____    ______ ____
ROOT
ATOM      1  C   UNL     1       5.368   5.728  18.406  0.00  0.00    +0.000 A 
ATOM      2  C   UNL     1       4.569   6.878  18.169  0.00  0.00    +0.000 A 
ATOM      3  C   UNL     1       3.175   6.891  18.388  0.00  0.00    +0.000 A 
ATOM      4  C   UNL     1       2.548   5.748  18.889  0.00  0.00    +0.000 A 
ATOM      5  C   UNL     1       3.318   4.624  19.144  0.00  0.00    +0.000 A 
ATOM      6  C   UNL     1       4.688   4.616  18.905  0.00  0.00    +0.000 A 
ATOM      7  O   UNL     1       5.266   3.418  19.220  0.00  0.00    +0.000 OA
ATOM      8  C   UNL     1       4.223   2.578  19.756  0.00  0.00    +0.000 C 
ATOM      9  C   UNL     1       2.873   3.316  19.707  0.00  0.00    +0.000 C 
ATOM     10  C   UNL     1       2.277   3.479  21.109  0.00  0.00    +0.000 C 
ATOM     11  C   UNL     1       1.884   2.608  18.776  0.00  0.00    +0.000 C 
ENDROOT
BRANCH   1  13
ATOM     12  C   UNL     1       7.244   7.116  17.439  0.00  0.00    +0.000 C 
ATOM     13  C   UNL     1       6.880   5.774  18.113  0.00  0.00    +0.000 C 
ATOM     14  C   UNL     1       7.245   4.613  17.161  0.00  0.00    +0.000 C 
ATOM     15  C   UNL     1       7.800   5.641  19.348  0.00  0.00    +0.000 C 
ENDBRANCH   1  13
BRANCH   3  16
ATOM     16  C   UNL     1       2.330   8.104  18.191  0.00  0.00    +0.000 C 
ATOM     17  O   UNL     1       2.282   8.605  17.068  0.00  0.00    +0.000 OA
BRANCH  16  18
ATOM     18  C   UNL     1       1.569   8.671  19.306  0.00  0.00    +0.000 A 
ATOM     19  C   UNL     1       0.653   9.778  19.291  0.00  0.00    +0.000 A 
ATOM     20  C   UNL     1       0.120  10.045  20.533  0.00  0.00    +0.000 A 
ATOM     21  S   UNL     1       0.674   8.948  21.718  0.00  0.00    +0.000 S 
ATOM     22  C   UNL     1       1.624   8.111  20.571  0.00  0.00    +0.000 A 
ENDBRANCH  16  18
ENDBRANCH   3  16
TORSDOF 3
ENDMDL
MODEL 6
REMARK VINA RESULT:      -7.6      1.074      1.575
REMARK  Name = 
REMARK  8 active torsions:
REMARK  status: ('A' for Active; 'I' for Inactive)
REMARK    1  A    between atoms: C_1  and  C_2
REMARK    2  A    between atoms: C_2  and  C_3
REMARK    3  A    between atoms: C_2  and  C_4
REMARK    4  A    between atoms: C_2  and  C_5
REMARK    5  A    between atoms: C_7  and  C_8
REMARK    6  A    between atoms: C_8  and  C_10
REMARK    7  A    between atoms: C_20  and  C_21
REMARK    8  A    between atoms: C_20  and  C_22
REMARK                            x       y       z     vdW  Elec       q    Type
REMARK                         _______ _______ _______ _____ _____    ______ ____
ROOT
ATOM      1  C   UNL     1       4.547   5.309  17.710  0.00  0.00    +0.000 A 
ATOM      2  C   UNL     1       3.973   6.607  17.699  0.00  0.00    +0.000 A 
ATOM      3  C   UNL     1       2.737   6.895  18.317  0.00  0.00    +0.000 A 
ATOM      4  C   UNL     1       2.058   5.882  18.998  0.00  0.00    +0.000 A 
ATOM      5  C   UNL     1       2.616   4.614  19.035  0.00  0.00    +0.000 A 
ATOM      6  C   UNL     1       3.825   4.337  18.404  0.00  0.00    +0.000 A 
ATOM      7  O   UNL     1       4.206   3.033  18.555  0.00  0.00    +0.000 OA
ATOM      8  C   UNL     1       3.211   2.400  19.387  0.00  0.00    +0.000 C 
ATOM      9  C   UNL     1       2.091   3.401  19.725  0.00  0.00    +0.000 C 
ATOM     10  C   UNL     1       1.975   3.617  21.237  0.00  0.00    +0.000 C 
ATOM     11  C   UNL     1       0.749   2.953  19.137  0.00  0.00    +0.000 C 
ENDROOT
BRANCH   1  13
ATOM     12  C   UNL     1       6.351   6.352  16.282  0.00  0.00    +0.000 C 
ATOM     13  C   UNL     1       5.884   5.058  16.985  0.00  0.00    +0.000 C 
ATOM     14  C   UNL     1       5.685   3.949  15.928  0.00  0.00    +0.000 C 
ATOM     15  C   UNL     1       7.053   4.603  17.888  0.00  0.00    +0.000 C 
ENDBRANCH   1  13
BRANCH   3  16
ATOM     16  C   UNL     1       2.145   8.263  18.357  0.00  0.00    +0.000 C 
ATOM     17  O   UNL     1       2.280   8.985  17.371  0.00  0.00    +0.000 OA
BRANCH  16  18
ATOM     18  C   UNL     1       1.411   8.723  19.537  0.00  0.00    +0.000 A 
ATOM     19  C   UNL     1       0.340   9.679  19.608  0.00  0.00    +0.000 A 
ATOM     20  C   UNL     1      -0.113   9.877  20.893  0.00  0.00    +0.000 A 
ATOM     21  S   UNL     1       0.705   8.891  22.022  0.00  0.00    +0.000 S 
ATOM     22  C   UNL     1       1.663   8.193  20.791  0.00  0.00    +0.000 A 
ENDBRANCH  16  18
ENDBRANCH   3  16
TORSDOF 3
ENDMDL
MODEL 7
REMARK VINA RESULT:      -7.2      1.608      2.041
REMARK  Name = 
REMARK  8 active torsions:
REMARK  status: ('A' for Active; 'I' for Inactive)
REMARK    1  A    between atoms: C_1  and  C_2
REMARK    2  A    between atoms: C_2  and  C_3
REMARK    3  A    between atoms: C_2  and  C_4
REMARK    4  A    between atoms: C_2  and  C_5
REMARK    5  A    between atoms: C_7  and  C_8
REMARK    6  A    between atoms: C_8  and  C_10
REMARK    7  A    between atoms: C_20  and  C_21
REMARK    8  A    between atoms: C_20  and  C_22
REMARK                            x       y       z     vdW  Elec       q    Type
REMARK                         _______ _______ _______ _____ _____    ______ ____
ROOT
ATOM      1  C   UNL     1       4.073   5.370  18.373  0.00  0.00    +0.000 A 
ATOM      2  C   UNL     1       3.477   6.547  18.899  0.00  0.00    +0.000 A 
ATOM      3  C   UNL     1       2.320   6.514  19.706  0.00  0.00    +0.000 A 
ATOM      4  C   UNL     1       1.747   5.284  20.037  0.00  0.00    +0.000 A 
ATOM      5  C   UNL     1       2.330   4.126  19.548  0.00  0.00    +0.000 A 
ATOM      6  C   UNL     1       3.458   4.170  18.736  0.00  0.00    +0.000 A 
ATOM      7  O   UNL     1       3.879   2.926  18.358  0.00  0.00    +0.000 OA
ATOM      8  C   UNL     1       3.005   1.975  19.000  0.00  0.00    +0.000 C 
ATOM      9  C   UNL     1       1.915   2.715  19.797  0.00  0.00    +0.000 C 
ATOM     10  C   UNL     1       1.978   2.362  21.286  0.00  0.00    +0.000 C 
ATOM     11  C   UNL     1       0.521   2.428  19.231  0.00  0.00    +0.000 C 
ENDROOT
BRANCH   1  13
ATOM     12  C   UNL     1       6.549   4.896  18.199  0.00  0.00    +0.000 C 
ATOM     13  C   UNL     1       5.317   5.481  17.471  0.00  0.00    +0.000 C 
ATOM     14  C   UNL     1       5.578   6.969  17.150  0.00  0.00    +0.000 C 
ATOM     15  C   UNL     1       5.221   4.746  16.115  0.00  0.00    +0.000 C 
ENDBRANCH   1  13
BRANCH   3  16
ATOM     16  C   UNL     1       1.710   7.736  20.306  0.00  0.00    +0.000 C 
ATOM     17  O   UNL     1       1.344   7.688  21.480  0.00  0.00    +0.000 OA
BRANCH  16  18
ATOM     18  C   UNL     1       1.566   8.961  19.518  0.00  0.00    +0.000 A 
ATOM     19  C   UNL     1       1.981   9.207  18.164  0.00  0.00    +0.000 A 
ATOM     20  C   UNL     1       1.690  10.486  17.742  0.00  0.00    +0.000 A 
ATOM     21  S   UNL     1       0.880  11.390  18.943  0.00  0.00    +0.000 S 
ATOM     22  C   UNL     1       0.912  10.070  20.028  0.00  0.00    +0.000 A 
ENDBRANCH  16  18
ENDBRANCH   3  16
TORSDOF 3
ENDMDL
MODEL 8
REMARK VINA RESULT:      -7.0      1.376      1.664
REMARK  Name = 
REMARK  8 active torsions:
REMARK  status: ('A' for Active; 'I' for Inactive)
REMARK    1  A    between atoms: C_1  and  C_2
REMARK    2  A    between atoms: C_2  and  C_3
REMARK    3  A    between atoms: C_2  and  C_4
REMARK    4  A    between atoms: C_2  and  C_5
REMARK    5  A    between atoms: C_7  and  C_8
REMARK    6  A    between atoms: C_8  and  C_10
REMARK    7  A    between atoms: C_20  and  C_21
REMARK    8  A    between atoms: C_20  and  C_22
REMARK                            x       y       z     vdW  Elec       q    Type
REMARK                         _______ _______ _______ _____ _____    ______ ____
ROOT
ATOM      1  C   UNL     1       4.050   5.597  17.877  0.00  0.00    +0.000 A 
ATOM      2  C   UNL     1       3.471   6.877  18.085  0.00  0.00    +0.000 A 
ATOM      3  C   UNL     1       2.396   7.087  18.976  0.00  0.00    +0.000 A 
ATOM      4  C   UNL     1       1.896   6.011  19.713  0.00  0.00    +0.000 A 
ATOM      5  C   UNL     1       2.465   4.760  19.536  0.00  0.00    +0.000 A 
ATOM      6  C   UNL     1       3.509   4.561  18.640  0.00  0.00    +0.000 A 
ATOM      7  O   UNL     1       3.931   3.261  18.610  0.00  0.00    +0.000 OA
ATOM      8  C   UNL     1       3.151   2.545  19.591  0.00  0.00    +0.000 C 
ATOM      9  C   UNL     1       2.118   3.489  20.234  0.00  0.00    +0.000 C 
ATOM     10  C   UNL     1       2.334   3.599  21.747  0.00  0.00    +0.000 C 
ATOM     11  C   UNL     1       0.687   3.044  19.922  0.00  0.00    +0.000 C 
ENDROOT
BRANCH   1  13
ATOM     12  C   UNL     1       6.553   5.394  17.606  0.00  0.00    +0.000 C 
ATOM     13  C   UNL     1       5.199   5.434  16.863  0.00  0.00    +0.000 C 
ATOM     14  C   UNL     1       5.189   6.634  15.891  0.00  0.00    +0.000 C 
ATOM     15  C   UNL     1       5.139   4.158  15.993  0.00  0.00    +0.000 C 
ENDBRANCH   1  13
BRANCH   3  16
ATOM     16  C   UNL     1       1.809   8.431  19.242  0.00  0.00    +0.000 C 
ATOM     17  O   UNL     1       1.909   9.294  18.371  0.00  0.00    +0.000 OA
BRANCH  16  18
ATOM     18  C   UNL     1       1.122   8.708  20.505  0.00  0.00    +0.000 A 
ATOM     19  C   UNL     1      -0.283   8.626  20.795  0.00  0.00    +0.000 A 
ATOM     20  C   UNL     1      -0.579   8.967  22.096  0.00  0.00    +0.000 A 
ATOM     21  S   UNL     1       0.822   9.345  22.996  0.00  0.00    +0.000 S 
ATOM     22  C   UNL     1       1.828   9.048  21.647  0.00  0.00    +0.000 A 
ENDBRANCH  16  18
ENDBRANCH   3  16
TORSDOF 3
ENDMDL
