MODEL 1
REMARK VINA RESULT:      -7.6      0.000      0.000
REMARK  Name = 
REMARK  5 active torsions:
REMARK  status: ('A' for Active; 'I' for Inactive)
REMARK    1  A    between atoms: C_1  and  C_2
REMARK    2  A    between atoms: C_2  and  C_3
REMARK    3  A    between atoms: C_3  and  C_4
REMARK    4  A    between atoms: C_12  and  C_13
REMARK    5  A    between atoms: N_23  and  C_24
REMARK                            x       y       z     vdW  Elec       q    Type
REMARK                         _______ _______ _______ _____ _____    ______ ____
ROOT
ATOM      1  C   UNL     1       2.030   7.586  19.535  0.00  0.00    +0.000 A 
ATOM      2  C   UNL     1       1.923   8.514  18.504  0.00  0.00    +0.000 A 
ATOM      3  C   UNL     1       1.232   9.717  18.715  0.00  0.00    +0.000 A 
ATOM      4  C   UNL     1       0.621  10.063  19.939  0.00  0.00    +0.000 A 
ATOM      5  C   UNL     1       0.736   9.135  20.979  0.00  0.00    +0.000 A 
ATOM      6  C   UNL     1       1.443   7.918  20.754  0.00  0.00    +0.000 A 
ATOM      7  C   UNL     1       0.182   9.238  22.359  0.00  0.00    +0.000 C 
ATOM      8  C   UNL     1      -0.555  10.420  22.840  0.00  0.00    +0.000 C 
ATOM      9  C   UNL     1      -0.907  11.567  22.250  0.00  0.00    +0.000 C 
ATOM     10  C   UNL     1      -0.625  11.997  20.828  0.00  0.00    +0.000 C 
ATOM     11  N   UNL     1      -1.075  13.263  20.454  0.00  0.00    +0.000 N 
ATOM     12  C   UNL     1      -0.177  14.314  19.967  0.00  0.00    +0.000 C 
ATOM     13  C   UNL     1      -0.590  15.685  20.570  0.00  0.00    +0.000 C 
ATOM     14  N   UNL     1      -2.017  16.032  20.360  0.00  0.00    +0.000 NA
ATOM     15  C   UNL     1      -2.353  17.245  21.111  0.00  0.00    +0.000 C 
ATOM     16  C   UNL     1      -2.881  14.910  20.793  0.00  0.00    +0.000 C 
ATOM     17  C   UNL     1      -2.487  13.543  20.181  0.00  0.00    +0.000 C 
ATOM     18  N   UNL     1       0.016  11.316  19.908  0.00  0.00    +0.000 NA
ENDROOT
BRANCH   9  19
ATOM     19  C   UNL     1      -1.718  12.452  23.119  0.00  0.00    +0.000 A 
ATOM     20  C   UNL     1      -1.197  13.647  23.630  0.00  0.00    +0.000 A 
ATOM     21  C   UNL     1      -2.013  14.498  24.377  0.00  0.00    +0.000 A 
ATOM     22  C   UNL     1      -3.351  14.169  24.596  0.00  0.00    +0.000 A 
ATOM     23  C   UNL     1      -3.872  12.973  24.105  0.00  0.00    +0.000 A 
ATOM     24  C   UNL     1      -3.044  12.100  23.401  0.00  0.00    +0.000 A 
ENDBRANCH   9  19
BRANCH   1  25
ATOM     25  C   UNL     1       2.754   6.267  19.381  0.00  0.00    +0.000 C 
BRANCH  25  27
ATOM     26  C   UNL     1       1.911   4.328  17.961  0.00  0.00    +0.000 C 
ATOM     27  C   UNL     1       2.661   5.649  17.978  0.00  0.00    +0.000 C 
ENDBRANCH  25  27
ENDBRANCH   1  25
TORSDOF 3
ENDMDL
MODEL 2
REMARK VINA RESULT:      -7.3      1.032      1.099
REMARK  Name = 
REMARK  5 active torsions:
REMARK  status: ('A' for Active; 'I' for Inactive)
REMARK    1  A    between atoms: C_1  and  C_2
REMARK    2  A    between atoms: C_2  and  C_3
REMARK    3  A    between atoms: C_3  and  C_4
REMARK    4  A    between atoms: C_12  and  C_13
REMARK    5  A    between atoms: N_23  and  C_24
REMARK                            x       y       z     vdW  Elec       q    Type
REMARK                         _______ _______ _______ _____ _____    ______ ____
ROOT
ATOM      1  C   UNL     1       1.949   6.935  20.152  0.00  0.00    +0.000 A 
ATOM      2  C   UNL     1       2.025   7.783  19.052  0.00  0.00    +0.000 A 
ATOM      3  C   UNL     1       1.444   9.059  19.111  0.00  0.00    +0.000 A 
ATOM      4  C   UNL     1       0.769   9.559  20.245  0.00  0.00    +0.000 A 
ATOM      5  C   UNL     1       0.700   8.711  21.355  0.00  0.00    +0.000 A 
ATOM      6  C   UNL     1       1.296   7.419  21.284  0.00  0.00    +0.000 A 
ATOM      7  C   UNL     1       0.044   8.977  22.666  0.00  0.00    +0.000 C 
ATOM      8  C   UNL     1      -0.608  10.257  22.990  0.00  0.00    +0.000 C 
ATOM      9  C   UNL     1      -0.791  11.382  22.290  0.00  0.00    +0.000 C 
ATOM     10  C   UNL     1      -0.346  11.667  20.873  0.00  0.00    +0.000 C 
ATOM     11  N   UNL     1      -0.632  12.936  20.369  0.00  0.00    +0.000 N 
ATOM     12  C   UNL     1       0.407  13.855  19.894  0.00  0.00    +0.000 C 
ATOM     13  C   UNL     1       0.084  15.302  20.356  0.00  0.00    +0.000 C 
ATOM     14  N   UNL     1      -1.277  15.765  19.989  0.00  0.00    +0.000 NA
ATOM     15  C   UNL     1      -1.551  17.061  20.617  0.00  0.00    +0.000 C 
ATOM     16  C   UNL     1      -2.284  14.768  20.420  0.00  0.00    +0.000 C 
ATOM     17  C   UNL     1      -1.980  13.325  19.946  0.00  0.00    +0.000 C 
ATOM     18  N   UNL     1       0.298  10.856  20.067  0.00  0.00    +0.000 NA
ENDROOT
BRANCH   9  19
ATOM     19  C   UNL     1      -1.579  12.406  23.014  0.00  0.00    +0.000 A 
ATOM     20  C   UNL     1      -0.997  13.606  23.440  0.00  0.00    +0.000 A 
ATOM     21  C   UNL     1      -1.786  14.585  24.046  0.00  0.00    +0.000 A 
ATOM     22  C   UNL     1      -3.156  14.378  24.208  0.00  0.00    +0.000 A 
ATOM     23  C   UNL     1      -3.739  13.178  23.802  0.00  0.00    +0.000 A 
ATOM     24  C   UNL     1      -2.943  12.180  23.241  0.00  0.00    +0.000 A 
ENDBRANCH   9  19
BRANCH   1  25
ATOM     25  C   UNL     1       2.546   5.546  20.160  0.00  0.00    +0.000 C 
BRANCH  25  27
ATOM     26  C   UNL     1       2.183   3.374  21.439  0.00  0.00    +0.000 C 
ATOM     27  C   UNL     1       1.562   4.431  20.543  0.00  0.00    +0.000 C 
ENDBRANCH  25  27
ENDBRANCH   1  25
TORSDOF 3
ENDMDL
MODEL 3
REMARK VINA RESULT:      -7.2      0.589      1.138
REMARK  Name = 
REMARK  5 active torsions:
REMARK  status: ('A' for Active; 'I' for Inactive)
REMARK    1  A    between atoms: C_1  and  C_2
REMARK    2  A    between atoms: C_2  and  C_3
REMARK    3  A    between atoms: C_3  and  C_4
REMARK    4  A    between atoms: C_12  and  C_13
REMARK    5  A    between atoms: N_23  and  C_24
REMARK                            x       y       z     vdW  Elec       q    Type
REMARK                         _______ _______ _______ _____ _____    ______ ____
ROOT
ATOM      1  C   UNL     1       1.834   7.312  20.034  0.00  0.00    +0.000 A 
ATOM      2  C   UNL     1       1.824   8.188  18.953  0.00  0.00    +0.000 A 
ATOM      3  C   UNL     1       1.178   9.428  19.063  0.00  0.00    +0.000 A 
ATOM      4  C   UNL     1       0.519   9.866  20.232  0.00  0.00    +0.000 A 
ATOM      5  C   UNL     1       0.537   8.991  21.323  0.00  0.00    +0.000 A 
ATOM      6  C   UNL     1       1.199   7.735  21.200  0.00  0.00    +0.000 A 
ATOM      7  C   UNL     1      -0.083   9.192  22.663  0.00  0.00    +0.000 C 
ATOM      8  C   UNL     1      -0.790  10.428  23.041  0.00  0.00    +0.000 C 
ATOM      9  C   UNL     1      -1.059  11.555  22.375  0.00  0.00    +0.000 C 
ATOM     10  C   UNL     1      -0.683  11.896  20.950  0.00  0.00    +0.000 C 
ATOM     11  N   UNL     1      -1.055  13.158  20.487  0.00  0.00    +0.000 N 
ATOM     12  C   UNL     1      -0.085  14.142  19.997  0.00  0.00    +0.000 C 
ATOM     13  C   UNL     1      -0.468  15.559  20.505  0.00  0.00    +0.000 C 
ATOM     14  N   UNL     1      -1.865  15.955  20.198  0.00  0.00    +0.000 NA
ATOM     15  C   UNL     1      -2.184  17.220  20.866  0.00  0.00    +0.000 C 
ATOM     16  C   UNL     1      -2.800  14.895  20.640  0.00  0.00    +0.000 C 
ATOM     17  C   UNL     1      -2.436  13.482  20.122  0.00  0.00    +0.000 C 
ATOM     18  N   UNL     1      -0.026  11.139  20.103  0.00  0.00    +0.000 NA
ENDROOT
BRANCH   9  19
ATOM     19  C   UNL     1      -1.874  12.520  23.151  0.00  0.00    +0.000 A 
ATOM     20  C   UNL     1      -3.216  12.262  23.453  0.00  0.00    +0.000 A 
ATOM     21  C   UNL     1      -3.932  13.151  24.256  0.00  0.00    +0.000 A 
ATOM     22  C   UNL     1      -3.304  14.284  24.774  0.00  0.00    +0.000 A 
ATOM     23  C   UNL     1      -1.973  14.557  24.464  0.00  0.00    +0.000 A 
ATOM     24  C   UNL     1      -1.272  13.694  23.622  0.00  0.00    +0.000 A 
ENDBRANCH   9  19
BRANCH   1  25
ATOM     25  C   UNL     1       2.505   5.958  19.988  0.00  0.00    +0.000 C 
BRANCH  25  27
ATOM     26  C   UNL     1       1.996   3.574  19.253  0.00  0.00    +0.000 C 
ATOM     27  C   UNL     1       1.541   4.766  20.077  0.00  0.00    +0.000 C 
ENDBRANCH  25  27
ENDBRANCH   1  25
TORSDOF 3
ENDMDL
MODEL 4
REMARK VINA RESULT:      -7.1      1.660      2.318
REMARK  Name = 
REMARK  5 active torsions:
REMARK  status: ('A' for Active; 'I' for Inactive)
REMARK    1  A    between atoms: C_1  and  C_2
REMARK    2  A    between atoms: C_2  and  C_3
REMARK    3  A    between atoms: C_3  and  C_4
REMARK    4  A    between atoms: C_12  and  C_13
REMARK    5  A    between atoms: N_23  and  C_24
REMARK                            x       y       z     vdW  Elec       q    Type
REMARK                         _______ _______ _______ _____ _____    ______ ____
ROOT
ATOM      1  C   UNL     1       2.427   6.275  19.505  0.00  0.00    +0.000 A 
ATOM      2  C   UNL     1       2.724   7.041  18.383  0.00  0.00    +0.000 A 
ATOM      3  C   UNL     1       2.302   8.378  18.317  0.00  0.00    +0.000 A 
ATOM      4  C   UNL     1       1.577   9.021  19.343  0.00  0.00    +0.000 A 
ATOM      5  C   UNL     1       1.286   8.254  20.476  0.00  0.00    +0.000 A 
ATOM      6  C   UNL     1       1.722   6.898  20.532  0.00  0.00    +0.000 A 
ATOM      7  C   UNL     1       0.532   8.672  21.691  0.00  0.00    +0.000 C 
ATOM      8  C   UNL     1       0.012  10.038  21.881  0.00  0.00    +0.000 C 
ATOM      9  C   UNL     1       0.046  11.132  21.113  0.00  0.00    +0.000 C 
ATOM     10  C   UNL     1       0.671  11.279  19.744  0.00  0.00    +0.000 C 
ATOM     11  N   UNL     1       0.599  12.540  19.153  0.00  0.00    +0.000 N 
ATOM     12  C   UNL     1       1.788  13.301  18.756  0.00  0.00    +0.000 C 
ATOM     13  C   UNL     1       1.600  14.801  19.112  0.00  0.00    +0.000 C 
ATOM     14  N   UNL     1       0.353  15.398  18.573  0.00  0.00    +0.000 NA
ATOM     15  C   UNL     1       0.176  16.752  19.106  0.00  0.00    +0.000 C 
ATOM     16  C   UNL     1      -0.810  14.554  18.932  0.00  0.00    +0.000 C 
ATOM     17  C   UNL     1      -0.637  13.060  18.563  0.00  0.00    +0.000 C 
ATOM     18  N   UNL     1       1.292  10.352  19.054  0.00  0.00    +0.000 NA
ENDROOT
BRANCH   9  19
ATOM     19  C   UNL     1      -0.682  12.284  21.696  0.00  0.00    +0.000 A 
ATOM     20  C   UNL     1      -2.080  12.297  21.776  0.00  0.00    +0.000 A 
ATOM     21  C   UNL     1      -2.731  13.360  22.405  0.00  0.00    +0.000 A 
ATOM     22  C   UNL     1      -1.989  14.396  22.972  0.00  0.00    +0.000 A 
ATOM     23  C   UNL     1      -0.598  14.398  22.881  0.00  0.00    +0.000 A 
ATOM     24  C   UNL     1       0.050  13.362  22.210  0.00  0.00    +0.000 A 
ENDBRANCH   9  19
BRANCH   1  25
ATOM     25  C   UNL     1       2.843   4.828  19.645  0.00  0.00    +0.000 C 
BRANCH  25  27
ATOM     26  C   UNL     1       1.106   3.217  20.578  0.00  0.00    +0.000 C 
ATOM     27  C   UNL     1       2.286   4.122  20.889  0.00  0.00    +0.000 C 
ENDBRANCH  25  27
ENDBRANCH   1  25
TORSDOF 3
ENDMDL
MODEL 5
REMARK VINA RESULT:      -7.0      1.697      2.235
REMARK  Name = 
REMARK  5 active torsions:
REMARK  status: ('A' for Active; 'I' for Inactive)
REMARK    1  A    between atoms: C_1  and  C_2
REMARK    2  A    between atoms: C_2  and  C_3
REMARK    3  A    between atoms: C_3  and  C_4
REMARK    4  A    between atoms: C_12  and  C_13
REMARK    5  A    between atoms: N_23  and  C_24
REMARK                            x       y       z     vdW  Elec       q    Type
REMARK                         _______ _______ _______ _____ _____    ______ ____
ROOT
ATOM      1  C   UNL     1       2.757   6.272  18.890  0.00  0.00    +0.000 A 
ATOM      2  C   UNL     1       3.037   7.120  17.824  0.00  0.00    +0.000 A 
ATOM      3  C   UNL     1       2.584   8.448  17.849  0.00  0.00    +0.000 A 
ATOM      4  C   UNL     1       1.843   9.001  18.915  0.00  0.00    +0.000 A 
ATOM      5  C   UNL     1       1.569   8.152  19.992  0.00  0.00    +0.000 A 
ATOM      6  C   UNL     1       2.038   6.806  19.956  0.00  0.00    +0.000 A 
ATOM      7  C   UNL     1       0.805   8.468  21.231  0.00  0.00    +0.000 C 
ATOM      8  C   UNL     1       0.253   9.805  21.513  0.00  0.00    +0.000 C 
ATOM      9  C   UNL     1       0.261  10.950  20.822  0.00  0.00    +0.000 C 
ATOM     10  C   UNL     1       0.884  11.205  19.468  0.00  0.00    +0.000 C 
ATOM     11  N   UNL     1       0.783  12.502  18.964  0.00  0.00    +0.000 N 
ATOM     12  C   UNL     1       1.954  13.315  18.623  0.00  0.00    +0.000 C 
ATOM     13  C   UNL     1       1.730  14.783  19.080  0.00  0.00    +0.000 C 
ATOM     14  N   UNL     1       0.469  15.386  18.581  0.00  0.00    +0.000 NA
ATOM     15  C   UNL     1       0.260  16.696  19.204  0.00  0.00    +0.000 C 
ATOM     16  C   UNL     1      -0.673  14.492  18.879  0.00  0.00    +0.000 C 
ATOM     17  C   UNL     1      -0.466  13.031  18.409  0.00  0.00    +0.000 C 
ATOM     18  N   UNL     1       1.527  10.342  18.717  0.00  0.00    +0.000 NA
ENDROOT
BRANCH   9  19
ATOM     19  C   UNL     1      -0.494  12.042  21.481  0.00  0.00    +0.000 A 
ATOM     20  C   UNL     1       0.161  13.132  22.064  0.00  0.00    +0.000 A 
ATOM     21  C   UNL     1      -0.582  14.183  22.603  0.00  0.00    +0.000 A 
ATOM     22  C   UNL     1      -1.975  14.158  22.541  0.00  0.00    +0.000 A 
ATOM     23  C   UNL     1      -2.635  13.068  21.977  0.00  0.00    +0.000 A 
ATOM     24  C   UNL     1      -1.894  11.995  21.482  0.00  0.00    +0.000 A 
ENDBRANCH   9  19
BRANCH   1  25
ATOM     25  C   UNL     1       3.208   4.829  18.931  0.00  0.00    +0.000 C 
BRANCH  25  27
ATOM     26  C   UNL     1       1.120   3.413  18.582  0.00  0.00    +0.000 C 
ATOM     27  C   UNL     1       2.435   3.893  17.991  0.00  0.00    +0.000 C 
ENDBRANCH  25  27
ENDBRANCH   1  25
TORSDOF 3
ENDMDL
MODEL 6
REMARK VINA RESULT:      -6.8      1.705      2.347
REMARK  Name = 
REMARK  5 active torsions:
REMARK  status: ('A' for Active; 'I' for Inactive)
REMARK    1  A    between atoms: C_1  and  C_2
REMARK    2  A    between atoms: C_2  and  C_3
REMARK    3  A    between atoms: C_3  and  C_4
REMARK    4  A    between atoms: C_12  and  C_13
REMARK    5  A    between atoms: N_23  and  C_24
REMARK                            x       y       z     vdW  Elec       q    Type
REMARK                         _______ _______ _______ _____ _____    ______ ____
ROOT
ATOM      1  C   UNL     1       2.553   6.237  19.254  0.00  0.00    +0.000 A 
ATOM      2  C   UNL     1       2.845   7.023  18.144  0.00  0.00    +0.000 A 
ATOM      3  C   UNL     1       2.416   8.359  18.101  0.00  0.00    +0.000 A 
ATOM      4  C   UNL     1       1.690   8.981  19.139  0.00  0.00    +0.000 A 
ATOM      5  C   UNL     1       1.406   8.195  20.260  0.00  0.00    +0.000 A 
ATOM      6  C   UNL     1       1.848   6.841  20.294  0.00  0.00    +0.000 A 
ATOM      7  C   UNL     1       0.652   8.590  21.484  0.00  0.00    +0.000 C 
ATOM      8  C   UNL     1       0.127   9.950  21.696  0.00  0.00    +0.000 C 
ATOM      9  C   UNL     1       0.154  11.057  20.947  0.00  0.00    +0.000 C 
ATOM     10  C   UNL     1       0.775  11.229  19.579  0.00  0.00    +0.000 C 
ATOM     11  N   UNL     1       0.697  12.499  19.008  0.00  0.00    +0.000 N 
ATOM     12  C   UNL     1       1.881  13.271  18.622  0.00  0.00    +0.000 C 
ATOM     13  C   UNL     1       1.687  14.764  19.002  0.00  0.00    +0.000 C 
ATOM     14  N   UNL     1       0.436  15.365  18.475  0.00  0.00    +0.000 NA
ATOM     15  C   UNL     1       0.254  16.709  19.031  0.00  0.00    +0.000 C 
ATOM     16  C   UNL     1      -0.722  14.509  18.824  0.00  0.00    +0.000 C 
ATOM     17  C   UNL     1      -0.544  13.022  18.430  0.00  0.00    +0.000 C 
ATOM     18  N   UNL     1       1.399  10.315  18.873  0.00  0.00    +0.000 NA
ENDROOT
BRANCH   9  19
ATOM     19  C   UNL     1      -0.578  12.195  21.550  0.00  0.00    +0.000 A 
ATOM     20  C   UNL     1      -1.975  12.197  21.640  0.00  0.00    +0.000 A 
ATOM     21  C   UNL     1      -2.629  13.247  22.288  0.00  0.00    +0.000 A 
ATOM     22  C   UNL     1      -1.890  14.282  22.863  0.00  0.00    +0.000 A 
ATOM     23  C   UNL     1      -0.500  14.295  22.761  0.00  0.00    +0.000 A 
ATOM     24  C   UNL     1       0.150  13.272  22.072  0.00  0.00    +0.000 A 
ENDBRANCH   9  19
BRANCH   1  25
ATOM     25  C   UNL     1       2.976   4.790  19.370  0.00  0.00    +0.000 C 
BRANCH  25  27
ATOM     26  C   UNL     1       3.537   3.449  17.279  0.00  0.00    +0.000 C 
ATOM     27  C   UNL     1       4.063   4.362  18.373  0.00  0.00    +0.000 C 
ENDBRANCH  25  27
ENDBRANCH   1  25
TORSDOF 3
ENDMDL
MODEL 7
REMARK VINA RESULT:      -6.8      1.004      1.420
REMARK  Name = 
REMARK  5 active torsions:
REMARK  status: ('A' for Active; 'I' for Inactive)
REMARK    1  A    between atoms: C_1  and  C_2
REMARK    2  A    between atoms: C_2  and  C_3
REMARK    3  A    between atoms: C_3  and  C_4
REMARK    4  A    between atoms: C_12  and  C_13
REMARK    5  A    between atoms: N_23  and  C_24
REMARK                            x       y       z     vdW  Elec       q    Type
REMARK                         _______ _______ _______ _____ _____    ______ ____
ROOT
ATOM      1  C   UNL     1       1.741   8.409  19.074  0.00  0.00    +0.000 A 
ATOM      2  C   UNL     1       1.430   9.329  18.078  0.00  0.00    +0.000 A 
ATOM      3  C   UNL     1       0.670  10.467  18.389  0.00  0.00    +0.000 A 
ATOM      4  C   UNL     1       0.186  10.754  19.683  0.00  0.00    +0.000 A 
ATOM      5  C   UNL     1       0.507   9.834  20.688  0.00  0.00    +0.000 A 
ATOM      6  C   UNL     1       1.282   8.685  20.360  0.00  0.00    +0.000 A 
ATOM      7  C   UNL     1       0.119   9.883  22.126  0.00  0.00    +0.000 C 
ATOM      8  C   UNL     1      -0.651  10.995  22.710  0.00  0.00    +0.000 C 
ATOM      9  C   UNL     1      -1.170  12.110  22.185  0.00  0.00    +0.000 C 
ATOM     10  C   UNL     1      -1.102  12.569  20.746  0.00  0.00    +0.000 C 
ATOM     11  N   UNL     1      -1.701  13.792  20.448  0.00  0.00    +0.000 N 
ATOM     12  C   UNL     1      -0.962  14.920  19.872  0.00  0.00    +0.000 C 
ATOM     13  C   UNL     1      -1.414  16.246  20.541  0.00  0.00    +0.000 C 
ATOM     14  N   UNL     1      -2.881  16.470  20.511  0.00  0.00    +0.000 NA
ATOM     15  C   UNL     1      -3.224  17.646  21.315  0.00  0.00    +0.000 C 
ATOM     16  C   UNL     1      -3.586  15.275  21.029  0.00  0.00    +0.000 C 
ATOM     17  C   UNL     1      -3.154  13.950  20.353  0.00  0.00    +0.000 C 
ATOM     18  N   UNL     1      -0.523  11.949  19.744  0.00  0.00    +0.000 NA
ENDROOT
BRANCH   9  19
ATOM     19  C   UNL     1      -1.941  12.917  23.160  0.00  0.00    +0.000 A 
ATOM     20  C   UNL     1      -3.196  12.502  23.618  0.00  0.00    +0.000 A 
ATOM     21  C   UNL     1      -3.859  13.244  24.598  0.00  0.00    +0.000 A 
ATOM     22  C   UNL     1      -3.262  14.384  25.135  0.00  0.00    +0.000 A 
ATOM     23  C   UNL     1      -2.019  14.813  24.671  0.00  0.00    +0.000 A 
ATOM     24  C   UNL     1      -1.379  14.100  23.658  0.00  0.00    +0.000 A 
ENDBRANCH   9  19
BRANCH   1  25
ATOM     25  C   UNL     1       2.551   7.159  18.813  0.00  0.00    +0.000 C 
BRANCH  25  27
ATOM     26  C   UNL     1       4.658   6.236  17.721  0.00  0.00    +0.000 C 
ATOM     27  C   UNL     1       3.556   7.280  17.658  0.00  0.00    +0.000 C 
ENDBRANCH  25  27
ENDBRANCH   1  25
TORSDOF 3
ENDMDL
MODEL 8
REMARK VINA RESULT:      -6.8      0.814      1.276
REMARK  Name = 
REMARK  5 active torsions:
REMARK  status: ('A' for Active; 'I' for Inactive)
REMARK    1  A    between atoms: C_1  and  C_2
REMARK    2  A    between atoms: C_2  and  C_3
REMARK    3  A    between atoms: C_3  and  C_4
REMARK    4  A    between atoms: C_12  and  C_13
REMARK    5  A    between atoms: N_23  and  C_24
REMARK                            x       y       z     vdW  Elec       q    Type
REMARK                         _______ _______ _______ _____ _____    ______ ____
ROOT
ATOM      1  C   UNL     1       2.348   7.433  19.022  0.00  0.00    +0.000 A 
ATOM      2  C   UNL     1       2.295   8.390  18.013  0.00  0.00    +0.000 A 
ATOM      3  C   UNL     1       1.638   9.609  18.239  0.00  0.00    +0.000 A 
ATOM      4  C   UNL     1       1.011   9.945  19.458  0.00  0.00    +0.000 A 
ATOM      5  C   UNL     1       1.072   8.988  20.476  0.00  0.00    +0.000 A 
ATOM      6  C   UNL     1       1.744   7.754  20.235  0.00  0.00    +0.000 A 
ATOM      7  C   UNL     1       0.490   9.075  21.846  0.00  0.00    +0.000 C 
ATOM      8  C   UNL     1      -0.219  10.268  22.340  0.00  0.00    +0.000 C 
ATOM      9  C   UNL     1      -0.520  11.440  21.773  0.00  0.00    +0.000 C 
ATOM     10  C   UNL     1      -0.192  11.896  20.369  0.00  0.00    +0.000 C 
ATOM     11  N   UNL     1      -0.592  13.185  20.017  0.00  0.00    +0.000 N 
ATOM     12  C   UNL     1       0.351  14.218  19.577  0.00  0.00    +0.000 C 
ATOM     13  C   UNL     1      -0.032  15.585  20.206  0.00  0.00    +0.000 C 
ATOM     14  N   UNL     1      -1.442  15.985  19.973  0.00  0.00    +0.000 NA
ATOM     15  C   UNL     1      -1.756  17.189  20.747  0.00  0.00    +0.000 C 
ATOM     16  C   UNL     1      -2.351  14.881  20.358  0.00  0.00    +0.000 C 
ATOM     17  C   UNL     1      -1.988  13.518  19.720  0.00  0.00    +0.000 C 
ATOM     18  N   UNL     1       0.447  11.217  19.445  0.00  0.00    +0.000 NA
ENDROOT
BRANCH   9  19
ATOM     19  C   UNL     1      -1.322  12.329  22.646  0.00  0.00    +0.000 A 
ATOM     20  C   UNL     1      -2.629  11.998  23.019  0.00  0.00    +0.000 A 
ATOM     21  C   UNL     1      -3.327  12.816  23.910  0.00  0.00    +0.000 A 
ATOM     22  C   UNL     1      -2.715  13.950  24.442  0.00  0.00    +0.000 A 
ATOM     23  C   UNL     1      -1.419  14.297  24.062  0.00  0.00    +0.000 A 
ATOM     24  C   UNL     1      -0.740  13.506  23.135  0.00  0.00    +0.000 A 
ENDBRANCH   9  19
BRANCH   1  25
ATOM     25  C   UNL     1       3.032   6.096  18.850  0.00  0.00    +0.000 C 
BRANCH  25  27
ATOM     26  C   UNL     1       4.641   4.666  17.488  0.00  0.00    +0.000 C 
ATOM     27  C   UNL     1       4.095   6.061  17.742  0.00  0.00    +0.000 C 
ENDBRANCH  25  27
ENDBRANCH   1  25
TORSDOF 3
ENDMDL
MODEL 9
REMARK VINA RESULT:      -6.7      9.588     11.818
REMARK  Name = 
REMARK  5 active torsions:
REMARK  status: ('A' for Active; 'I' for Inactive)
REMARK    1  A    between atoms: C_1  and  C_2
REMARK    2  A    between atoms: C_2  and  C_3
REMARK    3  A    between atoms: C_3  and  C_4
REMARK    4  A    between atoms: C_12  and  C_13
REMARK    5  A    between atoms: N_23  and  C_24
REMARK                            x       y       z     vdW  Elec       q    Type
REMARK                         _______ _______ _______ _____ _____    ______ ____
ROOT
ATOM      1  C   UNL     1       7.030  13.161  26.478  0.00  0.00    +0.000 A 
ATOM      2  C   UNL     1       7.295  14.508  26.253  0.00  0.00    +0.000 A 
ATOM      3  C   UNL     1       7.899  14.911  25.052  0.00  0.00    +0.000 A 
ATOM      4  C   UNL     1       8.266  14.017  24.023  0.00  0.00    +0.000 A 
ATOM      5  C   UNL     1       7.991  12.664  24.244  0.00  0.00    +0.000 A 
ATOM      6  C   UNL     1       7.375  12.267  25.466  0.00  0.00    +0.000 A 
ATOM      7  C   UNL     1       8.280  11.515  23.339  0.00  0.00    +0.000 C 
ATOM      8  C   UNL     1       8.881  11.679  22.004  0.00  0.00    +0.000 C 
ATOM      9  C   UNL     1       9.300  12.753  21.327  0.00  0.00    +0.000 C 
ATOM     10  C   UNL     1       9.269  14.196  21.777  0.00  0.00    +0.000 C 
ATOM     11  N   UNL     1       9.741  15.147  20.872  0.00  0.00    +0.000 N 
ATOM     12  C   UNL     1       8.915  16.252  20.377  0.00  0.00    +0.000 C 
ATOM     13  C   UNL     1       9.170  16.464  18.859  0.00  0.00    +0.000 C 
ATOM     14  N   UNL     1      10.600  16.638  18.504  0.00  0.00    +0.000 NA
ATOM     15  C   UNL     1      10.756  16.651  17.047  0.00  0.00    +0.000 C 
ATOM     16  C   UNL     1      11.404  15.541  19.092  0.00  0.00    +0.000 C 
ATOM     17  C   UNL     1      11.170  15.336  20.609  0.00  0.00    +0.000 C 
ATOM     18  N   UNL     1       8.828  14.658  22.924  0.00  0.00    +0.000 NA
ENDROOT
BRANCH   9  19
ATOM     19  C   UNL     1       9.911  12.423  20.018  0.00  0.00    +0.000 A 
ATOM     20  C   UNL     1       9.235  12.667  18.817  0.00  0.00    +0.000 A 
ATOM     21  C   UNL     1       9.871  12.422  17.598  0.00  0.00    +0.000 A 
ATOM     22  C   UNL     1      11.186  11.956  17.578  0.00  0.00    +0.000 A 
ATOM     23  C   UNL     1      11.859  11.694  18.770  0.00  0.00    +0.000 A 
ATOM     24  C   UNL     1      11.207  11.892  19.986  0.00  0.00    +0.000 A 
ENDBRANCH   9  19
BRANCH   1  25
ATOM     25  C   UNL     1       6.387  12.651  27.748  0.00  0.00    +0.000 C 
BRANCH  25  27
ATOM     26  C   UNL     1       5.959  10.171  28.137  0.00  0.00    +0.000 C 
ATOM     27  C   UNL     1       6.950  11.316  28.257  0.00  0.00    +0.000 C 
ENDBRANCH  25  27
ENDBRANCH   1  25
TORSDOF 3
ENDMDL
