MODEL 1
REMARK VINA RESULT:      -8.2      0.000      0.000
REMARK  Name = 
REMARK  7 active torsions:
REMARK  status: ('A' for Active; 'I' for Inactive)
REMARK    1  A    between atoms: C_1  and  C_2
REMARK    2  A    between atoms: C_4  and  C_5
REMARK    3  A    between atoms: C_15  and  O_16
REMARK    4  A    between atoms: C_18  and  C_19
REMARK    5  A    between atoms: C_19  and  O_21
REMARK    6  A    between atoms: O_21  and  C_22
REMARK    7  A    between atoms: C_22  and  C_23
REMARK                            x       y       z     vdW  Elec       q    Type
REMARK                         _______ _______ _______ _____ _____    ______ ____
ROOT
ATOM      1  C   UNL     1       0.795   3.071  18.951  0.00  0.00    +0.000 C 
ATOM      2  C   UNL     1       1.671   3.545  20.105  0.00  0.00    +0.000 C 
ATOM      3  O   UNL     1       1.143   4.795  20.539  0.00  0.00    +0.000 OA
ATOM      4  C   UNL     1       2.059   5.726  20.178  0.00  0.00    +0.000 C 
ATOM      5  N   UNL     1       3.204   5.346  19.710  0.00  0.00    +0.000 NA
ATOM      6  C   UNL     1       3.128   3.861  19.807  0.00  0.00    +0.000 C 
ENDROOT
BRANCH   4   7
ATOM      7  C   UNL     1       1.563   7.109  20.239  0.00  0.00    +0.000 A 
ATOM      8  C   UNL     1       0.979   7.535  21.430  0.00  0.00    +0.000 A 
ATOM      9  C   UNL     1       0.673   8.885  21.610  0.00  0.00    +0.000 A 
ATOM     10 CL   UNL     1      -0.046   9.324  23.127  0.00  0.00    +0.000 Cl
ATOM     11  C   UNL     1       0.968   9.848  20.612  0.00  0.00    +0.000 A 
ATOM     12  C   UNL     1       0.763  11.239  20.785  0.00  0.00    +0.000 A 
ATOM     13  C   UNL     1       1.089  12.163  19.792  0.00  0.00    +0.000 A 
ATOM     14  C   UNL     1       1.595  11.721  18.580  0.00  0.00    +0.000 A 
ATOM     15  C   UNL     1       1.781  10.358  18.367  0.00  0.00    +0.000 A 
ATOM     16  C   UNL     1       1.505   9.405  19.378  0.00  0.00    +0.000 A 
ATOM     17  C   UNL     1       1.770   8.025  19.200  0.00  0.00    +0.000 A 
BRANCH  17  18
ATOM     18  O   UNL     1       2.212   7.549  17.989  0.00  0.00    +0.000 OA
ATOM     19  H   UNL     1       2.010   6.603  17.928  0.00  0.00    +0.000 HD
ENDBRANCH  17  18
ENDBRANCH   4   7
BRANCH   6  20
ATOM     20  C   UNL     1       3.628   3.196  18.541  0.00  0.00    +0.000 C 
ATOM     21  O   UNL     1       3.881   1.997  18.472  0.00  0.00    +0.000 OA
BRANCH  20  22
ATOM     22  O   UNL     1       3.655   4.062  17.489  0.00  0.00    +0.000 OA
BRANCH  22  23
ATOM     23  C   UNL     1       4.825   4.000  16.671  0.00  0.00    +0.000 C 
BRANCH  23  24
ATOM     24  C   UNL     1       5.835   5.011  17.146  0.00  0.00    +0.000 A 
ATOM     25  C   UNL     1       6.809   4.644  18.083  0.00  0.00    +0.000 A 
ATOM     26  C   UNL     1       7.711   5.588  18.570  0.00  0.00    +0.000 A 
ATOM     27  C   UNL     1       7.650   6.905  18.124  0.00  0.00    +0.000 A 
ATOM     28  C   UNL     1       6.689   7.281  17.185  0.00  0.00    +0.000 A 
ATOM     29  C   UNL     1       5.786   6.339  16.697  0.00  0.00    +0.000 A 
ENDBRANCH  23  24
ENDBRANCH  22  23
ENDBRANCH  20  22
ENDBRANCH   6  20
TORSDOF 6
ENDMDL
MODEL 2
REMARK VINA RESULT:      -8.0      0.831      1.287
REMARK  Name = 
REMARK  7 active torsions:
REMARK  status: ('A' for Active; 'I' for Inactive)
REMARK    1  A    between atoms: C_1  and  C_2
REMARK    2  A    between atoms: C_4  and  C_5
REMARK    3  A    between atoms: C_15  and  O_16
REMARK    4  A    between atoms: C_18  and  C_19
REMARK    5  A    between atoms: C_19  and  O_21
REMARK    6  A    between atoms: O_21  and  C_22
REMARK    7  A    between atoms: C_22  and  C_23
REMARK                            x       y       z     vdW  Elec       q    Type
REMARK                         _______ _______ _______ _____ _____    ______ ____
ROOT
ATOM      1  C   UNL     1       0.886   3.744  20.020  0.00  0.00    +0.000 C 
ATOM      2  C   UNL     1       2.038   4.510  20.662  0.00  0.00    +0.000 C 
ATOM      3  O   UNL     1       1.511   5.760  21.100  0.00  0.00    +0.000 OA
ATOM      4  C   UNL     1       2.059   6.695  20.287  0.00  0.00    +0.000 C 
ATOM      5  N   UNL     1       2.994   6.352  19.460  0.00  0.00    +0.000 NA
ATOM      6  C   UNL     1       3.205   4.911  19.775  0.00  0.00    +0.000 C 
ENDROOT
BRANCH   4   7
ATOM      7  C   UNL     1       1.400   8.008  20.355  0.00  0.00    +0.000 A 
ATOM      8  C   UNL     1       0.739   8.340  21.536  0.00  0.00    +0.000 A 
ATOM      9  C   UNL     1       0.270   9.640  21.728  0.00  0.00    +0.000 A 
ATOM     10 CL   UNL     1      -0.536   9.962  23.230  0.00  0.00    +0.000 Cl
ATOM     11  C   UNL     1       0.474  10.650  20.753  0.00  0.00    +0.000 A 
ATOM     12  C   UNL     1       0.099  12.003  20.942  0.00  0.00    +0.000 A 
ATOM     13  C   UNL     1       0.338  12.977  19.972  0.00  0.00    +0.000 A 
ATOM     14  C   UNL     1       0.924  12.620  18.768  0.00  0.00    +0.000 A 
ATOM     15  C   UNL     1       1.278  11.294  18.539  0.00  0.00    +0.000 A 
ATOM     16  C   UNL     1       1.092  10.296  19.528  0.00  0.00    +0.000 A 
ATOM     17  C   UNL     1       1.524   8.961  19.337  0.00  0.00    +0.000 A 
BRANCH  17  18
ATOM     18  O   UNL     1       2.050   8.563  18.131  0.00  0.00    +0.000 OA
ATOM     19  H   UNL     1       2.765   9.168  17.882  0.00  0.00    +0.000 HD
ENDBRANCH  17  18
ENDBRANCH   4   7
BRANCH   6  20
ATOM     20  C   UNL     1       3.302   4.076  18.514  0.00  0.00    +0.000 C 
ATOM     21  O   UNL     1       3.168   2.856  18.510  0.00  0.00    +0.000 OA
BRANCH  20  22
ATOM     22  O   UNL     1       3.445   4.852  17.402  0.00  0.00    +0.000 OA
BRANCH  22  23
ATOM     23  C   UNL     1       4.650   4.649  16.662  0.00  0.00    +0.000 C 
BRANCH  23  24
ATOM     24  C   UNL     1       5.767   5.454  17.271  0.00  0.00    +0.000 A 
ATOM     25  C   UNL     1       5.944   6.795  16.908  0.00  0.00    +0.000 A 
ATOM     26  C   UNL     1       7.010   7.530  17.424  0.00  0.00    +0.000 A 
ATOM     27  C   UNL     1       7.906   6.934  18.307  0.00  0.00    +0.000 A 
ATOM     28  C   UNL     1       7.735   5.600  18.681  0.00  0.00    +0.000 A 
ATOM     29  C   UNL     1       6.671   4.863  18.166  0.00  0.00    +0.000 A 
ENDBRANCH  23  24
ENDBRANCH  22  23
ENDBRANCH  20  22
ENDBRANCH   6  20
TORSDOF 6
ENDMDL
MODEL 3
REMARK VINA RESULT:      -7.8      2.051      2.740
REMARK  Name = 
REMARK  7 active torsions:
REMARK  status: ('A' for Active; 'I' for Inactive)
REMARK    1  A    between atoms: C_1  and  C_2
REMARK    2  A    between atoms: C_4  and  C_5
REMARK    3  A    between atoms: C_15  and  O_16
REMARK    4  A    between atoms: C_18  and  C_19
REMARK    5  A    between atoms: C_19  and  O_21
REMARK    6  A    between atoms: O_21  and  C_22
REMARK    7  A    between atoms: C_22  and  C_23
REMARK                            x       y       z     vdW  Elec       q    Type
REMARK                         _______ _______ _______ _____ _____    ______ ____
ROOT
ATOM      1  C   UNL     1       1.047   4.415  20.384  0.00  0.00    +0.000 C 
ATOM      2  C   UNL     1       2.225   5.359  20.595  0.00  0.00    +0.000 C 
ATOM      3  O   UNL     1       1.687   6.598  21.050  0.00  0.00    +0.000 OA
ATOM      4  C   UNL     1       1.869   7.473  20.032  0.00  0.00    +0.000 C 
ATOM      5  N   UNL     1       2.575   7.121  19.006  0.00  0.00    +0.000 NA
ATOM      6  C   UNL     1       3.043   5.756  19.376  0.00  0.00    +0.000 C 
ENDROOT
BRANCH   4   7
ATOM      7  C   UNL     1       1.095   8.717  20.166  0.00  0.00    +0.000 A 
ATOM      8  C   UNL     1       0.502   9.237  19.017  0.00  0.00    +0.000 A 
ATOM      9  C   UNL     1      -0.401  10.297  19.121  0.00  0.00    +0.000 A 
ATOM     10 CL   UNL     1      -1.092  10.876  17.639  0.00  0.00    +0.000 Cl
ATOM     11  C   UNL     1      -0.754  10.846  20.380  0.00  0.00    +0.000 A 
ATOM     12  C   UNL     1      -1.733  11.856  20.543  0.00  0.00    +0.000 A 
ATOM     13  C   UNL     1      -2.077  12.355  21.799  0.00  0.00    +0.000 A 
ATOM     14  C   UNL     1      -1.423  11.887  22.928  0.00  0.00    +0.000 A 
ATOM     15  C   UNL     1      -0.436  10.915  22.799  0.00  0.00    +0.000 A 
ATOM     16  C   UNL     1      -0.105  10.356  21.540  0.00  0.00    +0.000 A 
ATOM     17  C   UNL     1       0.838   9.308  21.409  0.00  0.00    +0.000 A 
BRANCH  17  18
ATOM     18  O   UNL     1       1.548   8.866  22.500  0.00  0.00    +0.000 OA
ATOM     19  H   UNL     1       1.215   9.308  23.295  0.00  0.00    +0.000 HD
ENDBRANCH  17  18
ENDBRANCH   4   7
BRANCH   6  20
ATOM     20  C   UNL     1       2.893   4.785  18.223  0.00  0.00    +0.000 C 
ATOM     21  O   UNL     1       1.918   4.780  17.477  0.00  0.00    +0.000 OA
BRANCH  20  22
ATOM     22  O   UNL     1       4.004   4.012  18.064  0.00  0.00    +0.000 OA
BRANCH  22  23
ATOM     23  C   UNL     1       4.836   4.354  16.952  0.00  0.00    +0.000 C 
BRANCH  23  24
ATOM     24  C   UNL     1       5.933   5.282  17.400  0.00  0.00    +0.000 A 
ATOM     25  C   UNL     1       6.837   4.874  18.389  0.00  0.00    +0.000 A 
ATOM     26  C   UNL     1       7.820   5.748  18.850  0.00  0.00    +0.000 A 
ATOM     27  C   UNL     1       7.911   7.035  18.326  0.00  0.00    +0.000 A 
ATOM     28  C   UNL     1       7.021   7.449  17.334  0.00  0.00    +0.000 A 
ATOM     29  C   UNL     1       6.036   6.577  16.872  0.00  0.00    +0.000 A 
ENDBRANCH  23  24
ENDBRANCH  22  23
ENDBRANCH  20  22
ENDBRANCH   6  20
TORSDOF 6
ENDMDL
MODEL 4
REMARK VINA RESULT:      -7.7      1.114      1.654
REMARK  Name = 
REMARK  7 active torsions:
REMARK  status: ('A' for Active; 'I' for Inactive)
REMARK    1  A    between atoms: C_1  and  C_2
REMARK    2  A    between atoms: C_4  and  C_5
REMARK    3  A    between atoms: C_15  and  O_16
REMARK    4  A    between atoms: C_18  and  C_19
REMARK    5  A    between atoms: C_19  and  O_21
REMARK    6  A    between atoms: O_21  and  C_22
REMARK    7  A    between atoms: C_22  and  C_23
REMARK                            x       y       z     vdW  Elec       q    Type
REMARK                         _______ _______ _______ _____ _____    ______ ____
ROOT
ATOM      1  C   UNL     1       1.048   2.753  19.005  0.00  0.00    +0.000 C 
ATOM      2  C   UNL     1       1.614   3.270  20.323  0.00  0.00    +0.000 C 
ATOM      3  O   UNL     1       1.027   4.548  20.553  0.00  0.00    +0.000 OA
ATOM      4  C   UNL     1       2.029   5.446  20.397  0.00  0.00    +0.000 C 
ATOM      5  N   UNL     1       3.245   5.027  20.255  0.00  0.00    +0.000 NA
ATOM      6  C   UNL     1       3.107   3.550  20.394  0.00  0.00    +0.000 C 
ENDROOT
BRANCH   4   7
ATOM      7  C   UNL     1       1.570   6.838  20.268  0.00  0.00    +0.000 A 
ATOM      8  C   UNL     1       0.908   7.404  21.356  0.00  0.00    +0.000 A 
ATOM      9  C   UNL     1       0.629   8.772  21.364  0.00  0.00    +0.000 A 
ATOM     10 CL   UNL     1      -0.193   9.389  22.761  0.00  0.00    +0.000 Cl
ATOM     11  C   UNL     1       1.030   9.614  20.294  0.00  0.00    +0.000 A 
ATOM     12  C   UNL     1       0.852  11.019  20.300  0.00  0.00    +0.000 A 
ATOM     13  C   UNL     1       1.282  11.821  19.243  0.00  0.00    +0.000 A 
ATOM     14  C   UNL     1       1.868  11.238  18.130  0.00  0.00    +0.000 A 
ATOM     15  C   UNL     1       2.030   9.856  18.081  0.00  0.00    +0.000 A 
ATOM     16  C   UNL     1       1.648   9.026  19.163  0.00  0.00    +0.000 A 
ATOM     17  C   UNL     1       1.885   7.630  19.157  0.00  0.00    +0.000 A 
BRANCH  17  18
ATOM     18  O   UNL     1       2.405   7.014  18.044  0.00  0.00    +0.000 OA
ATOM     19  H   UNL     1       2.197   7.546  17.261  0.00  0.00    +0.000 HD
ENDBRANCH  17  18
ENDBRANCH   4   7
BRANCH   6  20
ATOM     20  C   UNL     1       3.895   2.816  19.329  0.00  0.00    +0.000 C 
ATOM     21  O   UNL     1       3.905   1.593  19.230  0.00  0.00    +0.000 OA
BRANCH  20  22
ATOM     22  O   UNL     1       4.487   3.677  18.453  0.00  0.00    +0.000 OA
BRANCH  22  23
ATOM     23  C   UNL     1       4.105   3.520  17.085  0.00  0.00    +0.000 C 
BRANCH  23  24
ATOM     24  C   UNL     1       5.191   4.051  16.186  0.00  0.00    +0.000 A 
ATOM     25  C   UNL     1       5.137   3.817  14.807  0.00  0.00    +0.000 A 
ATOM     26  C   UNL     1       6.166   4.256  13.976  0.00  0.00    +0.000 A 
ATOM     27  C   UNL     1       7.257   4.933  14.515  0.00  0.00    +0.000 A 
ATOM     28  C   UNL     1       7.317   5.179  15.887  0.00  0.00    +0.000 A 
ATOM     29  C   UNL     1       6.289   4.741  16.720  0.00  0.00    +0.000 A 
ENDBRANCH  23  24
ENDBRANCH  22  23
ENDBRANCH  20  22
ENDBRANCH   6  20
TORSDOF 6
ENDMDL
MODEL 5
REMARK VINA RESULT:      -7.7      1.502      2.005
REMARK  Name = 
REMARK  7 active torsions:
REMARK  status: ('A' for Active; 'I' for Inactive)
REMARK    1  A    between atoms: C_1  and  C_2
REMARK    2  A    between atoms: C_4  and  C_5
REMARK    3  A    between atoms: C_15  and  O_16
REMARK    4  A    between atoms: C_18  and  C_19
REMARK    5  A    between atoms: C_19  and  O_21
REMARK    6  A    between atoms: O_21  and  C_22
REMARK    7  A    between atoms: C_22  and  C_23
REMARK                            x       y       z     vdW  Elec       q    Type
REMARK                         _______ _______ _______ _____ _____    ______ ____
ROOT
ATOM      1  C   UNL     1       1.168   4.718  20.550  0.00  0.00    +0.000 C 
ATOM      2  C   UNL     1       2.302   5.737  20.566  0.00  0.00    +0.000 C 
ATOM      3  O   UNL     1       1.748   6.967  21.026  0.00  0.00    +0.000 OA
ATOM      4  C   UNL     1       1.748   7.794  19.953  0.00  0.00    +0.000 C 
ATOM      5  N   UNL     1       2.343   7.427  18.865  0.00  0.00    +0.000 NA
ATOM      6  C   UNL     1       2.938   6.113  19.237  0.00  0.00    +0.000 C 
ENDROOT
BRANCH   4   7
ATOM      7  C   UNL     1       0.920   8.998  20.125  0.00  0.00    +0.000 A 
ATOM      8  C   UNL     1       0.292   9.181  21.356  0.00  0.00    +0.000 A 
ATOM      9  C   UNL     1      -0.339  10.393  21.640  0.00  0.00    +0.000 A 
ATOM     10 CL   UNL     1      -1.089  10.532  23.198  0.00  0.00    +0.000 Cl
ATOM     11  C   UNL     1      -0.335  11.464  20.710  0.00  0.00    +0.000 A 
ATOM     12  C   UNL     1      -0.880  12.741  20.989  0.00  0.00    +0.000 A 
ATOM     13  C   UNL     1      -0.835  13.781  20.061  0.00  0.00    +0.000 A 
ATOM     14  C   UNL     1      -0.280  13.564  18.809  0.00  0.00    +0.000 A 
ATOM     15  C   UNL     1       0.238  12.311  18.493  0.00  0.00    +0.000 A 
ATOM     16  C   UNL     1       0.251  11.255  19.437  0.00  0.00    +0.000 A 
ATOM     17  C   UNL     1       0.850  10.003  19.153  0.00  0.00    +0.000 A 
BRANCH  17  18
ATOM     18  O   UNL     1       1.352   9.736  17.902  0.00  0.00    +0.000 OA
ATOM     19  H   UNL     1       0.866  10.260  17.247  0.00  0.00    +0.000 HD
ENDBRANCH  17  18
ENDBRANCH   4   7
BRANCH   6  20
ATOM     20  C   UNL     1       2.708   5.073  18.159  0.00  0.00    +0.000 C 
ATOM     21  O   UNL     1       1.629   4.924  17.595  0.00  0.00    +0.000 OA
BRANCH  20  22
ATOM     22  O   UNL     1       3.859   4.419  17.833  0.00  0.00    +0.000 OA
BRANCH  22  23
ATOM     23  C   UNL     1       4.647   5.034  16.812  0.00  0.00    +0.000 C 
BRANCH  23  24
ATOM     24  C   UNL     1       5.874   5.662  17.420  0.00  0.00    +0.000 A 
ATOM     25  C   UNL     1       6.481   5.076  18.538  0.00  0.00    +0.000 A 
ATOM     26  C   UNL     1       7.582   5.682  19.141  0.00  0.00    +0.000 A 
ATOM     27  C   UNL     1       8.086   6.876  18.633  0.00  0.00    +0.000 A 
ATOM     28  C   UNL     1       7.493   7.465  17.515  0.00  0.00    +0.000 A 
ATOM     29  C   UNL     1       6.392   6.861  16.910  0.00  0.00    +0.000 A 
ENDBRANCH  23  24
ENDBRANCH  22  23
ENDBRANCH  20  22
ENDBRANCH   6  20
TORSDOF 6
ENDMDL
MODEL 6
REMARK VINA RESULT:      -7.6      1.839      4.440
REMARK  Name = 
REMARK  7 active torsions:
REMARK  status: ('A' for Active; 'I' for Inactive)
REMARK    1  A    between atoms: C_1  and  C_2
REMARK    2  A    between atoms: C_4  and  C_5
REMARK    3  A    between atoms: C_15  and  O_16
REMARK    4  A    between atoms: C_18  and  C_19
REMARK    5  A    between atoms: C_19  and  O_21
REMARK    6  A    between atoms: O_21  and  C_22
REMARK    7  A    between atoms: C_22  and  C_23
REMARK                            x       y       z     vdW  Elec       q    Type
REMARK                         _______ _______ _______ _____ _____    ______ ____
ROOT
ATOM      1  C   UNL     1       6.130   6.996  17.132  0.00  0.00    +0.000 C 
ATOM      2  C   UNL     1       4.730   6.791  16.564  0.00  0.00    +0.000 C 
ATOM      3  O   UNL     1       3.923   7.859  17.054  0.00  0.00    +0.000 OA
ATOM      4  C   UNL     1       3.060   7.294  17.932  0.00  0.00    +0.000 C 
ATOM      5  N   UNL     1       3.005   6.006  18.034  0.00  0.00    +0.000 NA
ATOM      6  C   UNL     1       3.966   5.548  16.991  0.00  0.00    +0.000 C 
ENDROOT
BRANCH   4   7
ATOM      7  C   UNL     1       2.361   8.263  18.791  0.00  0.00    +0.000 A 
ATOM      8  C   UNL     1       2.044   9.504  18.242  0.00  0.00    +0.000 A 
ATOM      9  C   UNL     1       1.213  10.381  18.941  0.00  0.00    +0.000 A 
ATOM     10 CL   UNL     1       0.870  11.900  18.178  0.00  0.00    +0.000 Cl
ATOM     11  C   UNL     1       0.656  10.027  20.197  0.00  0.00    +0.000 A 
ATOM     12  C   UNL     1      -0.264  10.843  20.899  0.00  0.00    +0.000 A 
ATOM     13  C   UNL     1      -0.814  10.453  22.120  0.00  0.00    +0.000 A 
ATOM     14  C   UNL     1      -0.431   9.252  22.696  0.00  0.00    +0.000 A 
ATOM     15  C   UNL     1       0.494   8.440  22.045  0.00  0.00    +0.000 A 
ATOM     16  C   UNL     1       1.028   8.791  20.781  0.00  0.00    +0.000 A 
ATOM     17  C   UNL     1       1.905   7.933  20.073  0.00  0.00    +0.000 A 
BRANCH  17  18
ATOM     18  O   UNL     1       2.353   6.766  20.644  0.00  0.00    +0.000 OA
ATOM     19  H   UNL     1       2.748   6.208  19.957  0.00  0.00    +0.000 HD
ENDBRANCH  17  18
ENDBRANCH   4   7
BRANCH   6  20
ATOM     20  C   UNL     1       4.871   4.450  17.513  0.00  0.00    +0.000 C 
ATOM     21  O   UNL     1       5.529   3.721  16.777  0.00  0.00    +0.000 OA
BRANCH  20  22
ATOM     22  O   UNL     1       4.938   4.454  18.875  0.00  0.00    +0.000 OA
BRANCH  22  23
ATOM     23  C   UNL     1       4.661   3.202  19.507  0.00  0.00    +0.000 C 
BRANCH  23  24
ATOM     24  C   UNL     1       3.174   3.015  19.643  0.00  0.00    +0.000 A 
ATOM     25  C   UNL     1       2.536   3.318  20.853  0.00  0.00    +0.000 A 
ATOM     26  C   UNL     1       1.169   3.094  21.006  0.00  0.00    +0.000 A 
ATOM     27  C   UNL     1       0.427   2.567  19.952  0.00  0.00    +0.000 A 
ATOM     28  C   UNL     1       1.050   2.268  18.740  0.00  0.00    +0.000 A 
ATOM     29  C   UNL     1       2.417   2.491  18.585  0.00  0.00    +0.000 A 
ENDBRANCH  23  24
ENDBRANCH  22  23
ENDBRANCH  20  22
ENDBRANCH   6  20
TORSDOF 6
ENDMDL
MODEL 7
REMARK VINA RESULT:      -7.6      1.893      4.305
REMARK  Name = 
REMARK  7 active torsions:
REMARK  status: ('A' for Active; 'I' for Inactive)
REMARK    1  A    between atoms: C_1  and  C_2
REMARK    2  A    between atoms: C_4  and  C_5
REMARK    3  A    between atoms: C_15  and  O_16
REMARK    4  A    between atoms: C_18  and  C_19
REMARK    5  A    between atoms: C_19  and  O_21
REMARK    6  A    between atoms: O_21  and  C_22
REMARK    7  A    between atoms: C_22  and  C_23
REMARK                            x       y       z     vdW  Elec       q    Type
REMARK                         _______ _______ _______ _____ _____    ______ ____
ROOT
ATOM      1  C   UNL     1       5.440   7.215  17.255  0.00  0.00    +0.000 C 
ATOM      2  C   UNL     1       3.990   6.814  17.008  0.00  0.00    +0.000 C 
ATOM      3  O   UNL     1       3.181   7.917  17.409  0.00  0.00    +0.000 OA
ATOM      4  C   UNL     1       2.534   7.511  18.528  0.00  0.00    +0.000 C 
ATOM      5  N   UNL     1       2.617   6.274  18.899  0.00  0.00    +0.000 NA
ATOM      6  C   UNL     1       3.427   5.654  17.814  0.00  0.00    +0.000 C 
ENDROOT
BRANCH   4   7
ATOM      7  C   UNL     1       1.903   8.603  19.284  0.00  0.00    +0.000 A 
ATOM      8  C   UNL     1       1.630   9.788  18.604  0.00  0.00    +0.000 A 
ATOM      9  C   UNL     1       0.859  10.778  19.214  0.00  0.00    +0.000 A 
ATOM     10 CL   UNL     1       0.568  12.217  18.290  0.00  0.00    +0.000 Cl
ATOM     11  C   UNL     1       0.317  10.596  20.513  0.00  0.00    +0.000 A 
ATOM     12  C   UNL     1      -0.546  11.531  21.135  0.00  0.00    +0.000 A 
ATOM     13  C   UNL     1      -1.084  11.308  22.403  0.00  0.00    +0.000 A 
ATOM     14  C   UNL     1      -0.742  10.163  23.104  0.00  0.00    +0.000 A 
ATOM     15  C   UNL     1       0.128   9.238  22.533  0.00  0.00    +0.000 A 
ATOM     16  C   UNL     1       0.645   9.417  21.226  0.00  0.00    +0.000 A 
ATOM     17  C   UNL     1       1.464   8.443  20.604  0.00  0.00    +0.000 A 
BRANCH  17  18
ATOM     18  O   UNL     1       1.871   7.328  21.296  0.00  0.00    +0.000 OA
ATOM     19  H   UNL     1       2.626   7.561  21.858  0.00  0.00    +0.000 HD
ENDBRANCH  17  18
ENDBRANCH   4   7
BRANCH   6  20
ATOM     20  C   UNL     1       4.505   4.748  18.373  0.00  0.00    +0.000 C 
ATOM     21  O   UNL     1       5.197   5.051  19.340  0.00  0.00    +0.000 OA
BRANCH  20  22
ATOM     22  O   UNL     1       4.527   3.538  17.744  0.00  0.00    +0.000 OA
BRANCH  22  23
ATOM     23  C   UNL     1       3.278   2.845  17.701  0.00  0.00    +0.000 C 
BRANCH  23  24
ATOM     24  C   UNL     1       2.656   2.826  19.073  0.00  0.00    +0.000 A 
ATOM     25  C   UNL     1       3.420   2.451  20.185  0.00  0.00    +0.000 A 
ATOM     26  C   UNL     1       2.837   2.376  21.448  0.00  0.00    +0.000 A 
ATOM     27  C   UNL     1       1.487   2.677  21.612  0.00  0.00    +0.000 A 
ATOM     28  C   UNL     1       0.718   3.059  20.513  0.00  0.00    +0.000 A 
ATOM     29  C   UNL     1       1.299   3.135  19.248  0.00  0.00    +0.000 A 
ENDBRANCH  23  24
ENDBRANCH  22  23
ENDBRANCH  20  22
ENDBRANCH   6  20
TORSDOF 6
ENDMDL
MODEL 8
REMARK VINA RESULT:      -7.6      1.844      4.492
REMARK  Name = 
REMARK  7 active torsions:
REMARK  status: ('A' for Active; 'I' for Inactive)
REMARK    1  A    between atoms: C_1  and  C_2
REMARK    2  A    between atoms: C_4  and  C_5
REMARK    3  A    between atoms: C_15  and  O_16
REMARK    4  A    between atoms: C_18  and  C_19
REMARK    5  A    between atoms: C_19  and  O_21
REMARK    6  A    between atoms: O_21  and  C_22
REMARK    7  A    between atoms: C_22  and  C_23
REMARK                            x       y       z     vdW  Elec       q    Type
REMARK                         _______ _______ _______ _____ _____    ______ ____
ROOT
ATOM      1  C   UNL     1       6.870   6.209  17.633  0.00  0.00    +0.000 C 
ATOM      2  C   UNL     1       5.763   6.503  16.627  0.00  0.00    +0.000 C 
ATOM      3  O   UNL     1       4.980   7.563  17.170  0.00  0.00    +0.000 OA
ATOM      4  C   UNL     1       3.788   7.008  17.499  0.00  0.00    +0.000 C 
ATOM      5  N   UNL     1       3.532   5.790  17.145  0.00  0.00    +0.000 NA
ATOM      6  C   UNL     1       4.739   5.411  16.359  0.00  0.00    +0.000 C 
ENDROOT
BRANCH   4   7
ATOM      7  C   UNL     1       2.956   7.851  18.372  0.00  0.00    +0.000 A 
ATOM      8  C   UNL     1       2.588   9.108  17.897  0.00  0.00    +0.000 A 
ATOM      9  C   UNL     1       1.643   9.864  18.593  0.00  0.00    +0.000 A 
ATOM     10 CL   UNL     1       1.242  11.413  17.925  0.00  0.00    +0.000 Cl
ATOM     11  C   UNL     1       1.023   9.369  19.769  0.00  0.00    +0.000 A 
ATOM     12  C   UNL     1      -0.006  10.058  20.456  0.00  0.00    +0.000 A 
ATOM     13  C   UNL     1      -0.614   9.530  21.596  0.00  0.00    +0.000 A 
ATOM     14  C   UNL     1      -0.184   8.316  22.106  0.00  0.00    +0.000 A 
ATOM     15  C   UNL     1       0.846   7.627  21.471  0.00  0.00    +0.000 A 
ATOM     16  C   UNL     1       1.444   8.118  20.284  0.00  0.00    +0.000 A 
ATOM     17  C   UNL     1       2.433   7.385  19.584  0.00  0.00    +0.000 A 
BRANCH  17  18
ATOM     18  O   UNL     1       2.925   6.209  20.098  0.00  0.00    +0.000 OA
ATOM     19  H   UNL     1       2.205   5.564  20.161  0.00  0.00    +0.000 HD
ENDBRANCH  17  18
ENDBRANCH   4   7
BRANCH   6  20
ATOM     20  C   UNL     1       5.237   4.031  16.738  0.00  0.00    +0.000 C 
ATOM     21  O   UNL     1       6.020   3.389  16.043  0.00  0.00    +0.000 OA
BRANCH  20  22
ATOM     22  O   UNL     1       4.798   3.655  17.972  0.00  0.00    +0.000 OA
BRANCH  22  23
ATOM     23  C   UNL     1       3.810   2.622  17.984  0.00  0.00    +0.000 C 
BRANCH  23  24
ATOM     24  C   UNL     1       2.903   2.795  19.174  0.00  0.00    +0.000 A 
ATOM     25  C   UNL     1       3.393   2.578  20.468  0.00  0.00    +0.000 A 
ATOM     26  C   UNL     1       2.546   2.680  21.570  0.00  0.00    +0.000 A 
ATOM     27  C   UNL     1       1.204   3.002  21.390  0.00  0.00    +0.000 A 
ATOM     28  C   UNL     1       0.706   3.228  20.106  0.00  0.00    +0.000 A 
ATOM     29  C   UNL     1       1.551   3.126  19.003  0.00  0.00    +0.000 A 
ENDBRANCH  23  24
ENDBRANCH  22  23
ENDBRANCH  20  22
ENDBRANCH   6  20
TORSDOF 6
ENDMDL
MODEL 9
REMARK VINA RESULT:      -7.6      1.386      2.014
REMARK  Name = 
REMARK  7 active torsions:
REMARK  status: ('A' for Active; 'I' for Inactive)
REMARK    1  A    between atoms: C_1  and  C_2
REMARK    2  A    between atoms: C_4  and  C_5
REMARK    3  A    between atoms: C_15  and  O_16
REMARK    4  A    between atoms: C_18  and  C_19
REMARK    5  A    between atoms: C_19  and  O_21
REMARK    6  A    between atoms: O_21  and  C_22
REMARK    7  A    between atoms: C_22  and  C_23
REMARK                            x       y       z     vdW  Elec       q    Type
REMARK                         _______ _______ _______ _____ _____    ______ ____
ROOT
ATOM      1  C   UNL     1       0.848   4.130  20.360  0.00  0.00    +0.000 C 
ATOM      2  C   UNL     1       2.063   4.985  20.701  0.00  0.00    +0.000 C 
ATOM      3  O   UNL     1       1.569   6.239  21.167  0.00  0.00    +0.000 OA
ATOM      4  C   UNL     1       1.886   7.138  20.204  0.00  0.00    +0.000 C 
ATOM      5  N   UNL     1       2.647   6.779  19.222  0.00  0.00    +0.000 NA
ATOM      6  C   UNL     1       2.998   5.374  19.567  0.00  0.00    +0.000 C 
ENDROOT
BRANCH   4   7
ATOM      7  C   UNL     1       1.183   8.424  20.333  0.00  0.00    +0.000 A 
ATOM      8  C   UNL     1       0.518   8.681  21.530  0.00  0.00    +0.000 A 
ATOM      9  C   UNL     1       0.006   9.956  21.781  0.00  0.00    +0.000 A 
ATOM     10 CL   UNL     1      -0.801  10.184  23.299  0.00  0.00    +0.000 Cl
ATOM     11  C   UNL     1       0.170  11.013  20.851  0.00  0.00    +0.000 A 
ATOM     12  C   UNL     1      -0.248  12.343  21.101  0.00  0.00    +0.000 A 
ATOM     13  C   UNL     1      -0.047  13.367  20.174  0.00  0.00    +0.000 A 
ATOM     14  C   UNL     1       0.544  13.083  18.953  0.00  0.00    +0.000 A 
ATOM     15  C   UNL     1       0.940  11.780  18.664  0.00  0.00    +0.000 A 
ATOM     16  C   UNL     1       0.793  10.735  19.609  0.00  0.00    +0.000 A 
ATOM     17  C   UNL     1       1.269   9.425  19.357  0.00  0.00    +0.000 A 
BRANCH  17  18
ATOM     18  O   UNL     1       1.801   9.098  18.133  0.00  0.00    +0.000 OA
ATOM     19  H   UNL     1       1.251   9.484  17.435  0.00  0.00    +0.000 HD
ENDBRANCH  17  18
ENDBRANCH   4   7
BRANCH   6  20
ATOM     20  C   UNL     1       2.878   4.459  18.365  0.00  0.00    +0.000 C 
ATOM     21  O   UNL     1       2.042   4.623  17.482  0.00  0.00    +0.000 OA
BRANCH  20  22
ATOM     22  O   UNL     1       3.867   3.521  18.342  0.00  0.00    +0.000 OA
BRANCH  22  23
ATOM     23  C   UNL     1       5.195   4.024  18.500  0.00  0.00    +0.000 C 
BRANCH  23  24
ATOM     24  C   UNL     1       5.783   4.350  17.152  0.00  0.00    +0.000 A 
ATOM     25  C   UNL     1       5.278   3.735  16.000  0.00  0.00    +0.000 A 
ATOM     26  C   UNL     1       5.854   3.987  14.756  0.00  0.00    +0.000 A 
ATOM     27  C   UNL     1       6.937   4.856  14.652  0.00  0.00    +0.000 A 
ATOM     28  C   UNL     1       7.444   5.479  15.793  0.00  0.00    +0.000 A 
ATOM     29  C   UNL     1       6.870   5.229  17.038  0.00  0.00    +0.000 A 
ENDBRANCH  23  24
ENDBRANCH  22  23
ENDBRANCH  20  22
ENDBRANCH   6  20
TORSDOF 6
ENDMDL
