MODEL 1
REMARK VINA RESULT:      -7.6      0.000      0.000
REMARK  Name = 
REMARK  8 active torsions:
REMARK  status: ('A' for Active; 'I' for Inactive)
REMARK    1  A    between atoms: C_1  and  O_2
REMARK    2  A    between atoms: O_2  and  C_3
REMARK    3  A    between atoms: C_6  and  C_7
REMARK    4  A    between atoms: C_7  and  N_8
REMARK    5  A    between atoms: C_17  and  C_18
REMARK    6  A    between atoms: N_22  and  C_23
REMARK    7  A    between atoms: C_34  and  O_35
REMARK    8  A    between atoms: O_35  and  C_36
REMARK                            x       y       z     vdW  Elec       q    Type
REMARK                         _______ _______ _______ _____ _____    ______ ____
ROOT
ATOM      1  N   UNL     1       0.382  12.181  19.559  0.00  0.00    +0.000 N 
ATOM      2  C   UNL     1       0.563  10.777  19.462  0.00  0.00    +0.000 C 
ATOM      3  O   UNL     1       0.719  10.112  18.452  0.00  0.00    +0.000 OA
ATOM      4  C   UNL     1       0.304  10.170  20.778  0.00  0.00    +0.000 A 
ATOM      5  C   UNL     1       0.362   8.821  21.099  0.00  0.00    +0.000 A 
ATOM      6  C   UNL     1      -0.102   8.440  22.348  0.00  0.00    +0.000 A 
ATOM      7  C   UNL     1      -0.652   9.408  23.210  0.00  0.00    +0.000 A 
ATOM      8  C   UNL     1      -0.644  10.782  22.884  0.00  0.00    +0.000 A 
ATOM      9  C   UNL     1      -0.110  11.179  21.666  0.00  0.00    +0.000 A 
ATOM     10  C   UNL     1       0.305  12.489  21.005  0.00  0.00    +0.000 C 
ENDROOT
BRANCH  10  11
ATOM     11  C   UNL     1       0.515  13.860  21.637  0.00  0.00    +0.000 A 
ATOM     12  N   UNL     1       1.721  14.298  21.995  0.00  0.00    +0.000 NA
ATOM     13  N   UNL     1       1.602  15.607  22.348  0.00  0.00    +0.000 NA
ATOM     14  N   UNL     1       0.355  16.015  22.213  0.00  0.00    +0.000 NA
ATOM     15  N   UNL     1      -0.366  14.907  21.934  0.00  0.00    +0.000 N 
BRANCH  15  16
ATOM     16  C   UNL     1      -1.748  14.894  22.189  0.00  0.00    +0.000 A 
ATOM     17  C   UNL     1      -2.730  15.384  21.309  0.00  0.00    +0.000 A 
ATOM     18  C   UNL     1      -4.087  15.147  21.609  0.00  0.00    +0.000 A 
ATOM     19  C   UNL     1      -4.420  14.449  22.776  0.00  0.00    +0.000 A 
ATOM     20  C   UNL     1      -3.438  14.191  23.699  0.00  0.00    +0.000 A 
ATOM     21  C   UNL     1      -2.127  14.426  23.421  0.00  0.00    +0.000 A 
ATOM     22  O   UNL     1      -3.667  13.566  24.888  0.00  0.00    +0.000 OA
ATOM     23  C   UNL     1      -4.450  12.439  24.563  0.00  0.00    +0.000 C 
ATOM     24  C   UNL     1      -5.781  12.923  23.969  0.00  0.00    +0.000 C 
ATOM     25  O   UNL     1      -5.684  13.920  22.922  0.00  0.00    +0.000 OA
ENDBRANCH  15  16
ENDBRANCH  10  11
BRANCH   1  26
ATOM     26  C   UNL     1      -0.471  12.695  18.491  0.00  0.00    +0.000 C 
BRANCH  26  30
ATOM     27  C   UNL     1      -4.518  11.213  17.983  0.00  0.00    +0.000 A 
ATOM     28  C   UNL     1      -4.149  11.935  19.135  0.00  0.00    +0.000 A 
ATOM     29  C   UNL     1      -2.850  12.412  19.338  0.00  0.00    +0.000 A 
ATOM     30  C   UNL     1      -1.882  12.193  18.369  0.00  0.00    +0.000 A 
ATOM     31  C   UNL     1      -2.284  11.591  17.160  0.00  0.00    +0.000 A 
ATOM     32  C   UNL     1      -3.561  11.020  16.981  0.00  0.00    +0.000 A 
BRANCH  27  34
ATOM     33  C   UNL     1      -6.774  11.526  18.819  0.00  0.00    +0.000 C 
ATOM     34  O   UNL     1      -5.819  10.805  18.064  0.00  0.00    +0.000 OA
ENDBRANCH  27  34
BRANCH  32  35
ATOM     35  O   UNL     1      -3.876  10.276  15.875  0.00  0.00    +0.000 OA
ATOM     36  C   UNL     1      -2.953  10.312  14.780  0.00  0.00    +0.000 C 
ENDBRANCH  32  35
ENDBRANCH  26  30
ENDBRANCH   1  26
TORSDOF 6
ENDMDL
MODEL 2
REMARK VINA RESULT:      -7.6      0.903      1.482
REMARK  Name = 
REMARK  8 active torsions:
REMARK  status: ('A' for Active; 'I' for Inactive)
REMARK    1  A    between atoms: C_1  and  O_2
REMARK    2  A    between atoms: O_2  and  C_3
REMARK    3  A    between atoms: C_6  and  C_7
REMARK    4  A    between atoms: C_7  and  N_8
REMARK    5  A    between atoms: C_17  and  C_18
REMARK    6  A    between atoms: N_22  and  C_23
REMARK    7  A    between atoms: C_34  and  O_35
REMARK    8  A    between atoms: O_35  and  C_36
REMARK                            x       y       z     vdW  Elec       q    Type
REMARK                         _______ _______ _______ _____ _____    ______ ____
ROOT
ATOM      1  N   UNL     1       0.395  12.380  19.637  0.00  0.00    +0.000 N 
ATOM      2  C   UNL     1       0.887  11.075  19.376  0.00  0.00    +0.000 C 
ATOM      3  O   UNL     1       1.240  10.611  18.305  0.00  0.00    +0.000 OA
ATOM      4  C   UNL     1       0.699  10.245  20.577  0.00  0.00    +0.000 A 
ATOM      5  C   UNL     1       1.036   8.907  20.725  0.00  0.00    +0.000 A 
ATOM      6  C   UNL     1       0.602   8.261  21.871  0.00  0.00    +0.000 A 
ATOM      7  C   UNL     1      -0.192   8.957  22.802  0.00  0.00    +0.000 A 
ATOM      8  C   UNL     1      -0.472  10.333  22.657  0.00  0.00    +0.000 A 
ATOM      9  C   UNL     1       0.026  11.005  21.550  0.00  0.00    +0.000 A 
ATOM     10  C   UNL     1       0.176  12.454  21.099  0.00  0.00    +0.000 C 
ENDROOT
BRANCH  10  11
ATOM     11  C   UNL     1       0.044  13.733  21.918  0.00  0.00    +0.000 A 
ATOM     12  N   UNL     1       1.105  14.445  22.296  0.00  0.00    +0.000 NA
ATOM     13  N   UNL     1       0.654  15.608  22.841  0.00  0.00    +0.000 NA
ATOM     14  N   UNL     1      -0.664  15.659  22.808  0.00  0.00    +0.000 NA
ATOM     15  N   UNL     1      -1.069  14.438  22.394  0.00  0.00    +0.000 N 
BRANCH  15  16
ATOM     16  C   UNL     1      -2.370  14.000  22.690  0.00  0.00    +0.000 A 
ATOM     17  C   UNL     1      -2.679  12.848  23.435  0.00  0.00    +0.000 A 
ATOM     18  C   UNL     1      -4.019  12.622  23.809  0.00  0.00    +0.000 A 
ATOM     19  C   UNL     1      -5.004  13.536  23.419  0.00  0.00    +0.000 A 
ATOM     20  C   UNL     1      -4.680  14.516  22.514  0.00  0.00    +0.000 A 
ATOM     21  C   UNL     1      -3.390  14.734  22.140  0.00  0.00    +0.000 A 
ATOM     22  O   UNL     1      -5.576  15.422  22.031  0.00  0.00    +0.000 OA
ATOM     23  C   UNL     1      -6.259  15.902  23.168  0.00  0.00    +0.000 C 
ATOM     24  C   UNL     1      -7.008  14.731  23.820  0.00  0.00    +0.000 C 
ATOM     25  O   UNL     1      -6.235  13.525  24.038  0.00  0.00    +0.000 OA
ENDBRANCH  15  16
ENDBRANCH  10  11
BRANCH   1  26
ATOM     26  C   UNL     1      -0.492  12.850  18.577  0.00  0.00    +0.000 C 
BRANCH  26  30
ATOM     27  C   UNL     1      -4.436  11.113  18.074  0.00  0.00    +0.000 A 
ATOM     28  C   UNL     1      -4.143  11.937  19.178  0.00  0.00    +0.000 A 
ATOM     29  C   UNL     1      -2.878  12.499  19.379  0.00  0.00    +0.000 A 
ATOM     30  C   UNL     1      -1.870  12.264  18.456  0.00  0.00    +0.000 A 
ATOM     31  C   UNL     1      -2.201  11.553  17.285  0.00  0.00    +0.000 A 
ATOM     32  C   UNL     1      -3.441  10.901  17.115  0.00  0.00    +0.000 A 
BRANCH  27  34
ATOM     33  C   UNL     1      -6.828  11.515  18.139  0.00  0.00    +0.000 C 
ATOM     34  O   UNL     1      -5.716  10.640  18.151  0.00  0.00    +0.000 OA
ENDBRANCH  27  34
BRANCH  32  35
ATOM     35  O   UNL     1      -3.682  10.061  16.061  0.00  0.00    +0.000 OA
ATOM     36  C   UNL     1      -2.971  10.321  14.844  0.00  0.00    +0.000 C 
ENDBRANCH  32  35
ENDBRANCH  26  30
ENDBRANCH   1  26
TORSDOF 6
ENDMDL
MODEL 3
REMARK VINA RESULT:      -7.5      2.948      7.153
REMARK  Name = 
REMARK  8 active torsions:
REMARK  status: ('A' for Active; 'I' for Inactive)
REMARK    1  A    between atoms: C_1  and  O_2
REMARK    2  A    between atoms: O_2  and  C_3
REMARK    3  A    between atoms: C_6  and  C_7
REMARK    4  A    between atoms: C_7  and  N_8
REMARK    5  A    between atoms: C_17  and  C_18
REMARK    6  A    between atoms: N_22  and  C_23
REMARK    7  A    between atoms: C_34  and  O_35
REMARK    8  A    between atoms: O_35  and  C_36
REMARK                            x       y       z     vdW  Elec       q    Type
REMARK                         _______ _______ _______ _____ _____    ______ ____
ROOT
ATOM      1  N   UNL     1      -0.323  12.810  20.279  0.00  0.00    +0.000 N 
ATOM      2  C   UNL     1      -0.675  13.235  18.971  0.00  0.00    +0.000 C 
ATOM      3  O   UNL     1      -0.718  14.376  18.544  0.00  0.00    +0.000 OA
ATOM      4  C   UNL     1      -1.221  12.088  18.227  0.00  0.00    +0.000 A 
ATOM      5  C   UNL     1      -1.691  12.092  16.921  0.00  0.00    +0.000 A 
ATOM      6  C   UNL     1      -2.339  10.952  16.472  0.00  0.00    +0.000 A 
ATOM      7  C   UNL     1      -2.537   9.872  17.353  0.00  0.00    +0.000 A 
ATOM      8  C   UNL     1      -1.997   9.871  18.658  0.00  0.00    +0.000 A 
ATOM      9  C   UNL     1      -1.280  10.978  19.088  0.00  0.00    +0.000 A 
ATOM     10  C   UNL     1      -0.366  11.330  20.257  0.00  0.00    +0.000 C 
ENDROOT
BRANCH  10  11
ATOM     11  C   UNL     1       0.303  10.404  21.266  0.00  0.00    +0.000 A 
ATOM     12  N   UNL     1       0.379  10.703  22.562  0.00  0.00    +0.000 NA
ATOM     13  N   UNL     1       0.857   9.610  23.215  0.00  0.00    +0.000 NA
ATOM     14  N   UNL     1       1.077   8.620  22.371  0.00  0.00    +0.000 NA
ATOM     15  N   UNL     1       0.900   9.143  21.138  0.00  0.00    +0.000 N 
BRANCH  15  16
ATOM     16  C   UNL     1       1.495   8.522  20.027  0.00  0.00    +0.000 A 
ATOM     17  C   UNL     1       1.640   9.113  18.759  0.00  0.00    +0.000 A 
ATOM     18  C   UNL     1       2.414   8.449  17.787  0.00  0.00    +0.000 A 
ATOM     19  C   UNL     1       3.000   7.217  18.099  0.00  0.00    +0.000 A 
ATOM     20  C   UNL     1       2.645   6.589  19.267  0.00  0.00    +0.000 A 
ATOM     21  C   UNL     1       1.890   7.221  20.207  0.00  0.00    +0.000 A 
ATOM     22  O   UNL     1       3.118   5.367  19.640  0.00  0.00    +0.000 OA
ATOM     23  C   UNL     1       4.511   5.436  19.434  0.00  0.00    +0.000 C 
ATOM     24  C   UNL     1       4.775   5.658  17.938  0.00  0.00    +0.000 C 
ATOM     25  O   UNL     1       4.013   6.719  17.309  0.00  0.00    +0.000 OA
ENDBRANCH  15  16
ENDBRANCH  10  11
BRANCH   1  26
ATOM     26  C   UNL     1      -0.856  13.703  21.304  0.00  0.00    +0.000 C 
BRANCH  26  30
ATOM     27  C   UNL     1      -4.663  12.709  23.132  0.00  0.00    +0.000 A 
ATOM     28  C   UNL     1      -3.536  13.008  23.922  0.00  0.00    +0.000 A 
ATOM     29  C   UNL     1      -2.291  13.316  23.365  0.00  0.00    +0.000 A 
ATOM     30  C   UNL     1      -2.148  13.353  21.986  0.00  0.00    +0.000 A 
ATOM     31  C   UNL     1      -3.305  13.187  21.199  0.00  0.00    +0.000 A 
ATOM     32  C   UNL     1      -4.543  12.782  21.741  0.00  0.00    +0.000 A 
BRANCH  27  34
ATOM     33  C   UNL     1      -6.809  13.272  24.115  0.00  0.00    +0.000 C 
ATOM     34  O   UNL     1      -5.730  12.377  23.918  0.00  0.00    +0.000 OA
ENDBRANCH  27  34
BRANCH  32  35
ATOM     35  O   UNL     1      -5.607  12.444  20.948  0.00  0.00    +0.000 OA
ATOM     36  C   UNL     1      -5.568  12.877  19.583  0.00  0.00    +0.000 C 
ENDBRANCH  32  35
ENDBRANCH  26  30
ENDBRANCH   1  26
TORSDOF 6
ENDMDL
MODEL 4
REMARK VINA RESULT:      -7.4      2.924      7.292
REMARK  Name = 
REMARK  8 active torsions:
REMARK  status: ('A' for Active; 'I' for Inactive)
REMARK    1  A    between atoms: C_1  and  O_2
REMARK    2  A    between atoms: O_2  and  C_3
REMARK    3  A    between atoms: C_6  and  C_7
REMARK    4  A    between atoms: C_7  and  N_8
REMARK    5  A    between atoms: C_17  and  C_18
REMARK    6  A    between atoms: N_22  and  C_23
REMARK    7  A    between atoms: C_34  and  O_35
REMARK    8  A    between atoms: O_35  and  C_36
REMARK                            x       y       z     vdW  Elec       q    Type
REMARK                         _______ _______ _______ _____ _____    ______ ____
ROOT
ATOM      1  N   UNL     1      -0.154  12.795  20.098  0.00  0.00    +0.000 N 
ATOM      2  C   UNL     1      -0.552  13.169  18.788  0.00  0.00    +0.000 C 
ATOM      3  O   UNL     1      -0.543  14.283  18.295  0.00  0.00    +0.000 OA
ATOM      4  C   UNL     1      -1.217  12.023  18.147  0.00  0.00    +0.000 A 
ATOM      5  C   UNL     1      -1.762  11.985  16.871  0.00  0.00    +0.000 A 
ATOM      6  C   UNL     1      -2.511  10.870  16.529  0.00  0.00    +0.000 A 
ATOM      7  C   UNL     1      -2.729   9.859  17.484  0.00  0.00    +0.000 A 
ATOM      8  C   UNL     1      -2.115   9.894  18.754  0.00  0.00    +0.000 A 
ATOM      9  C   UNL     1      -1.300  10.970  19.076  0.00  0.00    +0.000 A 
ATOM     10  C   UNL     1      -0.298  11.323  20.169  0.00  0.00    +0.000 C 
ENDROOT
BRANCH  10  11
ATOM     11  C   UNL     1       0.366  10.410  21.195  0.00  0.00    +0.000 A 
ATOM     12  N   UNL     1       0.449  10.736  22.484  0.00  0.00    +0.000 NA
ATOM     13  N   UNL     1       0.919   9.651  23.158  0.00  0.00    +0.000 NA
ATOM     14  N   UNL     1       1.125   8.642  22.334  0.00  0.00    +0.000 NA
ATOM     15  N   UNL     1       0.949   9.141  21.091  0.00  0.00    +0.000 N 
BRANCH  15  16
ATOM     16  C   UNL     1       1.533   8.491  19.991  0.00  0.00    +0.000 A 
ATOM     17  C   UNL     1       1.667   9.049  18.707  0.00  0.00    +0.000 A 
ATOM     18  C   UNL     1       2.431   8.360  17.745  0.00  0.00    +0.000 A 
ATOM     19  C   UNL     1       3.020   7.136  18.084  0.00  0.00    +0.000 A 
ATOM     20  C   UNL     1       2.676   6.539  19.270  0.00  0.00    +0.000 A 
ATOM     21  C   UNL     1       1.930   7.195  20.201  0.00  0.00    +0.000 A 
ATOM     22  O   UNL     1       3.152   5.326  19.671  0.00  0.00    +0.000 OA
ATOM     23  C   UNL     1       4.543   5.390  19.451  0.00  0.00    +0.000 C 
ATOM     24  C   UNL     1       4.793   5.572  17.946  0.00  0.00    +0.000 C 
ATOM     25  O   UNL     1       4.025   6.617  17.298  0.00  0.00    +0.000 OA
ENDBRANCH  15  16
ENDBRANCH  10  11
BRANCH   1  26
ATOM     26  C   UNL     1      -0.563  13.780  21.094  0.00  0.00    +0.000 C 
BRANCH  26  30
ATOM     27  C   UNL     1      -4.779  14.111  22.067  0.00  0.00    +0.000 A 
ATOM     28  C   UNL     1      -4.155  15.048  21.220  0.00  0.00    +0.000 A 
ATOM     29  C   UNL     1      -2.795  14.980  20.901  0.00  0.00    +0.000 A 
ATOM     30  C   UNL     1      -2.023  13.947  21.410  0.00  0.00    +0.000 A 
ATOM     31  C   UNL     1      -2.675  12.937  22.145  0.00  0.00    +0.000 A 
ATOM     32  C   UNL     1      -4.021  13.042  22.555  0.00  0.00    +0.000 A 
BRANCH  27  34
ATOM     33  C   UNL     1      -7.120  13.918  21.457  0.00  0.00    +0.000 C 
ATOM     34  O   UNL     1      -6.088  14.443  22.273  0.00  0.00    +0.000 OA
ENDBRANCH  27  34
BRANCH  32  35
ATOM     35  O   UNL     1      -4.588  12.148  23.423  0.00  0.00    +0.000 OA
ATOM     36  C   UNL     1      -4.445  12.416  24.824  0.00  0.00    +0.000 C 
ENDBRANCH  32  35
ENDBRANCH  26  30
ENDBRANCH   1  26
TORSDOF 6
ENDMDL
MODEL 5
REMARK VINA RESULT:      -7.1      2.922      7.573
REMARK  Name = 
REMARK  8 active torsions:
REMARK  status: ('A' for Active; 'I' for Inactive)
REMARK    1  A    between atoms: C_1  and  O_2
REMARK    2  A    between atoms: O_2  and  C_3
REMARK    3  A    between atoms: C_6  and  C_7
REMARK    4  A    between atoms: C_7  and  N_8
REMARK    5  A    between atoms: C_17  and  C_18
REMARK    6  A    between atoms: N_22  and  C_23
REMARK    7  A    between atoms: C_34  and  O_35
REMARK    8  A    between atoms: O_35  and  C_36
REMARK                            x       y       z     vdW  Elec       q    Type
REMARK                         _______ _______ _______ _____ _____    ______ ____
ROOT
ATOM      1  N   UNL     1      -0.157  12.722  19.901  0.00  0.00    +0.000 N 
ATOM      2  C   UNL     1      -0.587  13.051  18.589  0.00  0.00    +0.000 C 
ATOM      3  O   UNL     1      -0.568  14.143  18.049  0.00  0.00    +0.000 OA
ATOM      4  C   UNL     1      -1.297  11.895  18.016  0.00  0.00    +0.000 A 
ATOM      5  C   UNL     1      -1.881  11.816  16.760  0.00  0.00    +0.000 A 
ATOM      6  C   UNL     1      -2.664  10.706  16.487  0.00  0.00    +0.000 A 
ATOM      7  C   UNL     1      -2.875   9.741  17.490  0.00  0.00    +0.000 A 
ATOM      8  C   UNL     1      -2.222   9.814  18.739  0.00  0.00    +0.000 A 
ATOM      9  C   UNL     1      -1.374  10.884  18.991  0.00  0.00    +0.000 A 
ATOM     10  C   UNL     1      -0.331  11.259  20.038  0.00  0.00    +0.000 C 
ENDROOT
BRANCH  10  11
ATOM     11  C   UNL     1       0.343  10.374  21.081  0.00  0.00    +0.000 A 
ATOM     12  N   UNL     1       0.410  10.719  22.366  0.00  0.00    +0.000 NA
ATOM     13  N   UNL     1       0.896   9.654  23.060  0.00  0.00    +0.000 NA
ATOM     14  N   UNL     1       1.130   8.638  22.251  0.00  0.00    +0.000 NA
ATOM     15  N   UNL     1       0.953   9.116  21.000  0.00  0.00    +0.000 N 
BRANCH  15  16
ATOM     16  C   UNL     1       1.558   8.462  19.914  0.00  0.00    +0.000 A 
ATOM     17  C   UNL     1       1.697   9.009  18.625  0.00  0.00    +0.000 A 
ATOM     18  C   UNL     1       2.482   8.320  17.679  0.00  0.00    +0.000 A 
ATOM     19  C   UNL     1       3.085   7.109  18.038  0.00  0.00    +0.000 A 
ATOM     20  C   UNL     1       2.736   6.520  19.227  0.00  0.00    +0.000 A 
ATOM     21  C   UNL     1       1.971   7.175  20.142  0.00  0.00    +0.000 A 
ATOM     22  O   UNL     1       3.226   5.319  19.645  0.00  0.00    +0.000 OA
ATOM     23  C   UNL     1       4.619   5.400  19.439  0.00  0.00    +0.000 C 
ATOM     24  C   UNL     1       4.882   5.570  17.936  0.00  0.00    +0.000 C 
ATOM     25  O   UNL     1       4.106   6.596  17.268  0.00  0.00    +0.000 OA
ENDBRANCH  15  16
ENDBRANCH  10  11
BRANCH   1  26
ATOM     26  C   UNL     1      -0.515  13.758  20.866  0.00  0.00    +0.000 C 
BRANCH  26  30
ATOM     27  C   UNL     1      -4.059  13.368  23.338  0.00  0.00    +0.000 A 
ATOM     28  C   UNL     1      -4.033  12.863  22.024  0.00  0.00    +0.000 A 
ATOM     29  C   UNL     1      -2.914  12.987  21.195  0.00  0.00    +0.000 A 
ATOM     30  C   UNL     1      -1.771  13.607  21.677  0.00  0.00    +0.000 A 
ATOM     31  C   UNL     1      -1.751  13.991  23.033  0.00  0.00    +0.000 A 
ATOM     32  C   UNL     1      -2.900  13.960  23.850  0.00  0.00    +0.000 A 
BRANCH  27  34
ATOM     33  C   UNL     1      -6.414  13.932  23.494  0.00  0.00    +0.000 C 
ATOM     34  O   UNL     1      -5.288  13.179  23.905  0.00  0.00    +0.000 OA
ENDBRANCH  27  34
BRANCH  32  35
ATOM     35  O   UNL     1      -2.914  14.508  25.105  0.00  0.00    +0.000 OA
ATOM     36  C   UNL     1      -3.325  15.876  25.216  0.00  0.00    +0.000 C 
ENDBRANCH  32  35
ENDBRANCH  26  30
ENDBRANCH   1  26
TORSDOF 6
ENDMDL
MODEL 6
REMARK VINA RESULT:      -7.1      1.079      1.634
REMARK  Name = 
REMARK  8 active torsions:
REMARK  status: ('A' for Active; 'I' for Inactive)
REMARK    1  A    between atoms: C_1  and  O_2
REMARK    2  A    between atoms: O_2  and  C_3
REMARK    3  A    between atoms: C_6  and  C_7
REMARK    4  A    between atoms: C_7  and  N_8
REMARK    5  A    between atoms: C_17  and  C_18
REMARK    6  A    between atoms: N_22  and  C_23
REMARK    7  A    between atoms: C_34  and  O_35
REMARK    8  A    between atoms: O_35  and  C_36
REMARK                            x       y       z     vdW  Elec       q    Type
REMARK                         _______ _______ _______ _____ _____    ______ ____
ROOT
ATOM      1  N   UNL     1       0.254  12.471  19.458  0.00  0.00    +0.000 N 
ATOM      2  C   UNL     1       0.897  11.209  19.547  0.00  0.00    +0.000 C 
ATOM      3  O   UNL     1       1.468  10.599  18.661  0.00  0.00    +0.000 OA
ATOM      4  C   UNL     1       0.579  10.603  20.851  0.00  0.00    +0.000 A 
ATOM      5  C   UNL     1       1.003   9.368  21.319  0.00  0.00    +0.000 A 
ATOM      6  C   UNL     1       0.437   8.902  22.495  0.00  0.00    +0.000 A 
ATOM      7  C   UNL     1      -0.564   9.659  23.133  0.00  0.00    +0.000 A 
ATOM      8  C   UNL     1      -0.934  10.939  22.668  0.00  0.00    +0.000 A 
ATOM      9  C   UNL     1      -0.315  11.446  21.535  0.00  0.00    +0.000 A 
ATOM     10  C   UNL     1      -0.219  12.792  20.824  0.00  0.00    +0.000 C 
ENDROOT
BRANCH  10  11
ATOM     11  C   UNL     1      -0.602  14.177  21.333  0.00  0.00    +0.000 A 
ATOM     12  N   UNL     1       0.208  15.227  21.207  0.00  0.00    +0.000 NA
ATOM     13  N   UNL     1      -0.486  16.336  21.583  0.00  0.00    +0.000 NA
ATOM     14  N   UNL     1      -1.718  16.020  21.934  0.00  0.00    +0.000 NA
ATOM     15  N   UNL     1      -1.761  14.669  21.947  0.00  0.00    +0.000 N 
BRANCH  15  16
ATOM     16  C   UNL     1      -2.741  14.012  22.709  0.00  0.00    +0.000 A 
ATOM     17  C   UNL     1      -2.759  13.951  24.114  0.00  0.00    +0.000 A 
ATOM     18  C   UNL     1      -3.894  13.414  24.754  0.00  0.00    +0.000 A 
ATOM     19  C   UNL     1      -4.960  12.942  23.980  0.00  0.00    +0.000 A 
ATOM     20  C   UNL     1      -4.795  12.825  22.623  0.00  0.00    +0.000 A 
ATOM     21  C   UNL     1      -3.698  13.333  21.998  0.00  0.00    +0.000 A 
ATOM     22  O   UNL     1      -5.751  12.330  21.787  0.00  0.00    +0.000 OA
ATOM     23  C   UNL     1      -6.939  12.991  22.159  0.00  0.00    +0.000 C 
ATOM     24  C   UNL     1      -7.275  12.615  23.610  0.00  0.00    +0.000 C 
ATOM     25  O   UNL     1      -6.190  12.730  24.563  0.00  0.00    +0.000 OA
ENDBRANCH  15  16
ENDBRANCH  10  11
BRANCH   1  26
ATOM     26  C   UNL     1      -0.476  12.623  18.203  0.00  0.00    +0.000 C 
BRANCH  26  30
ATOM     27  C   UNL     1      -4.510  11.093  17.743  0.00  0.00    +0.000 A 
ATOM     28  C   UNL     1      -4.095  11.693  18.948  0.00  0.00    +0.000 A 
ATOM     29  C   UNL     1      -2.798  12.181  19.135  0.00  0.00    +0.000 A 
ATOM     30  C   UNL     1      -1.880  12.098  18.099  0.00  0.00    +0.000 A 
ATOM     31  C   UNL     1      -2.333  11.622  16.852  0.00  0.00    +0.000 A 
ATOM     32  C   UNL     1      -3.606  11.039  16.677  0.00  0.00    +0.000 A 
BRANCH  27  34
ATOM     33  C   UNL     1      -6.863  11.517  18.154  0.00  0.00    +0.000 C 
ATOM     34  O   UNL     1      -5.795  10.641  17.845  0.00  0.00    +0.000 OA
ENDBRANCH  27  34
BRANCH  32  35
ATOM     35  O   UNL     1      -3.964  10.413  15.513  0.00  0.00    +0.000 OA
ATOM     36  C   UNL     1      -2.909  10.056  14.612  0.00  0.00    +0.000 C 
ENDBRANCH  32  35
ENDBRANCH  26  30
ENDBRANCH   1  26
TORSDOF 6
ENDMDL
MODEL 7
REMARK VINA RESULT:      -7.1      3.092      5.951
REMARK  Name = 
REMARK  8 active torsions:
REMARK  status: ('A' for Active; 'I' for Inactive)
REMARK    1  A    between atoms: C_1  and  O_2
REMARK    2  A    between atoms: O_2  and  C_3
REMARK    3  A    between atoms: C_6  and  C_7
REMARK    4  A    between atoms: C_7  and  N_8
REMARK    5  A    between atoms: C_17  and  C_18
REMARK    6  A    between atoms: N_22  and  C_23
REMARK    7  A    between atoms: C_34  and  O_35
REMARK    8  A    between atoms: O_35  and  C_36
REMARK                            x       y       z     vdW  Elec       q    Type
REMARK                         _______ _______ _______ _____ _____    ______ ____
ROOT
ATOM      1  N   UNL     1       0.308  10.095  20.820  0.00  0.00    +0.000 N 
ATOM      2  C   UNL     1       0.924   8.934  21.354  0.00  0.00    +0.000 C 
ATOM      3  O   UNL     1       1.120   8.666  22.527  0.00  0.00    +0.000 OA
ATOM      4  C   UNL     1       1.522   8.162  20.253  0.00  0.00    +0.000 A 
ATOM      5  C   UNL     1       2.226   6.971  20.359  0.00  0.00    +0.000 A 
ATOM      6  C   UNL     1       2.870   6.506  19.223  0.00  0.00    +0.000 A 
ATOM      7  C   UNL     1       2.830   7.268  18.040  0.00  0.00    +0.000 A 
ATOM      8  C   UNL     1       2.058   8.445  17.942  0.00  0.00    +0.000 A 
ATOM      9  C   UNL     1       1.347   8.875  19.054  0.00  0.00    +0.000 A 
ATOM     10  C   UNL     1       0.257   9.899  19.353  0.00  0.00    +0.000 C 
ENDROOT
BRANCH  10  11
ATOM     11  C   UNL     1      -0.648  10.651  18.384  0.00  0.00    +0.000 A 
ATOM     12  N   UNL     1      -1.447  10.019  17.525  0.00  0.00    +0.000 NA
ATOM     13  N   UNL     1      -2.249  10.949  16.940  0.00  0.00    +0.000 NA
ATOM     14  N   UNL     1      -1.989  12.154  17.412  0.00  0.00    +0.000 NA
ATOM     15  N   UNL     1      -0.888  12.016  18.183  0.00  0.00    +0.000 N 
BRANCH  15  16
ATOM     16  C   UNL     1      -0.082  13.135  18.450  0.00  0.00    +0.000 A 
ATOM     17  C   UNL     1       1.325  13.127  18.456  0.00  0.00    +0.000 A 
ATOM     18  C   UNL     1       2.008  14.355  18.562  0.00  0.00    +0.000 A 
ATOM     19  C   UNL     1       1.275  15.542  18.675  0.00  0.00    +0.000 A 
ATOM     20  C   UNL     1      -0.079  15.468  18.885  0.00  0.00    +0.000 A 
ATOM     21  C   UNL     1      -0.745  14.285  18.793  0.00  0.00    +0.000 A 
ATOM     22  O   UNL     1      -0.876  16.560  19.059  0.00  0.00    +0.000 OA
ATOM     23  C   UNL     1      -0.509  17.448  18.027  0.00  0.00    +0.000 C 
ATOM     24  C   UNL     1       0.962  17.845  18.222  0.00  0.00    +0.000 C 
ATOM     25  O   UNL     1       1.889  16.753  18.445  0.00  0.00    +0.000 OA
ENDBRANCH  15  16
ENDBRANCH  10  11
BRANCH   1  26
ATOM     26  C   UNL     1       0.698  11.301  21.545  0.00  0.00    +0.000 C 
BRANCH  26  30
ATOM     27  C   UNL     1      -2.459  14.070  22.639  0.00  0.00    +0.000 A 
ATOM     28  C   UNL     1      -1.119  14.496  22.553  0.00  0.00    +0.000 A 
ATOM     29  C   UNL     1      -0.076  13.626  22.220  0.00  0.00    +0.000 A 
ATOM     30  C   UNL     1      -0.356  12.297  21.940  0.00  0.00    +0.000 A 
ATOM     31  C   UNL     1      -1.709  11.904  21.894  0.00  0.00    +0.000 A 
ATOM     32  C   UNL     1      -2.760  12.742  22.320  0.00  0.00    +0.000 A 
BRANCH  27  34
ATOM     33  C   UNL     1      -3.194  15.610  24.364  0.00  0.00    +0.000 C 
ATOM     34  O   UNL     1      -3.266  15.094  23.048  0.00  0.00    +0.000 OA
ENDBRANCH  27  34
BRANCH  32  35
ATOM     35  O   UNL     1      -4.046  12.288  22.448  0.00  0.00    +0.000 OA
ATOM     36  C   UNL     1      -4.957  12.601  21.387  0.00  0.00    +0.000 C 
ENDBRANCH  32  35
ENDBRANCH  26  30
ENDBRANCH   1  26
TORSDOF 6
ENDMDL
MODEL 8
REMARK VINA RESULT:      -7.1      3.319      6.166
REMARK  Name = 
REMARK  8 active torsions:
REMARK  status: ('A' for Active; 'I' for Inactive)
REMARK    1  A    between atoms: C_1  and  O_2
REMARK    2  A    between atoms: O_2  and  C_3
REMARK    3  A    between atoms: C_6  and  C_7
REMARK    4  A    between atoms: C_7  and  N_8
REMARK    5  A    between atoms: C_17  and  C_18
REMARK    6  A    between atoms: N_22  and  C_23
REMARK    7  A    between atoms: C_34  and  O_35
REMARK    8  A    between atoms: O_35  and  C_36
REMARK                            x       y       z     vdW  Elec       q    Type
REMARK                         _______ _______ _______ _____ _____    ______ ____
ROOT
ATOM      1  N   UNL     1       0.384   9.817  20.687  0.00  0.00    +0.000 N 
ATOM      2  C   UNL     1       1.067   8.646  21.107  0.00  0.00    +0.000 C 
ATOM      3  O   UNL     1       1.273   8.271  22.249  0.00  0.00    +0.000 OA
ATOM      4  C   UNL     1       1.719   8.029  19.940  0.00  0.00    +0.000 A 
ATOM      5  C   UNL     1       2.495   6.879  19.932  0.00  0.00    +0.000 A 
ATOM      6  C   UNL     1       3.172   6.573  18.762  0.00  0.00    +0.000 A 
ATOM      7  C   UNL     1       3.092   7.449  17.663  0.00  0.00    +0.000 A 
ATOM      8  C   UNL     1       2.250   8.581  17.677  0.00  0.00    +0.000 A 
ATOM      9  C   UNL     1       1.508   8.851  18.819  0.00  0.00    +0.000 A 
ATOM     10  C   UNL     1       0.355   9.770  19.208  0.00  0.00    +0.000 C 
ENDROOT
BRANCH  10  11
ATOM     11  C   UNL     1      -0.588  10.561  18.309  0.00  0.00    +0.000 A 
ATOM     12  N   UNL     1      -1.422   9.966  17.458  0.00  0.00    +0.000 NA
ATOM     13  N   UNL     1      -2.248  10.920  16.947  0.00  0.00    +0.000 NA
ATOM     14  N   UNL     1      -1.968  12.103  17.459  0.00  0.00    +0.000 NA
ATOM     15  N   UNL     1      -0.837  11.934  18.178  0.00  0.00    +0.000 N 
BRANCH  15  16
ATOM     16  C   UNL     1      -0.019  13.041  18.459  0.00  0.00    +0.000 A 
ATOM     17  C   UNL     1       1.387  13.017  18.474  0.00  0.00    +0.000 A 
ATOM     18  C   UNL     1       2.083  14.237  18.595  0.00  0.00    +0.000 A 
ATOM     19  C   UNL     1       1.362  15.431  18.713  0.00  0.00    +0.000 A 
ATOM     20  C   UNL     1       0.006  15.371  18.913  0.00  0.00    +0.000 A 
ATOM     21  C   UNL     1      -0.672  14.196  18.807  0.00  0.00    +0.000 A 
ATOM     22  O   UNL     1      -0.779  16.470  19.091  0.00  0.00    +0.000 OA
ATOM     23  C   UNL     1      -0.395  17.363  18.068  0.00  0.00    +0.000 C 
ATOM     24  C   UNL     1       1.079  17.741  18.277  0.00  0.00    +0.000 C 
ATOM     25  O   UNL     1       1.992  16.637  18.497  0.00  0.00    +0.000 OA
ENDBRANCH  15  16
ENDBRANCH  10  11
BRANCH   1  26
ATOM     26  C   UNL     1       0.695  10.963  21.537  0.00  0.00    +0.000 C 
BRANCH  26  30
ATOM     27  C   UNL     1      -2.460  13.426  23.212  0.00  0.00    +0.000 A 
ATOM     28  C   UNL     1      -2.474  12.026  23.367  0.00  0.00    +0.000 A 
ATOM     29  C   UNL     1      -1.482  11.202  22.825  0.00  0.00    +0.000 A 
ATOM     30  C   UNL     1      -0.428  11.769  22.126  0.00  0.00    +0.000 A 
ATOM     31  C   UNL     1      -0.343  13.175  22.088  0.00  0.00    +0.000 A 
ATOM     32  C   UNL     1      -1.382  14.013  22.543  0.00  0.00    +0.000 A 
BRANCH  27  34
ATOM     33  C   UNL     1      -4.709  14.311  22.993  0.00  0.00    +0.000 C 
ATOM     34  O   UNL     1      -3.574  13.985  23.773  0.00  0.00    +0.000 OA
ENDBRANCH  27  34
BRANCH  32  35
ATOM     35  O   UNL     1      -1.370  15.366  22.331  0.00  0.00    +0.000 OA
ATOM     36  C   UNL     1      -0.599  16.163  23.239  0.00  0.00    +0.000 C 
ENDBRANCH  32  35
ENDBRANCH  26  30
ENDBRANCH   1  26
TORSDOF 6
ENDMDL
MODEL 9
REMARK VINA RESULT:      -7.1      2.818      6.690
REMARK  Name = 
REMARK  8 active torsions:
REMARK  status: ('A' for Active; 'I' for Inactive)
REMARK    1  A    between atoms: C_1  and  O_2
REMARK    2  A    between atoms: O_2  and  C_3
REMARK    3  A    between atoms: C_6  and  C_7
REMARK    4  A    between atoms: C_7  and  N_8
REMARK    5  A    between atoms: C_17  and  C_18
REMARK    6  A    between atoms: N_22  and  C_23
REMARK    7  A    between atoms: C_34  and  O_35
REMARK    8  A    between atoms: O_35  and  C_36
REMARK                            x       y       z     vdW  Elec       q    Type
REMARK                         _______ _______ _______ _____ _____    ______ ____
ROOT
ATOM      1  N   UNL     1      -1.424  12.736  20.911  0.00  0.00    +0.000 N 
ATOM      2  C   UNL     1      -1.137  14.001  20.336  0.00  0.00    +0.000 C 
ATOM      3  O   UNL     1      -1.892  14.950  20.208  0.00  0.00    +0.000 OA
ATOM      4  C   UNL     1       0.182  13.942  19.685  0.00  0.00    +0.000 A 
ATOM      5  C   UNL     1       0.817  14.967  18.999  0.00  0.00    +0.000 A 
ATOM      6  C   UNL     1       1.969  14.649  18.298  0.00  0.00    +0.000 A 
ATOM      7  C   UNL     1       2.417  13.315  18.266  0.00  0.00    +0.000 A 
ATOM      8  C   UNL     1       1.786  12.302  19.021  0.00  0.00    +0.000 A 
ATOM      9  C   UNL     1       0.677  12.630  19.787  0.00  0.00    +0.000 A 
ATOM     10  C   UNL     1      -0.155  11.973  20.883  0.00  0.00    +0.000 C 
ENDROOT
BRANCH  10  11
ATOM     11  C   UNL     1       0.165  10.743  21.726  0.00  0.00    +0.000 A 
ATOM     12  N   UNL     1       0.159  10.776  23.057  0.00  0.00    +0.000 NA
ATOM     13  N   UNL     1       0.297   9.499  23.506  0.00  0.00    +0.000 NA
ATOM     14  N   UNL     1       0.380   8.654  22.496  0.00  0.00    +0.000 NA
ATOM     15  N   UNL     1       0.469   9.419  21.385  0.00  0.00    +0.000 N 
BRANCH  15  16
ATOM     16  C   UNL     1       1.029   8.882  20.214  0.00  0.00    +0.000 A 
ATOM     17  C   UNL     1       1.009   9.508  18.955  0.00  0.00    +0.000 A 
ATOM     18  C   UNL     1       1.763   8.944  17.906  0.00  0.00    +0.000 A 
ATOM     19  C   UNL     1       2.493   7.773  18.138  0.00  0.00    +0.000 A 
ATOM     20  C   UNL     1       2.299   7.091  19.313  0.00  0.00    +0.000 A 
ATOM     21  C   UNL     1       1.565   7.625  20.327  0.00  0.00    +0.000 A 
ATOM     22  O   UNL     1       2.921   5.916  19.614  0.00  0.00    +0.000 OA
ATOM     23  C   UNL     1       4.279   6.130  19.300  0.00  0.00    +0.000 C 
ATOM     24  C   UNL     1       4.394   6.405  17.793  0.00  0.00    +0.000 C 
ATOM     25  O   UNL     1       3.481   7.394  17.256  0.00  0.00    +0.000 OA
ENDBRANCH  15  16
ENDBRANCH  10  11
BRANCH   1  26
ATOM     26  C   UNL     1      -2.757  12.263  20.551  0.00  0.00    +0.000 C 
BRANCH  26  30
ATOM     27  C   UNL     1      -3.750  11.218  16.458  0.00  0.00    +0.000 A 
ATOM     28  C   UNL     1      -2.479  10.930  16.992  0.00  0.00    +0.000 A 
ATOM     29  C   UNL     1      -2.121  11.268  18.300  0.00  0.00    +0.000 A 
ATOM     30  C   UNL     1      -3.047  11.891  19.124  0.00  0.00    +0.000 A 
ATOM     31  C   UNL     1      -4.358  12.057  18.635  0.00  0.00    +0.000 A 
ATOM     32  C   UNL     1      -4.705  11.811  17.290  0.00  0.00    +0.000 A 
BRANCH  27  34
ATOM     33  C   UNL     1      -2.841  10.006  14.563  0.00  0.00    +0.000 C 
ATOM     34  O   UNL     1      -3.818  10.849  15.144  0.00  0.00    +0.000 OA
ENDBRANCH  27  34
BRANCH  32  35
ATOM     35  O   UNL     1      -5.931  12.151  16.782  0.00  0.00    +0.000 OA
ATOM     36  C   UNL     1      -7.007  12.299  17.717  0.00  0.00    +0.000 C 
ENDBRANCH  32  35
ENDBRANCH  26  30
ENDBRANCH   1  26
TORSDOF 6
ENDMDL
