MODEL 1
REMARK VINA RESULT:      -7.9      0.000      0.000
REMARK  Name = 
REMARK  2 active torsions:
REMARK  status: ('A' for Active; 'I' for Inactive)
REMARK    1  A    between atoms: C_1  and  C_2
REMARK    2  A    between atoms: C_8  and  C_9
REMARK                            x       y       z     vdW  Elec       q    Type
REMARK                         _______ _______ _______ _____ _____    ______ ____
ROOT
ATOM      1  C   UNL     1       4.736   4.281  18.297  0.00  0.00    +0.000 A 
ATOM      2  C   UNL     1       6.044   4.629  18.671  0.00  0.00    +0.000 A 
ATOM      3  C   UNL     1       7.026   4.825  17.698  0.00  0.00    +0.000 A 
ATOM      4  C   UNL     1       6.708   4.654  16.353  0.00  0.00    +0.000 A 
ATOM      5  C   UNL     1       5.407   4.288  15.960  0.00  0.00    +0.000 A 
ATOM      6  C   UNL     1       4.422   4.135  16.942  0.00  0.00    +0.000 A 
ATOM      7  N   UNL     1       5.080   3.978  14.626  0.00  0.00    +0.000 N 
ATOM      8  C   UNL     1       6.243   3.941  13.742  0.00  0.00    +0.000 C 
ATOM      9  C   UNL     1       7.258   5.015  14.117  0.00  0.00    +0.000 C 
ATOM     10  O   UNL     1       7.737   4.847  15.459  0.00  0.00    +0.000 OA
ATOM     11  H   UNL     1       4.290   4.521  14.286  0.00  0.00    +0.000 HD
ENDROOT
BRANCH   1  19
ATOM     12  C   UNL     1       2.661   6.182  19.711  0.00  0.00    +0.000 C 
ATOM     13  C   UNL     1       2.415   4.695  19.430  0.00  0.00    +0.000 C 
ATOM     14  C   UNL     1       1.423   4.128  20.438  0.00  0.00    +0.000 C 
ATOM     15  C   UNL     1       1.902   2.994  21.290  0.00  0.00    +0.000 C 
ATOM     16  O   UNL     1       1.167   2.454  22.117  0.00  0.00    +0.000 OA
ATOM     17  N   UNL     1       3.191   2.581  21.131  0.00  0.00    +0.000 N 
ATOM     18  N   UNL     1       4.066   2.993  20.198  0.00  0.00    +0.000 NA
ATOM     19  C   UNL     1       3.740   3.940  19.371  0.00  0.00    +0.000 C 
ATOM     20  H   UNL     1       3.485   1.794  21.702  0.00  0.00    +0.000 HD
ENDBRANCH   1  19
TORSDOF 1
ENDMDL
MODEL 2
REMARK VINA RESULT:      -7.2      1.309      1.636
REMARK  Name = 
REMARK  2 active torsions:
REMARK  status: ('A' for Active; 'I' for Inactive)
REMARK    1  A    between atoms: C_1  and  C_2
REMARK    2  A    between atoms: C_8  and  C_9
REMARK                            x       y       z     vdW  Elec       q    Type
REMARK                         _______ _______ _______ _____ _____    ______ ____
ROOT
ATOM      1  C   UNL     1       5.378   4.434  16.911  0.00  0.00    +0.000 A 
ATOM      2  C   UNL     1       6.492   5.264  17.112  0.00  0.00    +0.000 A 
ATOM      3  C   UNL     1       7.346   5.568  16.050  0.00  0.00    +0.000 A 
ATOM      4  C   UNL     1       7.100   5.026  14.792  0.00  0.00    +0.000 A 
ATOM      5  C   UNL     1       5.999   4.178  14.574  0.00  0.00    +0.000 A 
ATOM      6  C   UNL     1       5.127   3.914  15.636  0.00  0.00    +0.000 A 
ATOM      7  N   UNL     1       5.791   3.507  13.353  0.00  0.00    +0.000 N 
ATOM      8  C   UNL     1       6.894   3.673  12.410  0.00  0.00    +0.000 C 
ATOM      9  C   UNL     1       7.487   5.076  12.493  0.00  0.00    +0.000 C 
ATOM     10  O   UNL     1       7.999   5.357  13.803  0.00  0.00    +0.000 OA
ATOM     11  H   UNL     1       4.863   3.675  12.974  0.00  0.00    +0.000 HD
ENDROOT
BRANCH   1  19
ATOM     12  C   UNL     1       2.697   5.693  17.980  0.00  0.00    +0.000 C 
ATOM     13  C   UNL     1       3.046   4.203  18.073  0.00  0.00    +0.000 C 
ATOM     14  C   UNL     1       2.321   3.566  19.252  0.00  0.00    +0.000 C 
ATOM     15  C   UNL     1       3.174   2.940  20.310  0.00  0.00    +0.000 C 
ATOM     16  O   UNL     1       2.681   2.381  21.290  0.00  0.00    +0.000 OA
ATOM     17  N   UNL     1       4.527   3.019  20.164  0.00  0.00    +0.000 N 
ATOM     18  N   UNL     1       5.202   3.491  19.103  0.00  0.00    +0.000 NA
ATOM     19  C   UNL     1       4.560   4.014  18.101  0.00  0.00    +0.000 C 
ATOM     20  H   UNL     1       5.085   2.566  20.882  0.00  0.00    +0.000 HD
ENDBRANCH   1  19
TORSDOF 1
ENDMDL
MODEL 3
REMARK VINA RESULT:      -7.1      1.236      1.730
REMARK  Name = 
REMARK  2 active torsions:
REMARK  status: ('A' for Active; 'I' for Inactive)
REMARK    1  A    between atoms: C_1  and  C_2
REMARK    2  A    between atoms: C_8  and  C_9
REMARK                            x       y       z     vdW  Elec       q    Type
REMARK                         _______ _______ _______ _____ _____    ______ ____
ROOT
ATOM      1  C   UNL     1       5.028   4.276  17.894  0.00  0.00    +0.000 A 
ATOM      2  C   UNL     1       6.305   4.769  18.203  0.00  0.00    +0.000 A 
ATOM      3  C   UNL     1       7.221   5.039  17.184  0.00  0.00    +0.000 A 
ATOM      4  C   UNL     1       6.869   4.797  15.859  0.00  0.00    +0.000 A 
ATOM      5  C   UNL     1       5.600   4.286  15.531  0.00  0.00    +0.000 A 
ATOM      6  C   UNL     1       4.676   4.059  16.557  0.00  0.00    +0.000 A 
ATOM      7  N   UNL     1       5.253   3.906  14.220  0.00  0.00    +0.000 N 
ATOM      8  C   UNL     1       6.377   3.964  13.288  0.00  0.00    +0.000 C 
ATOM      9  C   UNL     1       7.287   5.149  13.592  0.00  0.00    +0.000 C 
ATOM     10  O   UNL     1       7.835   5.070  14.916  0.00  0.00    +0.000 OA
ATOM     11  H   UNL     1       4.397   4.353  13.902  0.00  0.00    +0.000 HD
ENDROOT
BRANCH   1  19
ATOM     12  C   UNL     1       3.694   1.467  18.398  0.00  0.00    +0.000 C 
ATOM     13  C   UNL     1       4.144   2.420  19.512  0.00  0.00    +0.000 C 
ATOM     14  C   UNL     1       3.319   2.181  20.772  0.00  0.00    +0.000 C 
ATOM     15  C   UNL     1       2.530   3.342  21.290  0.00  0.00    +0.000 C 
ATOM     16  O   UNL     1       1.852   3.254  22.314  0.00  0.00    +0.000 OA
ATOM     17  N   UNL     1       2.573   4.506  20.584  0.00  0.00    +0.000 N 
ATOM     18  N   UNL     1       3.352   4.784  19.524  0.00  0.00    +0.000 NA
ATOM     19  C   UNL     1       4.117   3.864  19.018  0.00  0.00    +0.000 C 
ATOM     20  H   UNL     1       2.050   5.287  20.969  0.00  0.00    +0.000 HD
ENDBRANCH   1  19
TORSDOF 1
ENDMDL
MODEL 4
REMARK VINA RESULT:      -6.9      3.525      6.793
REMARK  Name = 
REMARK  2 active torsions:
REMARK  status: ('A' for Active; 'I' for Inactive)
REMARK    1  A    between atoms: C_1  and  C_2
REMARK    2  A    between atoms: C_8  and  C_9
REMARK                            x       y       z     vdW  Elec       q    Type
REMARK                         _______ _______ _______ _____ _____    ______ ____
ROOT
ATOM      1  C   UNL     1       3.357   6.982  18.088  0.00  0.00    +0.000 A 
ATOM      2  C   UNL     1       2.981   6.541  19.367  0.00  0.00    +0.000 A 
ATOM      3  C   UNL     1       2.047   7.261  20.114  0.00  0.00    +0.000 A 
ATOM      4  C   UNL     1       1.504   8.433  19.594  0.00  0.00    +0.000 A 
ATOM      5  C   UNL     1       1.882   8.901  18.322  0.00  0.00    +0.000 A 
ATOM      6  C   UNL     1       2.787   8.148  17.566  0.00  0.00    +0.000 A 
ATOM      7  N   UNL     1       1.457  10.145  17.817  0.00  0.00    +0.000 N 
ATOM      8  C   UNL     1       0.716  10.940  18.794  0.00  0.00    +0.000 C 
ATOM      9  C   UNL     1      -0.167  10.057  19.669  0.00  0.00    +0.000 C 
ATOM     10  O   UNL     1       0.605   9.094  20.401  0.00  0.00    +0.000 OA
ATOM     11  H   UNL     1       1.023  10.062  16.901  0.00  0.00    +0.000 HD
ENDROOT
BRANCH   1  19
ATOM     12  C   UNL     1       3.943   3.889  17.994  0.00  0.00    +0.000 C 
ATOM     13  C   UNL     1       4.223   4.855  16.837  0.00  0.00    +0.000 C 
ATOM     14  C   UNL     1       5.354   4.318  15.967  0.00  0.00    +0.000 C 
ATOM     15  C   UNL     1       6.570   5.181  15.835  0.00  0.00    +0.000 C 
ATOM     16  O   UNL     1       7.526   4.844  15.136  0.00  0.00    +0.000 OA
ATOM     17  N   UNL     1       6.594   6.356  16.526  0.00  0.00    +0.000 N 
ATOM     18  N   UNL     1       5.588   6.904  17.228  0.00  0.00    +0.000 NA
ATOM     19  C   UNL     1       4.466   6.265  17.369  0.00  0.00    +0.000 C 
ATOM     20  H   UNL     1       7.418   6.935  16.400  0.00  0.00    +0.000 HD
ENDBRANCH   1  19
TORSDOF 1
ENDMDL
MODEL 5
REMARK VINA RESULT:      -6.9      3.752      6.375
REMARK  Name = 
REMARK  2 active torsions:
REMARK  status: ('A' for Active; 'I' for Inactive)
REMARK    1  A    between atoms: C_1  and  C_2
REMARK    2  A    between atoms: C_8  and  C_9
REMARK                            x       y       z     vdW  Elec       q    Type
REMARK                         _______ _______ _______ _____ _____    ______ ____
ROOT
ATOM      1  C   UNL     1       2.525   6.683  18.935  0.00  0.00    +0.000 A 
ATOM      2  C   UNL     1       2.483   7.583  17.859  0.00  0.00    +0.000 A 
ATOM      3  C   UNL     1       1.954   8.863  18.031  0.00  0.00    +0.000 A 
ATOM      4  C   UNL     1       1.447   9.238  19.273  0.00  0.00    +0.000 A 
ATOM      5  C   UNL     1       1.465   8.344  20.359  0.00  0.00    +0.000 A 
ATOM      6  C   UNL     1       2.036   7.078  20.184  0.00  0.00    +0.000 A 
ATOM      7  N   UNL     1       0.846   8.636  21.590  0.00  0.00    +0.000 N 
ATOM      8  C   UNL     1       0.080   9.880  21.567  0.00  0.00    +0.000 C 
ATOM      9  C   UNL     1       0.771  10.940  20.716  0.00  0.00    +0.000 C 
ATOM     10  O   UNL     1       0.925  10.509  19.356  0.00  0.00    +0.000 OA
ATOM     11  H   UNL     1       1.481   8.528  22.377  0.00  0.00    +0.000 HD
ENDROOT
BRANCH   1  19
ATOM     12  C   UNL     1       5.440   5.498  19.081  0.00  0.00    +0.000 C 
ATOM     13  C   UNL     1       4.172   4.715  19.444  0.00  0.00    +0.000 C 
ATOM     14  C   UNL     1       4.401   3.222  19.239  0.00  0.00    +0.000 C 
ATOM     15  C   UNL     1       3.501   2.530  18.263  0.00  0.00    +0.000 C 
ATOM     16  O   UNL     1       3.593   1.322  18.047  0.00  0.00    +0.000 OA
ATOM     17  N   UNL     1       2.577   3.286  17.605  0.00  0.00    +0.000 N 
ATOM     18  N   UNL     1       2.285   4.580  17.820  0.00  0.00    +0.000 NA
ATOM     19  C   UNL     1       2.971   5.269  18.682  0.00  0.00    +0.000 C 
ATOM     20  H   UNL     1       1.962   2.790  16.967  0.00  0.00    +0.000 HD
ENDBRANCH   1  19
TORSDOF 1
ENDMDL
MODEL 6
REMARK VINA RESULT:      -6.9      3.739      6.081
REMARK  Name = 
REMARK  2 active torsions:
REMARK  status: ('A' for Active; 'I' for Inactive)
REMARK    1  A    between atoms: C_1  and  C_2
REMARK    2  A    between atoms: C_8  and  C_9
REMARK                            x       y       z     vdW  Elec       q    Type
REMARK                         _______ _______ _______ _____ _____    ______ ____
ROOT
ATOM      1  C   UNL     1       2.463   6.195  19.155  0.00  0.00    +0.000 A 
ATOM      2  C   UNL     1       2.511   6.976  17.990  0.00  0.00    +0.000 A 
ATOM      3  C   UNL     1       2.097   8.309  18.019  0.00  0.00    +0.000 A 
ATOM      4  C   UNL     1       1.616   8.856  19.205  0.00  0.00    +0.000 A 
ATOM      5  C   UNL     1       1.544   8.084  20.379  0.00  0.00    +0.000 A 
ATOM      6  C   UNL     1       2.001   6.762  20.348  0.00  0.00    +0.000 A 
ATOM      7  N   UNL     1       0.944   8.559  21.561  0.00  0.00    +0.000 N 
ATOM      8  C   UNL     1       0.292   9.856  21.395  0.00  0.00    +0.000 C 
ATOM      9  C   UNL     1       1.083  10.755  20.449  0.00  0.00    +0.000 C 
ATOM     10  O   UNL     1       1.209  10.170  19.145  0.00  0.00    +0.000 OA
ATOM     11  H   UNL     1       1.560   8.479  22.366  0.00  0.00    +0.000 HD
ENDROOT
BRANCH   1  19
ATOM     12  C   UNL     1       0.790   3.756  20.239  0.00  0.00    +0.000 C 
ATOM     13  C   UNL     1       1.643   3.718  18.965  0.00  0.00    +0.000 C 
ATOM     14  C   UNL     1       2.100   2.292  18.682  0.00  0.00    +0.000 C 
ATOM     15  C   UNL     1       3.577   2.055  18.635  0.00  0.00    +0.000 C 
ATOM     16  O   UNL     1       4.044   0.943  18.391  0.00  0.00    +0.000 OA
ATOM     17  N   UNL     1       4.398   3.114  18.885  0.00  0.00    +0.000 N 
ATOM     18  N   UNL     1       4.040   4.398  19.051  0.00  0.00    +0.000 NA
ATOM     19  C   UNL     1       2.783   4.728  19.060  0.00  0.00    +0.000 C 
ATOM     20  H   UNL     1       5.396   2.934  18.823  0.00  0.00    +0.000 HD
ENDBRANCH   1  19
TORSDOF 1
ENDMDL
MODEL 7
REMARK VINA RESULT:      -6.7      3.949      6.721
REMARK  Name = 
REMARK  2 active torsions:
REMARK  status: ('A' for Active; 'I' for Inactive)
REMARK    1  A    between atoms: C_1  and  C_2
REMARK    2  A    between atoms: C_8  and  C_9
REMARK                            x       y       z     vdW  Elec       q    Type
REMARK                         _______ _______ _______ _____ _____    ______ ____
ROOT
ATOM      1  C   UNL     1       2.422   7.146  18.727  0.00  0.00    +0.000 A 
ATOM      2  C   UNL     1       2.124   7.059  20.096  0.00  0.00    +0.000 A 
ATOM      3  C   UNL     1       1.463   8.106  20.741  0.00  0.00    +0.000 A 
ATOM      4  C   UNL     1       1.120   9.250  20.025  0.00  0.00    +0.000 A 
ATOM      5  C   UNL     1       1.426   9.363  18.657  0.00  0.00    +0.000 A 
ATOM      6  C   UNL     1       2.051   8.290  18.012  0.00  0.00    +0.000 A 
ATOM      7  N   UNL     1       1.214  10.551  17.930  0.00  0.00    +0.000 N 
ATOM      8  C   UNL     1       0.786  11.669  18.767  0.00  0.00    +0.000 C 
ATOM      9  C   UNL     1      -0.148  11.201  19.879  0.00  0.00    +0.000 C 
ATOM     10  O   UNL     1       0.489  10.244  20.738  0.00  0.00    +0.000 OA
ATOM     11  H   UNL     1       0.662  10.396  17.090  0.00  0.00    +0.000 HD
ENDROOT
BRANCH   1  19
ATOM     12  C   UNL     1       2.117   4.025  19.013  0.00  0.00    +0.000 C 
ATOM     13  C   UNL     1       2.607   4.730  17.743  0.00  0.00    +0.000 C 
ATOM     14  C   UNL     1       3.507   3.797  16.940  0.00  0.00    +0.000 C 
ATOM     15  C   UNL     1       4.908   4.261  16.692  0.00  0.00    +0.000 C 
ATOM     16  O   UNL     1       5.703   3.588  16.035  0.00  0.00    +0.000 OA
ATOM     17  N   UNL     1       5.287   5.453  17.232  0.00  0.00    +0.000 N 
ATOM     18  N   UNL     1       4.505   6.342  17.868  0.00  0.00    +0.000 NA
ATOM     19  C   UNL     1       3.256   6.066  18.095  0.00  0.00    +0.000 C 
ATOM     20  H   UNL     1       6.235   5.758  17.030  0.00  0.00    +0.000 HD
ENDBRANCH   1  19
TORSDOF 1
ENDMDL
MODEL 8
REMARK VINA RESULT:      -6.6      1.420      6.494
REMARK  Name = 
REMARK  2 active torsions:
REMARK  status: ('A' for Active; 'I' for Inactive)
REMARK    1  A    between atoms: C_1  and  C_2
REMARK    2  A    between atoms: C_8  and  C_9
REMARK                            x       y       z     vdW  Elec       q    Type
REMARK                         _______ _______ _______ _____ _____    ______ ____
ROOT
ATOM      1  C   UNL     1       4.462   4.909  18.034  0.00  0.00    +0.000 A 
ATOM      2  C   UNL     1       3.916   6.039  18.664  0.00  0.00    +0.000 A 
ATOM      3  C   UNL     1       2.922   5.894  19.633  0.00  0.00    +0.000 A 
ATOM      4  C   UNL     1       2.457   4.622  19.959  0.00  0.00    +0.000 A 
ATOM      5  C   UNL     1       2.979   3.480  19.327  0.00  0.00    +0.000 A 
ATOM      6  C   UNL     1       4.004   3.634  18.387  0.00  0.00    +0.000 A 
ATOM      7  N   UNL     1       2.446   2.192  19.533  0.00  0.00    +0.000 N 
ATOM      8  C   UNL     1       1.232   2.195  20.344  0.00  0.00    +0.000 C 
ATOM      9  C   UNL     1       1.305   3.246  21.447  0.00  0.00    +0.000 C 
ATOM     10  O   UNL     1       1.463   4.567  20.910  0.00  0.00    +0.000 OA
ATOM     11  H   UNL     1       3.157   1.520  19.812  0.00  0.00    +0.000 HD
ENDROOT
BRANCH   1  19
ATOM     12  C   UNL     1       7.595   5.194  18.162  0.00  0.00    +0.000 C 
ATOM     13  C   UNL     1       6.837   4.531  17.006  0.00  0.00    +0.000 C 
ATOM     14  C   UNL     1       7.648   4.632  15.719  0.00  0.00    +0.000 C 
ATOM     15  C   UNL     1       7.008   5.355  14.575  0.00  0.00    +0.000 C 
ATOM     16  O   UNL     1       7.573   5.469  13.488  0.00  0.00    +0.000 OA
ATOM     17  N   UNL     1       5.774   5.898  14.777  0.00  0.00    +0.000 N 
ATOM     18  N   UNL     1       4.993   5.757  15.861  0.00  0.00    +0.000 NA
ATOM     19  C   UNL     1       5.427   5.105  16.898  0.00  0.00    +0.000 C 
ATOM     20  H   UNL     1       5.350   6.361  13.979  0.00  0.00    +0.000 HD
ENDBRANCH   1  19
TORSDOF 1
ENDMDL
MODEL 9
REMARK VINA RESULT:      -6.6      1.538      1.843
REMARK  Name = 
REMARK  2 active torsions:
REMARK  status: ('A' for Active; 'I' for Inactive)
REMARK    1  A    between atoms: C_1  and  C_2
REMARK    2  A    between atoms: C_8  and  C_9
REMARK                            x       y       z     vdW  Elec       q    Type
REMARK                         _______ _______ _______ _____ _____    ______ ____
ROOT
ATOM      1  C   UNL     1       3.576   4.552  18.125  0.00  0.00    +0.000 A 
ATOM      2  C   UNL     1       3.717   5.943  18.007  0.00  0.00    +0.000 A 
ATOM      3  C   UNL     1       4.568   6.485  17.042  0.00  0.00    +0.000 A 
ATOM      4  C   UNL     1       5.295   5.638  16.209  0.00  0.00    +0.000 A 
ATOM      5  C   UNL     1       5.179   4.241  16.324  0.00  0.00    +0.000 A 
ATOM      6  C   UNL     1       4.292   3.710  17.267  0.00  0.00    +0.000 A 
ATOM      7  N   UNL     1       5.992   3.352  15.593  0.00  0.00    +0.000 N 
ATOM      8  C   UNL     1       7.038   4.026  14.828  0.00  0.00    +0.000 C 
ATOM      9  C   UNL     1       6.541   5.351  14.260  0.00  0.00    +0.000 C 
ATOM     10  O   UNL     1       6.126   6.250  15.299  0.00  0.00    +0.000 OA
ATOM     11  H   UNL     1       5.446   2.666  15.078  0.00  0.00    +0.000 HD
ENDROOT
BRANCH   1  19
ATOM     12  C   UNL     1       0.665   3.352  18.041  0.00  0.00    +0.000 C 
ATOM     13  C   UNL     1       1.767   2.873  18.993  0.00  0.00    +0.000 C 
ATOM     14  C   UNL     1       1.150   2.276  20.253  0.00  0.00    +0.000 C 
ATOM     15  C   UNL     1       1.515   2.923  21.552  0.00  0.00    +0.000 C 
ATOM     16  O   UNL     1       1.086   2.499  22.626  0.00  0.00    +0.000 OA
ATOM     17  N   UNL     1       2.333   4.012  21.512  0.00  0.00    +0.000 N 
ATOM     18  N   UNL     1       2.965   4.513  20.438  0.00  0.00    +0.000 NA
ATOM     19  C   UNL     1       2.762   3.998  19.262  0.00  0.00    +0.000 C 
ATOM     20  H   UNL     1       2.586   4.418  22.408  0.00  0.00    +0.000 HD
ENDBRANCH   1  19
TORSDOF 1
ENDMDL
