MODEL 1
REMARK VINA RESULT:      -7.7      0.000      0.000
REMARK  Name = 
REMARK  6 active torsions:
REMARK  status: ('A' for Active; 'I' for Inactive)
REMARK    1  A    between atoms: C_1  and  C_2
REMARK    2  A    between atoms: C_7  and  N_8
REMARK    3  A    between atoms: C_12  and  C_14
REMARK    4  A    between atoms: C_17  and  O_18
REMARK    5  A    between atoms: O_18  and  C_19
REMARK    6  A    between atoms: C_22  and  C_23
REMARK                            x       y       z     vdW  Elec       q    Type
REMARK                         _______ _______ _______ _____ _____    ______ ____
ROOT
ATOM      1  C   UNL     1       3.985  15.993  18.637  0.00  0.00    +0.000 A 
ATOM      2  C   UNL     1       4.651  17.007  19.343  0.00  0.00    +0.000 A 
ATOM      3  C   UNL     1       6.039  17.120  19.274  0.00  0.00    +0.000 A 
ATOM      4  C   UNL     1       6.776  16.168  18.573  0.00  0.00    +0.000 A 
ATOM      5  C   UNL     1       6.116  15.127  17.903  0.00  0.00    +0.000 A 
ATOM      6  C   UNL     1       4.724  15.030  17.948  0.00  0.00    +0.000 A 
ENDROOT
BRANCH   1  11
ATOM      7  N   UNL     1       0.775  12.658  20.549  0.00  0.00    +0.000 N 
ATOM      8  C   UNL     1       0.071  13.265  19.400  0.00  0.00    +0.000 C 
ATOM      9  C   UNL     1       0.409  14.785  19.337  0.00  0.00    +0.000 C 
ATOM     10  N   UNL     1       1.859  15.037  19.463  0.00  0.00    +0.000 N 
ATOM     11  C   UNL     1       2.500  15.917  18.603  0.00  0.00    +0.000 C 
ATOM     12  O   UNL     1       1.900  16.638  17.809  0.00  0.00    +0.000 OA
ATOM     13  C   UNL     1       2.474  14.357  20.614  0.00  0.00    +0.000 C 
ATOM     14  C   UNL     1       2.233  12.851  20.478  0.00  0.00    +0.000 C 
BRANCH   7  21
ATOM     15  C   UNL     1      -1.105  13.015  22.788  0.00  0.00    +0.000 C 
ATOM     16  C   UNL     1      -0.548  11.682  22.353  0.00  0.00    +0.000 A 
ATOM     17  C   UNL     1      -0.961  10.548  23.072  0.00  0.00    +0.000 A 
ATOM     18  C   UNL     1      -0.573   9.274  22.673  0.00  0.00    +0.000 A 
ATOM     19  C   UNL     1       0.229   9.123  21.549  0.00  0.00    +0.000 A 
ATOM     20  C   UNL     1       0.672  10.248  20.844  0.00  0.00    +0.000 A 
ATOM     21  C   UNL     1       0.319  11.547  21.236  0.00  0.00    +0.000 A 
ENDBRANCH   7  21
ENDBRANCH   1  11
BRANCH   4  22
ATOM     22  O   UNL     1       8.140  16.357  18.540  0.00  0.00    +0.000 OA
BRANCH  22  23
ATOM     23  C   UNL     1       8.942  15.249  18.765  0.00  0.00    +0.000 A 
ATOM     24  C   UNL     1       9.824  14.895  17.760  0.00  0.00    +0.000 A 
ATOM     25  C   UNL     1      10.564  13.724  17.922  0.00  0.00    +0.000 A 
ATOM     26  C   UNL     1      10.404  12.957  19.086  0.00  0.00    +0.000 A 
ATOM     27  C   UNL     1       9.538  13.435  20.055  0.00  0.00    +0.000 A 
ATOM     28  N   UNL     1       8.817  14.568  19.926  0.00  0.00    +0.000 NA
BRANCH  26  29
ATOM     29  C   UNL     1      11.095  11.649  19.302  0.00  0.00    +0.000 C 
ATOM     30  F   UNL     1      12.010  11.352  18.338  0.00  0.00    +0.000 F 
ATOM     31  F   UNL     1      11.765  11.601  20.484  0.00  0.00    +0.000 F 
ATOM     32  F   UNL     1      10.223  10.604  19.321  0.00  0.00    +0.000 F 
ENDBRANCH  26  29
ENDBRANCH  22  23
ENDBRANCH   4  22
TORSDOF 5
ENDMDL
MODEL 2
REMARK VINA RESULT:      -7.7      7.455      8.935
REMARK  Name = 
REMARK  6 active torsions:
REMARK  status: ('A' for Active; 'I' for Inactive)
REMARK    1  A    between atoms: C_1  and  C_2
REMARK    2  A    between atoms: C_7  and  N_8
REMARK    3  A    between atoms: C_12  and  C_14
REMARK    4  A    between atoms: C_17  and  O_18
REMARK    5  A    between atoms: O_18  and  C_19
REMARK    6  A    between atoms: C_22  and  C_23
REMARK                            x       y       z     vdW  Elec       q    Type
REMARK                         _______ _______ _______ _____ _____    ______ ____
ROOT
ATOM      1  C   UNL     1      -0.633  10.463  19.416  0.00  0.00    +0.000 A 
ATOM      2  C   UNL     1      -0.247   9.779  20.580  0.00  0.00    +0.000 A 
ATOM      3  C   UNL     1       0.868   8.942  20.569  0.00  0.00    +0.000 A 
ATOM      4  C   UNL     1       1.549   8.714  19.376  0.00  0.00    +0.000 A 
ATOM      5  C   UNL     1       1.138   9.360  18.202  0.00  0.00    +0.000 A 
ATOM      6  C   UNL     1       0.039  10.222  18.217  0.00  0.00    +0.000 A 
ENDROOT
BRANCH   1  11
ATOM      7  N   UNL     1      -1.666  14.296  22.469  0.00  0.00    +0.000 N 
ATOM      8  C   UNL     1      -2.969  13.881  21.907  0.00  0.00    +0.000 C 
ATOM      9  C   UNL     1      -2.780  13.486  20.412  0.00  0.00    +0.000 C 
ATOM     10  N   UNL     1      -1.629  12.580  20.219  0.00  0.00    +0.000 N 
ATOM     11  C   UNL     1      -1.749  11.446  19.427  0.00  0.00    +0.000 C 
ATOM     12  O   UNL     1      -2.736  11.212  18.733  0.00  0.00    +0.000 OA
ATOM     13  C   UNL     1      -0.390  13.062  20.848  0.00  0.00    +0.000 C 
ATOM     14  C   UNL     1      -0.644  13.244  22.348  0.00  0.00    +0.000 C 
BRANCH   7  21
ATOM     15  C   UNL     1      -1.059  17.115  21.871  0.00  0.00    +0.000 C 
ATOM     16  C   UNL     1      -1.182  16.551  23.265  0.00  0.00    +0.000 A 
ATOM     17  C   UNL     1      -0.991  17.440  24.336  0.00  0.00    +0.000 A 
ATOM     18  C   UNL     1      -1.186  17.024  25.649  0.00  0.00    +0.000 A 
ATOM     19  C   UNL     1      -1.576  15.715  25.900  0.00  0.00    +0.000 A 
ATOM     20  C   UNL     1      -1.738  14.813  24.843  0.00  0.00    +0.000 A 
ATOM     21  C   UNL     1      -1.525  15.195  23.511  0.00  0.00    +0.000 A 
ENDBRANCH   7  21
ENDBRANCH   1  11
BRANCH   4  22
ATOM     22  O   UNL     1       2.648   7.885  19.452  0.00  0.00    +0.000 OA
BRANCH  22  23
ATOM     23  C   UNL     1       2.430   6.525  19.298  0.00  0.00    +0.000 A 
ATOM     24  C   UNL     1       2.511   6.014  18.015  0.00  0.00    +0.000 A 
ATOM     25  C   UNL     1       2.193   4.671  17.825  0.00  0.00    +0.000 A 
ATOM     26  C   UNL     1       1.819   3.883  18.924  0.00  0.00    +0.000 A 
ATOM     27  C   UNL     1       1.829   4.480  20.174  0.00  0.00    +0.000 A 
ATOM     28  N   UNL     1       2.140   5.775  20.385  0.00  0.00    +0.000 NA
BRANCH  26  29
ATOM     29  C   UNL     1       1.384   2.458  18.797  0.00  0.00    +0.000 C 
ATOM     30  F   UNL     1       0.048   2.315  18.579  0.00  0.00    +0.000 F 
ATOM     31  F   UNL     1       2.004   1.812  17.773  0.00  0.00    +0.000 F 
ATOM     32  F   UNL     1       1.657   1.735  19.918  0.00  0.00    +0.000 F 
ENDBRANCH  26  29
ENDBRANCH  22  23
ENDBRANCH   4  22
TORSDOF 5
ENDMDL
MODEL 3
REMARK VINA RESULT:      -7.7      5.419      8.095
REMARK  Name = 
REMARK  6 active torsions:
REMARK  status: ('A' for Active; 'I' for Inactive)
REMARK    1  A    between atoms: C_1  and  C_2
REMARK    2  A    between atoms: C_7  and  N_8
REMARK    3  A    between atoms: C_12  and  C_14
REMARK    4  A    between atoms: C_17  and  O_18
REMARK    5  A    between atoms: O_18  and  C_19
REMARK    6  A    between atoms: C_22  and  C_23
REMARK                            x       y       z     vdW  Elec       q    Type
REMARK                         _______ _______ _______ _____ _____    ______ ____
ROOT
ATOM      1  C   UNL     1       0.556   9.853  19.040  0.00  0.00    +0.000 A 
ATOM      2  C   UNL     1       0.755   9.212  20.273  0.00  0.00    +0.000 A 
ATOM      3  C   UNL     1       1.636   8.136  20.374  0.00  0.00    +0.000 A 
ATOM      4  C   UNL     1       2.253   7.638  19.228  0.00  0.00    +0.000 A 
ATOM      5  C   UNL     1       2.020   8.248  17.988  0.00  0.00    +0.000 A 
ATOM      6  C   UNL     1       1.161   9.345  17.889  0.00  0.00    +0.000 A 
ENDROOT
BRANCH   1  11
ATOM      7  N   UNL     1       1.356  14.606  20.403  0.00  0.00    +0.000 N 
ATOM      8  C   UNL     1      -0.113  14.439  20.407  0.00  0.00    +0.000 C 
ATOM      9  C   UNL     1      -0.530  13.532  19.210  0.00  0.00    +0.000 C 
ATOM     10  N   UNL     1       0.299  12.312  19.124  0.00  0.00    +0.000 N 
ATOM     11  C   UNL     1      -0.290  11.072  18.926  0.00  0.00    +0.000 C 
ATOM     12  O   UNL     1      -1.482  10.928  18.660  0.00  0.00    +0.000 OA
ATOM     13  C   UNL     1       1.745  12.580  19.168  0.00  0.00    +0.000 C 
ATOM     14  C   UNL     1       2.066  13.318  20.471  0.00  0.00    +0.000 C 
BRANCH   7  21
ATOM     15  C   UNL     1       2.572  16.543  18.547  0.00  0.00    +0.000 C 
ATOM     16  C   UNL     1       2.652  16.643  20.051  0.00  0.00    +0.000 A 
ATOM     17  C   UNL     1       3.357  17.735  20.585  0.00  0.00    +0.000 A 
ATOM     18  C   UNL     1       3.392  17.955  21.958  0.00  0.00    +0.000 A 
ATOM     19  C   UNL     1       2.721  17.085  22.808  0.00  0.00    +0.000 A 
ATOM     20  C   UNL     1       2.043  15.976  22.288  0.00  0.00    +0.000 A 
ATOM     21  C   UNL     1       2.010  15.714  20.912  0.00  0.00    +0.000 A 
ENDBRANCH   7  21
ENDBRANCH   1  11
BRANCH   4  22
ATOM     22  O   UNL     1       3.119   6.583  19.414  0.00  0.00    +0.000 OA
BRANCH  22  23
ATOM     23  C   UNL     1       3.723   6.050  18.286  0.00  0.00    +0.000 A 
ATOM     24  C   UNL     1       3.362   4.764  17.925  0.00  0.00    +0.000 A 
ATOM     25  C   UNL     1       4.034   4.171  16.857  0.00  0.00    +0.000 A 
ATOM     26  C   UNL     1       5.033   4.889  16.182  0.00  0.00    +0.000 A 
ATOM     27  C   UNL     1       5.273   6.191  16.587  0.00  0.00    +0.000 A 
ATOM     28  N   UNL     1       4.632   6.789  17.611  0.00  0.00    +0.000 NA
BRANCH  26  29
ATOM     29  C   UNL     1       5.857   4.301  15.082  0.00  0.00    +0.000 C 
ATOM     30  F   UNL     1       7.049   4.933  14.897  0.00  0.00    +0.000 F 
ATOM     31  F   UNL     1       6.156   2.991  15.295  0.00  0.00    +0.000 F 
ATOM     32  F   UNL     1       5.220   4.349  13.879  0.00  0.00    +0.000 F 
ENDBRANCH  26  29
ENDBRANCH  22  23
ENDBRANCH   4  22
TORSDOF 5
ENDMDL
MODEL 4
REMARK VINA RESULT:      -7.6      5.294      8.057
REMARK  Name = 
REMARK  6 active torsions:
REMARK  status: ('A' for Active; 'I' for Inactive)
REMARK    1  A    between atoms: C_1  and  C_2
REMARK    2  A    between atoms: C_7  and  N_8
REMARK    3  A    between atoms: C_12  and  C_14
REMARK    4  A    between atoms: C_17  and  O_18
REMARK    5  A    between atoms: O_18  and  C_19
REMARK    6  A    between atoms: C_22  and  C_23
REMARK                            x       y       z     vdW  Elec       q    Type
REMARK                         _______ _______ _______ _____ _____    ______ ____
ROOT
ATOM      1  C   UNL     1       0.816   9.736  18.896  0.00  0.00    +0.000 A 
ATOM      2  C   UNL     1       1.508   9.124  17.839  0.00  0.00    +0.000 A 
ATOM      3  C   UNL     1       2.215   7.941  18.050  0.00  0.00    +0.000 A 
ATOM      4  C   UNL     1       2.308   7.412  19.336  0.00  0.00    +0.000 A 
ATOM      5  C   UNL     1       1.655   8.046  20.402  0.00  0.00    +0.000 A 
ATOM      6  C   UNL     1       0.922   9.215  20.187  0.00  0.00    +0.000 A 
ENDROOT
BRANCH   1  11
ATOM      7  N   UNL     1       1.409  14.533  20.206  0.00  0.00    +0.000 N 
ATOM      8  C   UNL     1      -0.051  14.339  20.082  0.00  0.00    +0.000 C 
ATOM      9  C   UNL     1      -0.342  13.397  18.875  0.00  0.00    +0.000 C 
ATOM     10  N   UNL     1       0.511  12.191  18.895  0.00  0.00    +0.000 N 
ATOM     11  C   UNL     1      -0.037  10.935  18.675  0.00  0.00    +0.000 C 
ATOM     12  O   UNL     1      -1.197  10.763  18.307  0.00  0.00    +0.000 OA
ATOM     13  C   UNL     1       1.943  12.487  19.063  0.00  0.00    +0.000 C 
ATOM     14  C   UNL     1       2.132  13.261  20.371  0.00  0.00    +0.000 C 
BRANCH   7  21
ATOM     15  C   UNL     1       2.833  16.405  18.432  0.00  0.00    +0.000 C 
ATOM     16  C   UNL     1       2.734  16.564  19.930  0.00  0.00    +0.000 A 
ATOM     17  C   UNL     1       3.368  17.681  20.499  0.00  0.00    +0.000 A 
ATOM     18  C   UNL     1       3.240  17.955  21.857  0.00  0.00    +0.000 A 
ATOM     19  C   UNL     1       2.474  17.114  22.655  0.00  0.00    +0.000 A 
ATOM     20  C   UNL     1       1.865  15.981  22.104  0.00  0.00    +0.000 A 
ATOM     21  C   UNL     1       1.996  15.665  20.745  0.00  0.00    +0.000 A 
ENDBRANCH   7  21
ENDBRANCH   1  11
BRANCH   4  22
ATOM     22  O   UNL     1       3.012   6.234  19.459  0.00  0.00    +0.000 OA
BRANCH  22  23
ATOM     23  C   UNL     1       3.792   5.843  18.381  0.00  0.00    +0.000 A 
ATOM     24  C   UNL     1       3.395   4.710  17.694  0.00  0.00    +0.000 A 
ATOM     25  C   UNL     1       4.221   4.241  16.674  0.00  0.00    +0.000 A 
ATOM     26  C   UNL     1       5.407   4.926  16.371  0.00  0.00    +0.000 A 
ATOM     27  C   UNL     1       5.679   6.083  17.081  0.00  0.00    +0.000 A 
ATOM     28  N   UNL     1       4.892   6.562  18.066  0.00  0.00    +0.000 NA
BRANCH  26  29
ATOM     29  C   UNL     1       6.389   4.446  15.351  0.00  0.00    +0.000 C 
ATOM     30  F   UNL     1       6.129   3.189  14.895  0.00  0.00    +0.000 F 
ATOM     31  F   UNL     1       6.432   5.243  14.250  0.00  0.00    +0.000 F 
ATOM     32  F   UNL     1       7.660   4.409  15.837  0.00  0.00    +0.000 F 
ENDBRANCH  26  29
ENDBRANCH  22  23
ENDBRANCH   4  22
TORSDOF 5
ENDMDL
MODEL 5
REMARK VINA RESULT:      -7.6      7.579      8.957
REMARK  Name = 
REMARK  6 active torsions:
REMARK  status: ('A' for Active; 'I' for Inactive)
REMARK    1  A    between atoms: C_1  and  C_2
REMARK    2  A    between atoms: C_7  and  N_8
REMARK    3  A    between atoms: C_12  and  C_14
REMARK    4  A    between atoms: C_17  and  O_18
REMARK    5  A    between atoms: O_18  and  C_19
REMARK    6  A    between atoms: C_22  and  C_23
REMARK                            x       y       z     vdW  Elec       q    Type
REMARK                         _______ _______ _______ _____ _____    ______ ____
ROOT
ATOM      1  C   UNL     1      -0.575  10.234  19.148  0.00  0.00    +0.000 A 
ATOM      2  C   UNL     1       0.191   9.975  18.000  0.00  0.00    +0.000 A 
ATOM      3  C   UNL     1       1.306   9.141  18.069  0.00  0.00    +0.000 A 
ATOM      4  C   UNL     1       1.713   8.633  19.300  0.00  0.00    +0.000 A 
ATOM      5  C   UNL     1       0.976   8.926  20.457  0.00  0.00    +0.000 A 
ATOM      6  C   UNL     1      -0.158   9.738  20.384  0.00  0.00    +0.000 A 
ENDROOT
BRANCH   1  11
ATOM      7  N   UNL     1      -2.378  13.867  22.085  0.00  0.00    +0.000 N 
ATOM      8  C   UNL     1      -3.564  13.248  21.455  0.00  0.00    +0.000 C 
ATOM      9  C   UNL     1      -3.227  12.883  19.978  0.00  0.00    +0.000 C 
ATOM     10  N   UNL     1      -1.938  12.170  19.863  0.00  0.00    +0.000 N 
ATOM     11  C   UNL     1      -1.831  11.028  19.081  0.00  0.00    +0.000 C 
ATOM     12  O   UNL     1      -2.726  10.638  18.335  0.00  0.00    +0.000 OA
ATOM     13  C   UNL     1      -0.830  12.844  20.557  0.00  0.00    +0.000 C 
ATOM     14  C   UNL     1      -1.197  12.990  22.037  0.00  0.00    +0.000 C 
BRANCH   7  21
ATOM     15  C   UNL     1      -2.179  16.744  21.486  0.00  0.00    +0.000 C 
ATOM     16  C   UNL     1      -2.299  16.173  22.878  0.00  0.00    +0.000 A 
ATOM     17  C   UNL     1      -2.314  17.086  23.947  0.00  0.00    +0.000 A 
ATOM     18  C   UNL     1      -2.522  16.650  25.250  0.00  0.00    +0.000 A 
ATOM     19  C   UNL     1      -2.721  15.297  25.496  0.00  0.00    +0.000 A 
ATOM     20  C   UNL     1      -2.675  14.376  24.443  0.00  0.00    +0.000 A 
ATOM     21  C   UNL     1      -2.442  14.781  23.121  0.00  0.00    +0.000 A 
ENDBRANCH   7  21
ENDBRANCH   1  11
BRANCH   4  22
ATOM     22  O   UNL     1       2.815   7.805  19.282  0.00  0.00    +0.000 OA
BRANCH  22  23
ATOM     23  C   UNL     1       2.587   6.444  19.153  0.00  0.00    +0.000 A 
ATOM     24  C   UNL     1       2.998   5.845  17.976  0.00  0.00    +0.000 A 
ATOM     25  C   UNL     1       2.685   4.501  17.782  0.00  0.00    +0.000 A 
ATOM     26  C   UNL     1       1.982   3.802  18.775  0.00  0.00    +0.000 A 
ATOM     27  C   UNL     1       1.671   4.482  19.940  0.00  0.00    +0.000 A 
ATOM     28  N   UNL     1       1.970   5.779  20.155  0.00  0.00    +0.000 NA
BRANCH  26  29
ATOM     29  C   UNL     1       1.535   2.384  18.613  0.00  0.00    +0.000 C 
ATOM     30  F   UNL     1       0.182   2.242  18.575  0.00  0.00    +0.000 F 
ATOM     31  F   UNL     1       2.005   1.815  17.470  0.00  0.00    +0.000 F 
ATOM     32  F   UNL     1       1.964   1.590  19.632  0.00  0.00    +0.000 F 
ENDBRANCH  26  29
ENDBRANCH  22  23
ENDBRANCH   4  22
TORSDOF 5
ENDMDL
MODEL 6
REMARK VINA RESULT:      -7.6      5.505      8.133
REMARK  Name = 
REMARK  6 active torsions:
REMARK  status: ('A' for Active; 'I' for Inactive)
REMARK    1  A    between atoms: C_1  and  C_2
REMARK    2  A    between atoms: C_7  and  N_8
REMARK    3  A    between atoms: C_12  and  C_14
REMARK    4  A    between atoms: C_17  and  O_18
REMARK    5  A    between atoms: O_18  and  C_19
REMARK    6  A    between atoms: C_22  and  C_23
REMARK                            x       y       z     vdW  Elec       q    Type
REMARK                         _______ _______ _______ _____ _____    ______ ____
ROOT
ATOM      1  C   UNL     1       0.741   9.558  18.828  0.00  0.00    +0.000 A 
ATOM      2  C   UNL     1       0.927   8.948  20.078  0.00  0.00    +0.000 A 
ATOM      3  C   UNL     1       1.831   7.895  20.222  0.00  0.00    +0.000 A 
ATOM      4  C   UNL     1       2.485   7.388  19.101  0.00  0.00    +0.000 A 
ATOM      5  C   UNL     1       2.266   7.967  17.843  0.00  0.00    +0.000 A 
ATOM      6  C   UNL     1       1.384   9.040  17.702  0.00  0.00    +0.000 A 
ENDROOT
BRANCH   1  11
ATOM      7  N   UNL     1       1.417  14.364  20.062  0.00  0.00    +0.000 N 
ATOM      8  C   UNL     1      -0.048  14.164  20.055  0.00  0.00    +0.000 C 
ATOM      9  C   UNL     1      -0.430  13.214  18.880  0.00  0.00    +0.000 C 
ATOM     10  N   UNL     1       0.427  12.011  18.839  0.00  0.00    +0.000 N 
ATOM     11  C   UNL     1      -0.131  10.752  18.669  0.00  0.00    +0.000 C 
ATOM     12  O   UNL     1      -1.316  10.574  18.395  0.00  0.00    +0.000 OA
ATOM     13  C   UNL     1       1.866  12.313  18.891  0.00  0.00    +0.000 C 
ATOM     14  C   UNL     1       2.155  13.095  20.176  0.00  0.00    +0.000 C 
BRANCH   7  21
ATOM     15  C   UNL     1       2.899  16.102  18.203  0.00  0.00    +0.000 C 
ATOM     16  C   UNL     1       2.806  16.335  19.691  0.00  0.00    +0.000 A 
ATOM     17  C   UNL     1       3.475  17.458  20.207  0.00  0.00    +0.000 A 
ATOM     18  C   UNL     1       3.356  17.800  21.550  0.00  0.00    +0.000 A 
ATOM     19  C   UNL     1       2.564  17.024  22.387  0.00  0.00    +0.000 A 
ATOM     20  C   UNL     1       1.919  15.886  21.889  0.00  0.00    +0.000 A 
ATOM     21  C   UNL     1       2.039  15.501  20.547  0.00  0.00    +0.000 A 
ENDBRANCH   7  21
ENDBRANCH   1  11
BRANCH   4  22
ATOM     22  O   UNL     1       3.371   6.358  19.328  0.00  0.00    +0.000 OA
BRANCH  22  23
ATOM     23  C   UNL     1       4.053   5.852  18.232  0.00  0.00    +0.000 A 
ATOM     24  C   UNL     1       4.889   6.720  17.553  0.00  0.00    +0.000 A 
ATOM     25  C   UNL     1       5.502   6.262  16.388  0.00  0.00    +0.000 A 
ATOM     26  C   UNL     1       5.267   4.949  15.951  0.00  0.00    +0.000 A 
ATOM     27  C   UNL     1       4.460   4.145  16.739  0.00  0.00    +0.000 A 
ATOM     28  N   UNL     1       3.862   4.563  17.873  0.00  0.00    +0.000 NA
BRANCH  26  29
ATOM     29  C   UNL     1       5.817   4.405  14.672  0.00  0.00    +0.000 C 
ATOM     30  F   UNL     1       6.307   3.140  14.785  0.00  0.00    +0.000 F 
ATOM     31  F   UNL     1       4.888   4.361  13.679  0.00  0.00    +0.000 F 
ATOM     32  F   UNL     1       6.844   5.159  14.192  0.00  0.00    +0.000 F 
ENDBRANCH  26  29
ENDBRANCH  22  23
ENDBRANCH   4  22
TORSDOF 5
ENDMDL
MODEL 7
REMARK VINA RESULT:      -7.6      5.501      8.169
REMARK  Name = 
REMARK  6 active torsions:
REMARK  status: ('A' for Active; 'I' for Inactive)
REMARK    1  A    between atoms: C_1  and  C_2
REMARK    2  A    between atoms: C_7  and  N_8
REMARK    3  A    between atoms: C_12  and  C_14
REMARK    4  A    between atoms: C_17  and  O_18
REMARK    5  A    between atoms: O_18  and  C_19
REMARK    6  A    between atoms: C_22  and  C_23
REMARK                            x       y       z     vdW  Elec       q    Type
REMARK                         _______ _______ _______ _____ _____    ______ ____
ROOT
ATOM      1  C   UNL     1       0.881   9.555  18.748  0.00  0.00    +0.000 A 
ATOM      2  C   UNL     1       1.609   8.934  17.721  0.00  0.00    +0.000 A 
ATOM      3  C   UNL     1       2.357   7.787  17.981  0.00  0.00    +0.000 A 
ATOM      4  C   UNL     1       2.455   7.306  19.285  0.00  0.00    +0.000 A 
ATOM      5  C   UNL     1       1.765   7.952  20.321  0.00  0.00    +0.000 A 
ATOM      6  C   UNL     1       0.991   9.084  20.057  0.00  0.00    +0.000 A 
ENDROOT
BRANCH   1  11
ATOM      7  N   UNL     1       1.250  14.404  19.945  0.00  0.00    +0.000 N 
ATOM      8  C   UNL     1      -0.198  14.148  19.792  0.00  0.00    +0.000 C 
ATOM      9  C   UNL     1      -0.421  13.164  18.604  0.00  0.00    +0.000 C 
ATOM     10  N   UNL     1       0.479  11.995  18.675  0.00  0.00    +0.000 N 
ATOM     11  C   UNL     1      -0.013  10.713  18.476  0.00  0.00    +0.000 C 
ATOM     12  O   UNL     1      -1.156  10.484  18.086  0.00  0.00    +0.000 OA
ATOM     13  C   UNL     1       1.893  12.353  18.868  0.00  0.00    +0.000 C 
ATOM     14  C   UNL     1       2.019  13.167  20.160  0.00  0.00    +0.000 C 
BRANCH   7  21
ATOM     15  C   UNL     1       2.840  16.173  18.207  0.00  0.00    +0.000 C 
ATOM     16  C   UNL     1       2.592  16.425  19.674  0.00  0.00    +0.000 A 
ATOM     17  C   UNL     1       3.163  17.580  20.233  0.00  0.00    +0.000 A 
ATOM     18  C   UNL     1       2.900  17.938  21.551  0.00  0.00    +0.000 A 
ATOM     19  C   UNL     1       2.060  17.142  22.321  0.00  0.00    +0.000 A 
ATOM     20  C   UNL     1       1.512  15.972  21.783  0.00  0.00    +0.000 A 
ATOM     21  C   UNL     1       1.778  15.572  20.467  0.00  0.00    +0.000 A 
ENDBRANCH   7  21
ENDBRANCH   1  11
BRANCH   4  22
ATOM     22  O   UNL     1       3.201   6.161  19.457  0.00  0.00    +0.000 OA
BRANCH  22  23
ATOM     23  C   UNL     1       3.908   5.692  18.361  0.00  0.00    +0.000 A 
ATOM     24  C   UNL     1       4.902   6.510  17.853  0.00  0.00    +0.000 A 
ATOM     25  C   UNL     1       5.553   6.104  16.690  0.00  0.00    +0.000 A 
ATOM     26  C   UNL     1       5.196   4.891  16.082  0.00  0.00    +0.000 A 
ATOM     27  C   UNL     1       4.230   4.120  16.707  0.00  0.00    +0.000 A 
ATOM     28  N   UNL     1       3.592   4.486  17.837  0.00  0.00    +0.000 NA
BRANCH  26  29
ATOM     29  C   UNL     1       5.785   4.421  14.791  0.00  0.00    +0.000 C 
ATOM     30  F   UNL     1       6.794   5.213  14.333  0.00  0.00    +0.000 F 
ATOM     31  F   UNL     1       6.302   3.166  14.877  0.00  0.00    +0.000 F 
ATOM     32  F   UNL     1       4.863   4.379  13.790  0.00  0.00    +0.000 F 
ENDBRANCH  26  29
ENDBRANCH  22  23
ENDBRANCH   4  22
TORSDOF 5
ENDMDL
MODEL 8
REMARK VINA RESULT:      -7.6      7.384      9.001
REMARK  Name = 
REMARK  6 active torsions:
REMARK  status: ('A' for Active; 'I' for Inactive)
REMARK    1  A    between atoms: C_1  and  C_2
REMARK    2  A    between atoms: C_7  and  N_8
REMARK    3  A    between atoms: C_12  and  C_14
REMARK    4  A    between atoms: C_17  and  O_18
REMARK    5  A    between atoms: O_18  and  C_19
REMARK    6  A    between atoms: C_22  and  C_23
REMARK                            x       y       z     vdW  Elec       q    Type
REMARK                         _______ _______ _______ _____ _____    ______ ____
ROOT
ATOM      1  C   UNL     1      -0.349  10.329  19.396  0.00  0.00    +0.000 A 
ATOM      2  C   UNL     1       0.431  10.059  18.260  0.00  0.00    +0.000 A 
ATOM      3  C   UNL     1       1.452   9.110  18.315  0.00  0.00    +0.000 A 
ATOM      4  C   UNL     1       1.756   8.491  19.525  0.00  0.00    +0.000 A 
ATOM      5  C   UNL     1       1.007   8.792  20.672  0.00  0.00    +0.000 A 
ATOM      6  C   UNL     1      -0.034   9.721  20.612  0.00  0.00    +0.000 A 
ENDROOT
BRANCH   1  11
ATOM      7  N   UNL     1      -1.823  14.029  22.431  0.00  0.00    +0.000 N 
ATOM      8  C   UNL     1      -3.054  13.560  21.760  0.00  0.00    +0.000 C 
ATOM      9  C   UNL     1      -2.726  13.212  20.276  0.00  0.00    +0.000 C 
ATOM     10  N   UNL     1      -1.517  12.372  20.158  0.00  0.00    +0.000 N 
ATOM     11  C   UNL     1      -1.513  11.253  19.337  0.00  0.00    +0.000 C 
ATOM     12  O   UNL     1      -2.429  10.984  18.562  0.00  0.00    +0.000 OA
ATOM     13  C   UNL     1      -0.359  12.902  20.893  0.00  0.00    +0.000 C 
ATOM     14  C   UNL     1      -0.739  13.036  22.371  0.00  0.00    +0.000 C 
BRANCH   7  21
ATOM     15  C   UNL     1      -0.313  16.548  22.210  0.00  0.00    +0.000 C 
ATOM     16  C   UNL     1      -1.054  16.110  23.449  0.00  0.00    +0.000 A 
ATOM     17  C   UNL     1      -1.012  16.968  24.560  0.00  0.00    +0.000 A 
ATOM     18  C   UNL     1      -1.750  16.687  25.705  0.00  0.00    +0.000 A 
ATOM     19  C   UNL     1      -2.540  15.544  25.746  0.00  0.00    +0.000 A 
ATOM     20  C   UNL     1      -2.564  14.666  24.656  0.00  0.00    +0.000 A 
ATOM     21  C   UNL     1      -1.812  14.909  23.499  0.00  0.00    +0.000 A 
ENDBRANCH   7  21
ENDBRANCH   1  11
BRANCH   4  22
ATOM     22  O   UNL     1       2.767   7.556  19.492  0.00  0.00    +0.000 OA
BRANCH  22  23
ATOM     23  C   UNL     1       2.412   6.244  19.221  0.00  0.00    +0.000 A 
ATOM     24  C   UNL     1       1.836   5.521  20.250  0.00  0.00    +0.000 A 
ATOM     25  C   UNL     1       1.568   4.171  20.030  0.00  0.00    +0.000 A 
ATOM     26  C   UNL     1       1.874   3.596  18.788  0.00  0.00    +0.000 A 
ATOM     27  C   UNL     1       2.394   4.425  17.807  0.00  0.00    +0.000 A 
ATOM     28  N   UNL     1       2.654   5.734  17.992  0.00  0.00    +0.000 NA
BRANCH  26  29
ATOM     29  C   UNL     1       1.696   2.140  18.497  0.00  0.00    +0.000 C 
ATOM     30  F   UNL     1       2.177   1.766  17.279  0.00  0.00    +0.000 F 
ATOM     31  F   UNL     1       2.317   1.344  19.408  0.00  0.00    +0.000 F 
ATOM     32  F   UNL     1       0.385   1.770  18.508  0.00  0.00    +0.000 F 
ENDBRANCH  26  29
ENDBRANCH  22  23
ENDBRANCH   4  22
TORSDOF 5
ENDMDL
MODEL 9
REMARK VINA RESULT:      -7.6      6.452      7.873
REMARK  Name = 
REMARK  6 active torsions:
REMARK  status: ('A' for Active; 'I' for Inactive)
REMARK    1  A    between atoms: C_1  and  C_2
REMARK    2  A    between atoms: C_7  and  N_8
REMARK    3  A    between atoms: C_12  and  C_14
REMARK    4  A    between atoms: C_17  and  O_18
REMARK    5  A    between atoms: O_18  and  C_19
REMARK    6  A    between atoms: C_22  and  C_23
REMARK                            x       y       z     vdW  Elec       q    Type
REMARK                         _______ _______ _______ _____ _____    ______ ____
ROOT
ATOM      1  C   UNL     1       0.450   9.637  18.921  0.00  0.00    +0.000 A 
ATOM      2  C   UNL     1       1.302   9.211  17.890  0.00  0.00    +0.000 A 
ATOM      3  C   UNL     1       2.204   8.170  18.105  0.00  0.00    +0.000 A 
ATOM      4  C   UNL     1       2.322   7.609  19.375  0.00  0.00    +0.000 A 
ATOM      5  C   UNL     1       1.504   8.064  20.419  0.00  0.00    +0.000 A 
ATOM      6  C   UNL     1       0.579   9.087  20.198  0.00  0.00    +0.000 A 
ENDROOT
BRANCH   1  11
ATOM      7  N   UNL     1      -1.519  13.124  21.928  0.00  0.00    +0.000 N 
ATOM      8  C   UNL     1      -2.560  12.846  20.917  0.00  0.00    +0.000 C 
ATOM      9  C   UNL     1      -1.883  12.625  19.531  0.00  0.00    +0.000 C 
ATOM     10  N   UNL     1      -0.741  11.691  19.615  0.00  0.00    +0.000 N 
ATOM     11  C   UNL     1      -0.597  10.668  18.689  0.00  0.00    +0.000 C 
ATOM     12  O   UNL     1      -1.295  10.570  17.682  0.00  0.00    +0.000 OA
ATOM     13  C   UNL     1       0.218  12.030  20.678  0.00  0.00    +0.000 C 
ATOM     14  C   UNL     1      -0.523  12.044  22.019  0.00  0.00    +0.000 C 
BRANCH   7  21
ATOM     15  C   UNL     1       0.278  15.386  22.507  0.00  0.00    +0.000 C 
ATOM     16  C   UNL     1      -0.853  14.950  23.405  0.00  0.00    +0.000 A 
ATOM     17  C   UNL     1      -1.049  15.679  24.591  0.00  0.00    +0.000 A 
ATOM     18  C   UNL     1      -2.130  15.406  25.422  0.00  0.00    +0.000 A 
ATOM     19  C   UNL     1      -3.026  14.403  25.073  0.00  0.00    +0.000 A 
ATOM     20  C   UNL     1      -2.822  13.650  23.911  0.00  0.00    +0.000 A 
ATOM     21  C   UNL     1      -1.729  13.884  23.066  0.00  0.00    +0.000 A 
ENDBRANCH   7  21
ENDBRANCH   1  11
BRANCH   4  22
ATOM     22  O   UNL     1       3.225   6.576  19.502  0.00  0.00    +0.000 OA
BRANCH  22  23
ATOM     23  C   UNL     1       3.781   6.070  18.337  0.00  0.00    +0.000 A 
ATOM     24  C   UNL     1       3.427   4.782  17.977  0.00  0.00    +0.000 A 
ATOM     25  C   UNL     1       4.055   4.217  16.868  0.00  0.00    +0.000 A 
ATOM     26  C   UNL     1       5.003   4.964  16.152  0.00  0.00    +0.000 A 
ATOM     27  C   UNL     1       5.238   6.265  16.563  0.00  0.00    +0.000 A 
ATOM     28  N   UNL     1       4.639   6.837  17.627  0.00  0.00    +0.000 NA
BRANCH  26  29
ATOM     29  C   UNL     1       5.781   4.407  15.003  0.00  0.00    +0.000 C 
ATOM     30  F   UNL     1       6.225   3.136  15.212  0.00  0.00    +0.000 F 
ATOM     31  F   UNL     1       5.058   4.368  13.852  0.00  0.00    +0.000 F 
ATOM     32  F   UNL     1       6.890   5.147  14.726  0.00  0.00    +0.000 F 
ENDBRANCH  26  29
ENDBRANCH  22  23
ENDBRANCH   4  22
TORSDOF 5
ENDMDL
