MODEL 1
REMARK VINA RESULT:      -8.1      0.000      0.000
REMARK  Name = 
REMARK  4 active torsions:
REMARK  status: ('A' for Active; 'I' for Inactive)
REMARK    1  A    between atoms: C_5  and  C_6
REMARK    2  A    between atoms: N_18  and  C_19
REMARK    3  A    between atoms: C_19  and  C_20
REMARK    4  A    between atoms: C_20  and  C_22
REMARK                            x       y       z     vdW  Elec       q    Type
REMARK                         _______ _______ _______ _____ _____    ______ ____
ROOT
ATOM      1  O   UNL     1       0.767  11.572  18.430  0.00  0.00    +0.000 OA
ATOM      2  C   UNL     1       0.993  10.583  19.114  0.00  0.00    +0.000 C 
ATOM      3  S   UNL     1       1.610   9.082  18.464  0.00  0.00    +0.000 S 
ATOM      4  C   UNL     1       1.598   8.314  20.007  0.00  0.00    +0.000 C 
ATOM      5  C   UNL     1       2.001   7.067  20.293  0.00  0.00    +0.000 C 
ATOM      6  C   UNL     1       1.097   9.263  21.042  0.00  0.00    +0.000 C 
ATOM      7  O   UNL     1       0.976   8.994  22.227  0.00  0.00    +0.000 OA
ATOM      8  N   UNL     1       0.840  10.485  20.467  0.00  0.00    +0.000 N 
ENDROOT
BRANCH   5   9
ATOM      9  C   UNL     1       2.567   6.140  19.297  0.00  0.00    +0.000 A 
ATOM     10  C   UNL     1       3.551   6.651  18.436  0.00  0.00    +0.000 A 
ATOM     11  C   UNL     1       4.069   5.867  17.410  0.00  0.00    +0.000 A 
ATOM     12  C   UNL     1       3.614   4.562  17.236  0.00  0.00    +0.000 A 
ATOM     13  C   UNL     1       2.647   4.017  18.094  0.00  0.00    +0.000 A 
ATOM     14  C   UNL     1       2.205   2.697  17.909  0.00  0.00    +0.000 A 
ATOM     15  C   UNL     1       1.246   2.136  18.750  0.00  0.00    +0.000 A 
ATOM     16  C   UNL     1       0.716   2.889  19.790  0.00  0.00    +0.000 A 
ATOM     17  C   UNL     1       1.141   4.204  19.987  0.00  0.00    +0.000 A 
ATOM     18  C   UNL     1       2.110   4.802  19.146  0.00  0.00    +0.000 A 
ENDBRANCH   5   9
BRANCH   8  19
ATOM     19  C   UNL     1       0.423  11.636  21.245  0.00  0.00    +0.000 C 
BRANCH  19  20
ATOM     20  C   UNL     1      -1.086  11.708  21.402  0.00  0.00    +0.000 C 
ATOM     21  O   UNL     1      -1.847  11.740  20.430  0.00  0.00    +0.000 OA
BRANCH  20  22
ATOM     22  C   UNL     1      -1.557  11.729  22.845  0.00  0.00    +0.000 C 
ATOM     23  F   UNL     1      -1.063  12.799  23.531  0.00  0.00    +0.000 F 
ATOM     24  F   UNL     1      -2.910  11.806  22.955  0.00  0.00    +0.000 F 
ATOM     25  F   UNL     1      -1.168  10.626  23.539  0.00  0.00    +0.000 F 
ENDBRANCH  20  22
ENDBRANCH  19  20
ENDBRANCH   8  19
TORSDOF 4
ENDMDL
MODEL 2
REMARK VINA RESULT:      -7.9      5.398      8.209
REMARK  Name = 
REMARK  4 active torsions:
REMARK  status: ('A' for Active; 'I' for Inactive)
REMARK    1  A    between atoms: C_5  and  C_6
REMARK    2  A    between atoms: N_18  and  C_19
REMARK    3  A    between atoms: C_19  and  C_20
REMARK    4  A    between atoms: C_20  and  C_22
REMARK                            x       y       z     vdW  Elec       q    Type
REMARK                         _______ _______ _______ _____ _____    ______ ____
ROOT
ATOM      1  O   UNL     1       4.743   6.814  16.309  0.00  0.00    +0.000 OA
ATOM      2  C   UNL     1       4.065   6.817  17.327  0.00  0.00    +0.000 C 
ATOM      3  S   UNL     1       2.961   8.107  17.746  0.00  0.00    +0.000 S 
ATOM      4  C   UNL     1       2.501   7.344  19.222  0.00  0.00    +0.000 C 
ATOM      5  C   UNL     1       1.598   7.781  20.112  0.00  0.00    +0.000 C 
ATOM      6  C   UNL     1       3.235   6.056  19.377  0.00  0.00    +0.000 C 
ATOM      7  O   UNL     1       3.114   5.300  20.328  0.00  0.00    +0.000 OA
ATOM      8  N   UNL     1       4.025   5.835  18.273  0.00  0.00    +0.000 N 
ENDROOT
BRANCH   5   9
ATOM      9  C   UNL     1       0.809   9.015  19.940  0.00  0.00    +0.000 A 
ATOM     10  C   UNL     1       0.791   9.587  18.658  0.00  0.00    +0.000 A 
ATOM     11  C   UNL     1       0.146  10.799  18.434  0.00  0.00    +0.000 A 
ATOM     12  C   UNL     1      -0.493  11.449  19.487  0.00  0.00    +0.000 A 
ATOM     13  C   UNL     1      -0.511  10.891  20.774  0.00  0.00    +0.000 A 
ATOM     14  C   UNL     1      -1.167  11.557  21.822  0.00  0.00    +0.000 A 
ATOM     15  C   UNL     1      -1.196  11.020  23.108  0.00  0.00    +0.000 A 
ATOM     16  C   UNL     1      -0.569   9.806  23.362  0.00  0.00    +0.000 A 
ATOM     17  C   UNL     1       0.090   9.132  22.332  0.00  0.00    +0.000 A 
ATOM     18  C   UNL     1       0.141   9.655  21.018  0.00  0.00    +0.000 A 
ENDBRANCH   5   9
BRANCH   8  19
ATOM     19  C   UNL     1       4.792   4.615  18.100  0.00  0.00    +0.000 C 
BRANCH  19  20
ATOM     20  C   UNL     1       6.232   4.774  18.554  0.00  0.00    +0.000 C 
ATOM     21  O   UNL     1       6.537   4.899  19.744  0.00  0.00    +0.000 OA
BRANCH  20  22
ATOM     22  C   UNL     1       7.244   4.757  17.422  0.00  0.00    +0.000 C 
ATOM     23  F   UNL     1       8.372   4.066  17.751  0.00  0.00    +0.000 F 
ATOM     24  F   UNL     1       6.761   4.171  16.295  0.00  0.00    +0.000 F 
ATOM     25  F   UNL     1       7.656   6.005  17.071  0.00  0.00    +0.000 F 
ENDBRANCH  20  22
ENDBRANCH  19  20
ENDBRANCH   8  19
TORSDOF 4
ENDMDL
MODEL 3
REMARK VINA RESULT:      -7.8      1.445      2.249
REMARK  Name = 
REMARK  4 active torsions:
REMARK  status: ('A' for Active; 'I' for Inactive)
REMARK    1  A    between atoms: C_5  and  C_6
REMARK    2  A    between atoms: N_18  and  C_19
REMARK    3  A    between atoms: C_19  and  C_20
REMARK    4  A    between atoms: C_20  and  C_22
REMARK                            x       y       z     vdW  Elec       q    Type
REMARK                         _______ _______ _______ _____ _____    ______ ____
ROOT
ATOM      1  O   UNL     1       0.592   8.484  22.120  0.00  0.00    +0.000 OA
ATOM      2  C   UNL     1       1.008   8.515  20.970  0.00  0.00    +0.000 C 
ATOM      3  S   UNL     1       2.163   7.368  20.332  0.00  0.00    +0.000 S 
ATOM      4  C   UNL     1       2.185   8.127  18.784  0.00  0.00    +0.000 C 
ATOM      5  C   UNL     1       2.876   7.739  17.702  0.00  0.00    +0.000 C 
ATOM      6  C   UNL     1       1.266   9.301  18.782  0.00  0.00    +0.000 C 
ATOM      7  O   UNL     1       1.080  10.033  17.823  0.00  0.00    +0.000 OA
ATOM      8  N   UNL     1       0.637   9.400  20.001  0.00  0.00    +0.000 N 
ENDROOT
BRANCH   5   9
ATOM      9  C   UNL     1       3.733   6.539  17.664  0.00  0.00    +0.000 A 
ATOM     10  C   UNL     1       5.111   6.745  17.490  0.00  0.00    +0.000 A 
ATOM     11  C   UNL     1       5.975   5.663  17.351  0.00  0.00    +0.000 A 
ATOM     12  C   UNL     1       5.472   4.365  17.392  0.00  0.00    +0.000 A 
ATOM     13  C   UNL     1       4.103   4.128  17.587  0.00  0.00    +0.000 A 
ATOM     14  C   UNL     1       3.615   2.812  17.633  0.00  0.00    +0.000 A 
ATOM     15  C   UNL     1       2.259   2.555  17.826  0.00  0.00    +0.000 A 
ATOM     16  C   UNL     1       1.371   3.613  17.976  0.00  0.00    +0.000 A 
ATOM     17  C   UNL     1       1.839   4.928  17.930  0.00  0.00    +0.000 A 
ATOM     18  C   UNL     1       3.209   5.220  17.731  0.00  0.00    +0.000 A 
ENDBRANCH   5   9
BRANCH   8  19
ATOM     19  C   UNL     1      -0.383  10.398  20.267  0.00  0.00    +0.000 C 
BRANCH  19  20
ATOM     20  C   UNL     1       0.114  11.494  21.194  0.00  0.00    +0.000 C 
ATOM     21  O   UNL     1       1.199  12.057  21.024  0.00  0.00    +0.000 OA
BRANCH  20  22
ATOM     22  C   UNL     1      -0.841  11.826  22.327  0.00  0.00    +0.000 C 
ATOM     23  F   UNL     1      -0.573  13.040  22.885  0.00  0.00    +0.000 F 
ATOM     24  F   UNL     1      -2.138  11.877  21.923  0.00  0.00    +0.000 F 
ATOM     25  F   UNL     1      -0.780  10.924  23.343  0.00  0.00    +0.000 F 
ENDBRANCH  20  22
ENDBRANCH  19  20
ENDBRANCH   8  19
TORSDOF 4
ENDMDL
MODEL 4
REMARK VINA RESULT:      -7.8      4.935      7.947
REMARK  Name = 
REMARK  4 active torsions:
REMARK  status: ('A' for Active; 'I' for Inactive)
REMARK    1  A    between atoms: C_5  and  C_6
REMARK    2  A    between atoms: N_18  and  C_19
REMARK    3  A    between atoms: C_19  and  C_20
REMARK    4  A    between atoms: C_20  and  C_22
REMARK                            x       y       z     vdW  Elec       q    Type
REMARK                         _______ _______ _______ _____ _____    ______ ____
ROOT
ATOM      1  O   UNL     1       4.610   6.262  16.477  0.00  0.00    +0.000 OA
ATOM      2  C   UNL     1       3.933   6.386  17.489  0.00  0.00    +0.000 C 
ATOM      3  S   UNL     1       3.042   7.837  17.881  0.00  0.00    +0.000 S 
ATOM      4  C   UNL     1       2.458   7.177  19.363  0.00  0.00    +0.000 C 
ATOM      5  C   UNL     1       1.629   7.763  20.239  0.00  0.00    +0.000 C 
ATOM      6  C   UNL     1       2.981   5.792  19.541  0.00  0.00    +0.000 C 
ATOM      7  O   UNL     1       2.737   5.079  20.501  0.00  0.00    +0.000 OA
ATOM      8  N   UNL     1       3.733   5.435  18.448  0.00  0.00    +0.000 N 
ENDROOT
BRANCH   5   9
ATOM      9  C   UNL     1       1.044   9.103  20.043  0.00  0.00    +0.000 A 
ATOM     10  C   UNL     1       1.293   9.734  18.815  0.00  0.00    +0.000 A 
ATOM     11  C   UNL     1       0.854  11.035  18.587  0.00  0.00    +0.000 A 
ATOM     12  C   UNL     1       0.156  11.715  19.582  0.00  0.00    +0.000 A 
ATOM     13  C   UNL     1      -0.127  11.102  20.811  0.00  0.00    +0.000 A 
ATOM     14  C   UNL     1      -0.838  11.801  21.800  0.00  0.00    +0.000 A 
ATOM     15  C   UNL     1      -1.130  11.209  23.028  0.00  0.00    +0.000 A 
ATOM     16  C   UNL     1      -0.714   9.909  23.283  0.00  0.00    +0.000 A 
ATOM     17  C   UNL     1      -0.003   9.201  22.313  0.00  0.00    +0.000 A 
ATOM     18  C   UNL     1       0.312   9.776  21.059  0.00  0.00    +0.000 A 
ENDBRANCH   5   9
BRANCH   8  19
ATOM     19  C   UNL     1       4.301   4.108  18.297  0.00  0.00    +0.000 C 
BRANCH  19  20
ATOM     20  C   UNL     1       3.253   3.073  17.928  0.00  0.00    +0.000 C 
ATOM     21  O   UNL     1       2.518   3.202  16.944  0.00  0.00    +0.000 OA
BRANCH  20  22
ATOM     22  C   UNL     1       3.200   1.883  18.870  0.00  0.00    +0.000 C 
ATOM     23  F   UNL     1       3.794   0.779  18.334  0.00  0.00    +0.000 F 
ATOM     24  F   UNL     1       3.836   2.117  20.048  0.00  0.00    +0.000 F 
ATOM     25  F   UNL     1       1.927   1.514  19.175  0.00  0.00    +0.000 F 
ENDBRANCH  20  22
ENDBRANCH  19  20
ENDBRANCH   8  19
TORSDOF 4
ENDMDL
MODEL 5
REMARK VINA RESULT:      -7.8      5.393      8.133
REMARK  Name = 
REMARK  4 active torsions:
REMARK  status: ('A' for Active; 'I' for Inactive)
REMARK    1  A    between atoms: C_5  and  C_6
REMARK    2  A    between atoms: N_18  and  C_19
REMARK    3  A    between atoms: C_19  and  C_20
REMARK    4  A    between atoms: C_20  and  C_22
REMARK                            x       y       z     vdW  Elec       q    Type
REMARK                         _______ _______ _______ _____ _____    ______ ____
ROOT
ATOM      1  O   UNL     1       2.505   3.483  17.940  0.00  0.00    +0.000 OA
ATOM      2  C   UNL     1       2.749   4.681  17.889  0.00  0.00    +0.000 C 
ATOM      3  S   UNL     1       1.585   5.920  18.298  0.00  0.00    +0.000 S 
ATOM      4  C   UNL     1       2.693   7.193  17.943  0.00  0.00    +0.000 C 
ATOM      5  C   UNL     1       2.479   8.510  18.069  0.00  0.00    +0.000 C 
ATOM      6  C   UNL     1       3.995   6.621  17.495  0.00  0.00    +0.000 C 
ATOM      7  O   UNL     1       4.968   7.285  17.172  0.00  0.00    +0.000 OA
ATOM      8  N   UNL     1       3.942   5.248  17.545  0.00  0.00    +0.000 N 
ENDROOT
BRANCH   5   9
ATOM      9  C   UNL     1       1.223   9.092  18.579  0.00  0.00    +0.000 A 
ATOM     10  C   UNL     1       0.323   9.600  17.629  0.00  0.00    +0.000 A 
ATOM     11  C   UNL     1      -0.841  10.246  18.033  0.00  0.00    +0.000 A 
ATOM     12  C   UNL     1      -1.121  10.385  19.390  0.00  0.00    +0.000 A 
ATOM     13  C   UNL     1      -0.252   9.868  20.362  0.00  0.00    +0.000 A 
ATOM     14  C   UNL     1      -0.554  10.011  21.726  0.00  0.00    +0.000 A 
ATOM     15  C   UNL     1       0.297   9.505  22.707  0.00  0.00    +0.000 A 
ATOM     16  C   UNL     1       1.462   8.847  22.337  0.00  0.00    +0.000 A 
ATOM     17  C   UNL     1       1.780   8.698  20.985  0.00  0.00    +0.000 A 
ATOM     18  C   UNL     1       0.939   9.205  19.967  0.00  0.00    +0.000 A 
ENDBRANCH   5   9
BRANCH   8  19
ATOM     19  C   UNL     1       5.094   4.416  17.249  0.00  0.00    +0.000 C 
BRANCH  19  20
ATOM     20  C   UNL     1       6.162   4.512  18.325  0.00  0.00    +0.000 C 
ATOM     21  O   UNL     1       5.944   4.194  19.499  0.00  0.00    +0.000 OA
BRANCH  20  22
ATOM     22  C   UNL     1       7.501   5.022  17.823  0.00  0.00    +0.000 C 
ATOM     23  F   UNL     1       7.427   5.485  16.543  0.00  0.00    +0.000 F 
ATOM     24  F   UNL     1       7.983   6.052  18.567  0.00  0.00    +0.000 F 
ATOM     25  F   UNL     1       8.459   4.057  17.819  0.00  0.00    +0.000 F 
ENDBRANCH  20  22
ENDBRANCH  19  20
ENDBRANCH   8  19
TORSDOF 4
ENDMDL
MODEL 6
REMARK VINA RESULT:      -7.7      4.558      7.815
REMARK  Name = 
REMARK  4 active torsions:
REMARK  status: ('A' for Active; 'I' for Inactive)
REMARK    1  A    between atoms: C_5  and  C_6
REMARK    2  A    between atoms: N_18  and  C_19
REMARK    3  A    between atoms: C_19  and  C_20
REMARK    4  A    between atoms: C_20  and  C_22
REMARK                            x       y       z     vdW  Elec       q    Type
REMARK                         _______ _______ _______ _____ _____    ______ ____
ROOT
ATOM      1  O   UNL     1       2.113   5.028  21.167  0.00  0.00    +0.000 OA
ATOM      2  C   UNL     1       2.183   5.950  20.366  0.00  0.00    +0.000 C 
ATOM      3  S   UNL     1       1.217   7.403  20.482  0.00  0.00    +0.000 S 
ATOM      4  C   UNL     1       1.902   8.071  19.048  0.00  0.00    +0.000 C 
ATOM      5  C   UNL     1       1.637   9.269  18.506  0.00  0.00    +0.000 C 
ATOM      6  C   UNL     1       2.904   7.126  18.477  0.00  0.00    +0.000 C 
ATOM      7  O   UNL     1       3.547   7.330  17.459  0.00  0.00    +0.000 OA
ATOM      8  N   UNL     1       3.020   6.024  19.291  0.00  0.00    +0.000 N 
ENDROOT
BRANCH   5   9
ATOM      9  C   UNL     1       0.704  10.247  19.096  0.00  0.00    +0.000 A 
ATOM     10  C   UNL     1       1.151  10.954  20.223  0.00  0.00    +0.000 A 
ATOM     11  C   UNL     1       0.300  11.828  20.893  0.00  0.00    +0.000 A 
ATOM     12  C   UNL     1      -1.005  12.008  20.439  0.00  0.00    +0.000 A 
ATOM     13  C   UNL     1      -1.472  11.331  19.303  0.00  0.00    +0.000 A 
ATOM     14  C   UNL     1      -2.788  11.531  18.856  0.00  0.00    +0.000 A 
ATOM     15  C   UNL     1      -3.273  10.869  17.729  0.00  0.00    +0.000 A 
ATOM     16  C   UNL     1      -2.445   9.997  17.033  0.00  0.00    +0.000 A 
ATOM     17  C   UNL     1      -1.134   9.785  17.465  0.00  0.00    +0.000 A 
ATOM     18  C   UNL     1      -0.616  10.438  18.608  0.00  0.00    +0.000 A 
ENDBRANCH   5   9
BRANCH   8  19
ATOM     19  C   UNL     1       3.985   4.970  19.037  0.00  0.00    +0.000 C 
BRANCH  19  20
ATOM     20  C   UNL     1       3.600   4.114  17.843  0.00  0.00    +0.000 C 
ATOM     21  O   UNL     1       4.160   4.221  16.748  0.00  0.00    +0.000 OA
BRANCH  20  22
ATOM     22  C   UNL     1       2.481   3.127  18.126  0.00  0.00    +0.000 C 
ATOM     23  F   UNL     1       2.594   2.562  19.361  0.00  0.00    +0.000 F 
ATOM     24  F   UNL     1       1.250   3.703  18.088  0.00  0.00    +0.000 F 
ATOM     25  F   UNL     1       2.460   2.094  17.241  0.00  0.00    +0.000 F 
ENDBRANCH  20  22
ENDBRANCH  19  20
ENDBRANCH   8  19
TORSDOF 4
ENDMDL
MODEL 7
REMARK VINA RESULT:      -7.7      2.311      3.067
REMARK  Name = 
REMARK  4 active torsions:
REMARK  status: ('A' for Active; 'I' for Inactive)
REMARK    1  A    between atoms: C_5  and  C_6
REMARK    2  A    between atoms: N_18  and  C_19
REMARK    3  A    between atoms: C_19  and  C_20
REMARK    4  A    between atoms: C_20  and  C_22
REMARK                            x       y       z     vdW  Elec       q    Type
REMARK                         _______ _______ _______ _____ _____    ______ ____
ROOT
ATOM      1  O   UNL     1       0.596   8.726  21.931  0.00  0.00    +0.000 OA
ATOM      2  C   UNL     1       1.056   8.637  20.801  0.00  0.00    +0.000 C 
ATOM      3  S   UNL     1       2.189   7.396  20.317  0.00  0.00    +0.000 S 
ATOM      4  C   UNL     1       2.298   8.009  18.709  0.00  0.00    +0.000 C 
ATOM      5  C   UNL     1       3.014   7.500  17.696  0.00  0.00    +0.000 C 
ATOM      6  C   UNL     1       1.426   9.210  18.564  0.00  0.00    +0.000 C 
ATOM      7  O   UNL     1       1.305   9.857  17.536  0.00  0.00    +0.000 OA
ATOM      8  N   UNL     1       0.756   9.443  19.742  0.00  0.00    +0.000 N 
ENDROOT
BRANCH   5   9
ATOM      9  C   UNL     1       3.824   6.272  17.801  0.00  0.00    +0.000 A 
ATOM     10  C   UNL     1       5.219   6.426  17.799  0.00  0.00    +0.000 A 
ATOM     11  C   UNL     1       6.054   5.313  17.802  0.00  0.00    +0.000 A 
ATOM     12  C   UNL     1       5.503   4.034  17.815  0.00  0.00    +0.000 A 
ATOM     13  C   UNL     1       4.112   3.849  17.840  0.00  0.00    +0.000 A 
ATOM     14  C   UNL     1       3.575   2.552  17.859  0.00  0.00    +0.000 A 
ATOM     15  C   UNL     1       2.196   2.346  17.884  0.00  0.00    +0.000 A 
ATOM     16  C   UNL     1       1.336   3.436  17.890  0.00  0.00    +0.000 A 
ATOM     17  C   UNL     1       1.854   4.733  17.868  0.00  0.00    +0.000 A 
ATOM     18  C   UNL     1       3.248   4.974  17.837  0.00  0.00    +0.000 A 
ENDBRANCH   5   9
BRANCH   8  19
ATOM     19  C   UNL     1      -0.234  10.496  19.876  0.00  0.00    +0.000 C 
BRANCH  19  20
ATOM     20  C   UNL     1       0.402  11.855  20.111  0.00  0.00    +0.000 C 
ATOM     21  O   UNL     1       1.103  12.091  21.100  0.00  0.00    +0.000 OA
BRANCH  20  22
ATOM     22  C   UNL     1       0.101  12.874  19.026  0.00  0.00    +0.000 C 
ATOM     23  F   UNL     1      -0.452  14.013  19.532  0.00  0.00    +0.000 F 
ATOM     24  F   UNL     1       1.213  13.265  18.349  0.00  0.00    +0.000 F 
ATOM     25  F   UNL     1      -0.781  12.408  18.101  0.00  0.00    +0.000 F 
ENDBRANCH  20  22
ENDBRANCH  19  20
ENDBRANCH   8  19
TORSDOF 4
ENDMDL
MODEL 8
REMARK VINA RESULT:      -7.7      4.599      7.849
REMARK  Name = 
REMARK  4 active torsions:
REMARK  status: ('A' for Active; 'I' for Inactive)
REMARK    1  A    between atoms: C_5  and  C_6
REMARK    2  A    between atoms: N_18  and  C_19
REMARK    3  A    between atoms: C_19  and  C_20
REMARK    4  A    between atoms: C_20  and  C_22
REMARK                            x       y       z     vdW  Elec       q    Type
REMARK                         _______ _______ _______ _____ _____    ______ ____
ROOT
ATOM      1  O   UNL     1       2.113   5.193  21.310  0.00  0.00    +0.000 OA
ATOM      2  C   UNL     1       2.176   6.067  20.455  0.00  0.00    +0.000 C 
ATOM      3  S   UNL     1       1.215   7.526  20.497  0.00  0.00    +0.000 S 
ATOM      4  C   UNL     1       1.886   8.108  19.019  0.00  0.00    +0.000 C 
ATOM      5  C   UNL     1       1.617   9.272  18.411  0.00  0.00    +0.000 C 
ATOM      6  C   UNL     1       2.879   7.128  18.493  0.00  0.00    +0.000 C 
ATOM      7  O   UNL     1       3.511   7.271  17.459  0.00  0.00    +0.000 OA
ATOM      8  N   UNL     1       3.002   6.075  19.369  0.00  0.00    +0.000 N 
ENDROOT
BRANCH   5   9
ATOM      9  C   UNL     1       0.692  10.285  18.953  0.00  0.00    +0.000 A 
ATOM     10  C   UNL     1       1.156  11.062  20.027  0.00  0.00    +0.000 A 
ATOM     11  C   UNL     1       0.314  11.976  20.654  0.00  0.00    +0.000 A 
ATOM     12  C   UNL     1      -0.997  12.127  20.210  0.00  0.00    +0.000 A 
ATOM     13  C   UNL     1      -1.482  11.381  19.125  0.00  0.00    +0.000 A 
ATOM     14  C   UNL     1      -2.805  11.553  18.687  0.00  0.00    +0.000 A 
ATOM     15  C   UNL     1      -3.306  10.821  17.612  0.00  0.00    +0.000 A 
ATOM     16  C   UNL     1      -2.488   9.908  16.959  0.00  0.00    +0.000 A 
ATOM     17  C   UNL     1      -1.171   9.722  17.383  0.00  0.00    +0.000 A 
ATOM     18  C   UNL     1      -0.636  10.446  18.475  0.00  0.00    +0.000 A 
ENDBRANCH   5   9
BRANCH   8  19
ATOM     19  C   UNL     1       3.962   5.006  19.167  0.00  0.00    +0.000 C 
BRANCH  19  20
ATOM     20  C   UNL     1       3.289   3.678  18.869  0.00  0.00    +0.000 C 
ATOM     21  O   UNL     1       3.216   2.774  19.708  0.00  0.00    +0.000 OA
BRANCH  20  22
ATOM     22  C   UNL     1       2.718   3.574  17.466  0.00  0.00    +0.000 C 
ATOM     23  F   UNL     1       1.572   4.297  17.323  0.00  0.00    +0.000 F 
ATOM     24  F   UNL     1       3.574   4.037  16.516  0.00  0.00    +0.000 F 
ATOM     25  F   UNL     1       2.402   2.297  17.123  0.00  0.00    +0.000 F 
ENDBRANCH  20  22
ENDBRANCH  19  20
ENDBRANCH   8  19
TORSDOF 4
ENDMDL
MODEL 9
REMARK VINA RESULT:      -7.7      4.704      7.968
REMARK  Name = 
REMARK  4 active torsions:
REMARK  status: ('A' for Active; 'I' for Inactive)
REMARK    1  A    between atoms: C_5  and  C_6
REMARK    2  A    between atoms: N_18  and  C_19
REMARK    3  A    between atoms: C_19  and  C_20
REMARK    4  A    between atoms: C_20  and  C_22
REMARK                            x       y       z     vdW  Elec       q    Type
REMARK                         _______ _______ _______ _____ _____    ______ ____
ROOT
ATOM      1  O   UNL     1       2.151   5.199  21.157  0.00  0.00    +0.000 OA
ATOM      2  C   UNL     1       2.208   6.097  20.328  0.00  0.00    +0.000 C 
ATOM      3  S   UNL     1       1.240   7.550  20.413  0.00  0.00    +0.000 S 
ATOM      4  C   UNL     1       1.903   8.176  18.950  0.00  0.00    +0.000 C 
ATOM      5  C   UNL     1       1.627   9.356  18.376  0.00  0.00    +0.000 C 
ATOM      6  C   UNL     1       2.899   7.217  18.394  0.00  0.00    +0.000 C 
ATOM      7  O   UNL     1       3.528   7.392  17.362  0.00  0.00    +0.000 OA
ATOM      8  N   UNL     1       3.030   6.140  19.239  0.00  0.00    +0.000 N 
ENDROOT
BRANCH   5   9
ATOM      9  C   UNL     1       0.699  10.349  18.950  0.00  0.00    +0.000 A 
ATOM     10  C   UNL     1       1.171  11.116  20.026  0.00  0.00    +0.000 A 
ATOM     11  C   UNL     1       0.329  12.009  20.682  0.00  0.00    +0.000 A 
ATOM     12  C   UNL     1      -0.992  12.151  20.263  0.00  0.00    +0.000 A 
ATOM     13  C   UNL     1      -1.485  11.414  19.176  0.00  0.00    +0.000 A 
ATOM     14  C   UNL     1      -2.818  11.575  18.764  0.00  0.00    +0.000 A 
ATOM     15  C   UNL     1      -3.329  10.852  17.686  0.00  0.00    +0.000 A 
ATOM     16  C   UNL     1      -2.511   9.960  17.006  0.00  0.00    +0.000 A 
ATOM     17  C   UNL     1      -1.184   9.785  17.404  0.00  0.00    +0.000 A 
ATOM     18  C   UNL     1      -0.639  10.500  18.497  0.00  0.00    +0.000 A 
ENDBRANCH   5   9
BRANCH   8  19
ATOM     19  C   UNL     1       3.995   5.082  19.004  0.00  0.00    +0.000 C 
BRANCH  19  20
ATOM     20  C   UNL     1       3.371   3.878  18.321  0.00  0.00    +0.000 C 
ATOM     21  O   UNL     1       2.737   3.975  17.266  0.00  0.00    +0.000 OA
BRANCH  20  22
ATOM     22  C   UNL     1       3.603   2.565  19.048  0.00  0.00    +0.000 C 
ATOM     23  F   UNL     1       3.711   1.514  18.187  0.00  0.00    +0.000 F 
ATOM     24  F   UNL     1       4.747   2.567  19.783  0.00  0.00    +0.000 F 
ATOM     25  F   UNL     1       2.589   2.252  19.898  0.00  0.00    +0.000 F 
ENDBRANCH  20  22
ENDBRANCH  19  20
ENDBRANCH   8  19
TORSDOF 4
ENDMDL
