MODEL 1
REMARK VINA RESULT:      -7.4      0.000      0.000
REMARK  Name = 
REMARK  7 active torsions:
REMARK  status: ('A' for Active; 'I' for Inactive)
REMARK    1  A    between atoms: C_1  and  C_2
REMARK    2  A    between atoms: C_8  and  N_9
REMARK    3  A    between atoms: C_10  and  C_12
REMARK    4  A    between atoms: C_12  and  C_13
REMARK    5  A    between atoms: C_13  and  C_14
REMARK    6  A    between atoms: C_14  and  C_15
REMARK    7  A    between atoms: C_15  and  O_17
REMARK                            x       y       z     vdW  Elec       q    Type
REMARK                         _______ _______ _______ _____ _____    ______ ____
ROOT
ATOM      1  N   UNL     1       2.659   6.573  19.900  0.00  0.00    +0.000 N 
ATOM      2  C   UNL     1       1.905   5.509  20.374  0.00  0.00    +0.000 C 
ATOM      3  O   UNL     1       0.678   5.486  20.440  0.00  0.00    +0.000 OA
ATOM      4  H   UNL     1       3.654   6.430  19.768  0.00  0.00    +0.000 HD
ENDROOT
BRANCH   1  12
ATOM      5  C   UNL     1      -0.247   9.604  23.520  0.00  0.00    +0.000 C 
ATOM      6  C   UNL     1       0.276   9.550  22.132  0.00  0.00    +0.000 A 
ATOM      7  C   UNL     1       0.163  10.437  21.088  0.00  0.00    +0.000 A 
ATOM      8  C   UNL     1       0.841   9.877  19.969  0.00  0.00    +0.000 A 
ATOM      9  C   UNL     1       1.052  10.336  18.655  0.00  0.00    +0.000 A 
ATOM     10  C   UNL     1       1.769   9.542  17.770  0.00  0.00    +0.000 A 
ATOM     11  C   UNL     1       2.274   8.312  18.179  0.00  0.00    +0.000 A 
ATOM     12  C   UNL     1       2.113   7.818  19.485  0.00  0.00    +0.000 A 
ATOM     13  C   UNL     1       1.359   8.638  20.361  0.00  0.00    +0.000 A 
ATOM     14  N   UNL     1       1.009   8.476  21.682  0.00  0.00    +0.000 N 
ATOM     15  H   UNL     1       1.260   7.684  22.250  0.00  0.00    +0.000 HD
ENDBRANCH   1  12
BRANCH   2  16
ATOM     16  C   UNL     1       2.687   4.264  20.772  0.00  0.00    +0.000 C 
BRANCH  16  17
ATOM     17  C   UNL     1       3.192   3.469  19.531  0.00  0.00    +0.000 C 
ATOM     18  C   UNL     1       2.395   2.162  19.335  0.00  0.00    +0.000 C 
ATOM     19  C   UNL     1       2.480   1.833  17.847  0.00  0.00    +0.000 C 
ATOM     20  C   UNL     1       2.620   3.165  17.127  0.00  0.00    +0.000 C 
ATOM     21  C   UNL     1       2.832   4.214  18.213  0.00  0.00    +0.000 C 
BRANCH  17  22
ATOM     22  C   UNL     1       4.725   3.224  19.608  0.00  0.00    +0.000 C 
BRANCH  22  23
ATOM     23  C   UNL     1       5.623   4.355  19.137  0.00  0.00    +0.000 C 
ATOM     24  O   UNL     1       5.651   5.491  19.583  0.00  0.00    +0.000 OA
BRANCH  23  25
ATOM     25  O   UNL     1       6.393   3.987  18.085  0.00  0.00    +0.000 OA
ATOM     26  H   UNL     1       6.080   4.335  17.226  0.00  0.00    +0.000 HD
ENDBRANCH  23  25
ENDBRANCH  22  23
ENDBRANCH  17  22
ENDBRANCH  16  17
ENDBRANCH   2  16
TORSDOF 6
ENDMDL
MODEL 2
REMARK VINA RESULT:      -7.2      2.797      5.275
REMARK  Name = 
REMARK  7 active torsions:
REMARK  status: ('A' for Active; 'I' for Inactive)
REMARK    1  A    between atoms: C_1  and  C_2
REMARK    2  A    between atoms: C_8  and  N_9
REMARK    3  A    between atoms: C_10  and  C_12
REMARK    4  A    between atoms: C_12  and  C_13
REMARK    5  A    between atoms: C_13  and  C_14
REMARK    6  A    between atoms: C_14  and  C_15
REMARK    7  A    between atoms: C_15  and  O_17
REMARK                            x       y       z     vdW  Elec       q    Type
REMARK                         _______ _______ _______ _____ _____    ______ ____
ROOT
ATOM      1  N   UNL     1       5.110   3.678  18.552  0.00  0.00    +0.000 N 
ATOM      2  C   UNL     1       6.225   4.501  18.615  0.00  0.00    +0.000 C 
ATOM      3  O   UNL     1       6.493   5.261  19.544  0.00  0.00    +0.000 OA
ATOM      4  H   UNL     1       5.062   2.999  17.802  0.00  0.00    +0.000 HD
ENDROOT
BRANCH   1  12
ATOM      5  C   UNL     1       1.967   8.180  19.318  0.00  0.00    +0.000 C 
ATOM      6  C   UNL     1       2.201   6.780  19.752  0.00  0.00    +0.000 A 
ATOM      7  C   UNL     1       1.568   6.007  20.696  0.00  0.00    +0.000 A 
ATOM      8  C   UNL     1       2.214   4.739  20.722  0.00  0.00    +0.000 A 
ATOM      9  C   UNL     1       1.991   3.572  21.476  0.00  0.00    +0.000 A 
ATOM     10  C   UNL     1       2.811   2.469  21.270  0.00  0.00    +0.000 A 
ATOM     11  C   UNL     1       3.833   2.519  20.329  0.00  0.00    +0.000 A 
ATOM     12  C   UNL     1       4.082   3.649  19.532  0.00  0.00    +0.000 A 
ATOM     13  C   UNL     1       3.246   4.768  19.778  0.00  0.00    +0.000 A 
ATOM     14  N   UNL     1       3.203   6.016  19.199  0.00  0.00    +0.000 N 
ATOM     15  H   UNL     1       3.815   6.329  18.464  0.00  0.00    +0.000 HD
ENDBRANCH   1  12
BRANCH   2  16
ATOM     16  C   UNL     1       7.208   4.380  17.457  0.00  0.00    +0.000 C 
BRANCH  16  17
ATOM     17  C   UNL     1       6.568   4.794  16.099  0.00  0.00    +0.000 C 
ATOM     18  C   UNL     1       7.644   5.094  15.035  0.00  0.00    +0.000 C 
ATOM     19  C   UNL     1       6.986   4.833  13.682  0.00  0.00    +0.000 C 
ATOM     20  C   UNL     1       5.932   3.764  13.924  0.00  0.00    +0.000 C 
ATOM     21  C   UNL     1       5.850   3.583  15.436  0.00  0.00    +0.000 C 
BRANCH  17  22
ATOM     22  C   UNL     1       5.573   5.973  16.286  0.00  0.00    +0.000 C 
BRANCH  22  23
ATOM     23  C   UNL     1       6.096   7.202  17.011  0.00  0.00    +0.000 C 
ATOM     24  O   UNL     1       7.199   7.706  16.875  0.00  0.00    +0.000 OA
BRANCH  23  25
ATOM     25  O   UNL     1       5.203   7.681  17.909  0.00  0.00    +0.000 OA
ATOM     26  H   UNL     1       5.488   7.584  18.839  0.00  0.00    +0.000 HD
ENDBRANCH  23  25
ENDBRANCH  22  23
ENDBRANCH  17  22
ENDBRANCH  16  17
ENDBRANCH   2  16
TORSDOF 6
ENDMDL
MODEL 3
REMARK VINA RESULT:      -7.2      1.132      2.536
REMARK  Name = 
REMARK  7 active torsions:
REMARK  status: ('A' for Active; 'I' for Inactive)
REMARK    1  A    between atoms: C_1  and  C_2
REMARK    2  A    between atoms: C_8  and  N_9
REMARK    3  A    between atoms: C_10  and  C_12
REMARK    4  A    between atoms: C_12  and  C_13
REMARK    5  A    between atoms: C_13  and  C_14
REMARK    6  A    between atoms: C_14  and  C_15
REMARK    7  A    between atoms: C_15  and  O_17
REMARK                            x       y       z     vdW  Elec       q    Type
REMARK                         _______ _______ _______ _____ _____    ______ ____
ROOT
ATOM      1  N   UNL     1       2.792   6.471  19.876  0.00  0.00    +0.000 N 
ATOM      2  C   UNL     1       3.849   5.823  19.252  0.00  0.00    +0.000 C 
ATOM      3  O   UNL     1       4.444   6.236  18.259  0.00  0.00    +0.000 OA
ATOM      4  H   UNL     1       2.467   6.104  20.763  0.00  0.00    +0.000 HD
ENDROOT
BRANCH   1  12
ATOM      5  C   UNL     1      -0.196   9.572  23.368  0.00  0.00    +0.000 C 
ATOM      6  C   UNL     1       0.323   9.471  21.981  0.00  0.00    +0.000 A 
ATOM      7  C   UNL     1       0.179  10.305  20.898  0.00  0.00    +0.000 A 
ATOM      8  C   UNL     1       0.870   9.715  19.803  0.00  0.00    +0.000 A 
ATOM      9  C   UNL     1       1.062  10.120  18.468  0.00  0.00    +0.000 A 
ATOM     10  C   UNL     1       1.801   9.308  17.616  0.00  0.00    +0.000 A 
ATOM     11  C   UNL     1       2.346   8.116  18.080  0.00  0.00    +0.000 A 
ATOM     12  C   UNL     1       2.205   7.677  19.407  0.00  0.00    +0.000 A 
ATOM     13  C   UNL     1       1.429   8.513  20.249  0.00  0.00    +0.000 A 
ATOM     14  N   UNL     1       1.089   8.400  21.578  0.00  0.00    +0.000 N 
ATOM     15  H   UNL     1       1.366   7.644  22.180  0.00  0.00    +0.000 HD
ENDBRANCH   1  12
BRANCH   2  16
ATOM     16  C   UNL     1       4.327   4.538  19.916  0.00  0.00    +0.000 C 
BRANCH  16  17
ATOM     17  C   UNL     1       3.450   3.313  19.520  0.00  0.00    +0.000 C 
ATOM     18  C   UNL     1       2.844   3.484  18.111  0.00  0.00    +0.000 C 
ATOM     19  C   UNL     1       2.602   2.073  17.580  0.00  0.00    +0.000 C 
ATOM     20  C   UNL     1       3.649   1.189  18.238  0.00  0.00    +0.000 C 
ATOM     21  C   UNL     1       4.334   2.053  19.292  0.00  0.00    +0.000 C 
BRANCH  17  22
ATOM     22  C   UNL     1       2.371   3.025  20.600  0.00  0.00    +0.000 C 
BRANCH  22  23
ATOM     23  C   UNL     1       0.989   3.610  20.360  0.00  0.00    +0.000 C 
ATOM     24  O   UNL     1       0.653   4.769  20.541  0.00  0.00    +0.000 OA
BRANCH  23  25
ATOM     25  O   UNL     1       0.102   2.669  19.959  0.00  0.00    +0.000 OA
ATOM     26  H   UNL     1      -0.407   2.920  19.162  0.00  0.00    +0.000 HD
ENDBRANCH  23  25
ENDBRANCH  22  23
ENDBRANCH  17  22
ENDBRANCH  16  17
ENDBRANCH   2  16
TORSDOF 6
ENDMDL
MODEL 4
REMARK VINA RESULT:      -7.1      3.006      5.486
REMARK  Name = 
REMARK  7 active torsions:
REMARK  status: ('A' for Active; 'I' for Inactive)
REMARK    1  A    between atoms: C_1  and  C_2
REMARK    2  A    between atoms: C_8  and  N_9
REMARK    3  A    between atoms: C_10  and  C_12
REMARK    4  A    between atoms: C_12  and  C_13
REMARK    5  A    between atoms: C_13  and  C_14
REMARK    6  A    between atoms: C_14  and  C_15
REMARK    7  A    between atoms: C_15  and  O_17
REMARK                            x       y       z     vdW  Elec       q    Type
REMARK                         _______ _______ _______ _____ _____    ______ ____
ROOT
ATOM      1  N   UNL     1       4.826   3.525  18.503  0.00  0.00    +0.000 N 
ATOM      2  C   UNL     1       4.498   3.453  17.156  0.00  0.00    +0.000 C 
ATOM      3  O   UNL     1       3.354   3.475  16.705  0.00  0.00    +0.000 OA
ATOM      4  H   UNL     1       5.803   3.632  18.749  0.00  0.00    +0.000 HD
ENDROOT
BRANCH   1  12
ATOM      5  C   UNL     1       1.960   8.188  19.388  0.00  0.00    +0.000 C 
ATOM      6  C   UNL     1       2.162   6.788  19.838  0.00  0.00    +0.000 A 
ATOM      7  C   UNL     1       1.566   6.067  20.845  0.00  0.00    +0.000 A 
ATOM      8  C   UNL     1       2.152   4.770  20.854  0.00  0.00    +0.000 A 
ATOM      9  C   UNL     1       1.933   3.631  21.651  0.00  0.00    +0.000 A 
ATOM     10  C   UNL     1       2.683   2.486  21.412  0.00  0.00    +0.000 A 
ATOM     11  C   UNL     1       3.633   2.467  20.397  0.00  0.00    +0.000 A 
ATOM     12  C   UNL     1       3.874   3.567  19.556  0.00  0.00    +0.000 A 
ATOM     13  C   UNL     1       3.111   4.729  19.835  0.00  0.00    +0.000 A 
ATOM     14  N   UNL     1       3.083   5.965  19.231  0.00  0.00    +0.000 N 
ATOM     15  H   UNL     1       3.651   6.233  18.446  0.00  0.00    +0.000 HD
ENDBRANCH   1  12
BRANCH   2  16
ATOM     16  C   UNL     1       5.671   3.413  16.186  0.00  0.00    +0.000 C 
BRANCH  16  17
ATOM     17  C   UNL     1       6.442   4.766  16.143  0.00  0.00    +0.000 C 
ATOM     18  C   UNL     1       5.507   5.959  16.436  0.00  0.00    +0.000 C 
ATOM     19  C   UNL     1       6.393   7.061  17.009  0.00  0.00    +0.000 C 
ATOM     20  C   UNL     1       7.545   6.357  17.709  0.00  0.00    +0.000 C 
ATOM     21  C   UNL     1       7.423   4.881  17.346  0.00  0.00    +0.000 C 
BRANCH  17  22
ATOM     22  C   UNL     1       7.212   4.930  14.803  0.00  0.00    +0.000 C 
BRANCH  22  23
ATOM     23  C   UNL     1       6.519   4.422  13.550  0.00  0.00    +0.000 C 
ATOM     24  O   UNL     1       5.385   3.976  13.481  0.00  0.00    +0.000 OA
BRANCH  23  25
ATOM     25  O   UNL     1       7.334   4.458  12.469  0.00  0.00    +0.000 OA
ATOM     26  H   UNL     1       8.130   3.896  12.556  0.00  0.00    +0.000 HD
ENDBRANCH  23  25
ENDBRANCH  22  23
ENDBRANCH  17  22
ENDBRANCH  16  17
ENDBRANCH   2  16
TORSDOF 6
ENDMDL
MODEL 5
REMARK VINA RESULT:      -7.1      2.742      5.227
REMARK  Name = 
REMARK  7 active torsions:
REMARK  status: ('A' for Active; 'I' for Inactive)
REMARK    1  A    between atoms: C_1  and  C_2
REMARK    2  A    between atoms: C_8  and  N_9
REMARK    3  A    between atoms: C_10  and  C_12
REMARK    4  A    between atoms: C_12  and  C_13
REMARK    5  A    between atoms: C_13  and  C_14
REMARK    6  A    between atoms: C_14  and  C_15
REMARK    7  A    between atoms: C_15  and  O_17
REMARK                            x       y       z     vdW  Elec       q    Type
REMARK                         _______ _______ _______ _____ _____    ______ ____
ROOT
ATOM      1  N   UNL     1       5.202   3.707  18.817  0.00  0.00    +0.000 N 
ATOM      2  C   UNL     1       6.273   4.580  18.955  0.00  0.00    +0.000 C 
ATOM      3  O   UNL     1       6.435   5.358  19.893  0.00  0.00    +0.000 OA
ATOM      4  H   UNL     1       5.241   3.021  18.073  0.00  0.00    +0.000 HD
ENDROOT
BRANCH   1  12
ATOM      5  C   UNL     1       1.945   8.150  19.445  0.00  0.00    +0.000 C 
ATOM      6  C   UNL     1       2.167   6.743  19.864  0.00  0.00    +0.000 A 
ATOM      7  C   UNL     1       1.475   5.940  20.739  0.00  0.00    +0.000 A 
ATOM      8  C   UNL     1       2.135   4.680  20.784  0.00  0.00    +0.000 A 
ATOM      9  C   UNL     1       1.873   3.492  21.493  0.00  0.00    +0.000 A 
ATOM     10  C   UNL     1       2.722   2.405  21.325  0.00  0.00    +0.000 A 
ATOM     11  C   UNL     1       3.811   2.490  20.465  0.00  0.00    +0.000 A 
ATOM     12  C   UNL     1       4.104   3.643  19.715  0.00  0.00    +0.000 A 
ATOM     13  C   UNL     1       3.235   4.744  19.922  0.00  0.00    +0.000 A 
ATOM     14  N   UNL     1       3.218   6.005  19.371  0.00  0.00    +0.000 N 
ATOM     15  H   UNL     1       3.879   6.343  18.692  0.00  0.00    +0.000 HD
ENDBRANCH   1  12
BRANCH   2  16
ATOM     16  C   UNL     1       7.347   4.491  17.878  0.00  0.00    +0.000 C 
BRANCH  16  17
ATOM     17  C   UNL     1       6.998   5.358  16.632  0.00  0.00    +0.000 C 
ATOM     18  C   UNL     1       6.988   4.513  15.340  0.00  0.00    +0.000 C 
ATOM     19  C   UNL     1       6.045   5.227  14.375  0.00  0.00    +0.000 C 
ATOM     20  C   UNL     1       5.021   5.947  15.238  0.00  0.00    +0.000 C 
ATOM     21  C   UNL     1       5.512   5.817  16.676  0.00  0.00    +0.000 C 
BRANCH  17  22
ATOM     22  C   UNL     1       7.939   6.591  16.527  0.00  0.00    +0.000 C 
BRANCH  22  23
ATOM     23  C   UNL     1       7.760   7.680  17.571  0.00  0.00    +0.000 C 
ATOM     24  O   UNL     1       7.187   8.746  17.414  0.00  0.00    +0.000 OA
BRANCH  23  25
ATOM     25  O   UNL     1       8.372   7.370  18.739  0.00  0.00    +0.000 OA
ATOM     26  H   UNL     1       9.327   7.178  18.644  0.00  0.00    +0.000 HD
ENDBRANCH  23  25
ENDBRANCH  22  23
ENDBRANCH  17  22
ENDBRANCH  16  17
ENDBRANCH   2  16
TORSDOF 6
ENDMDL
MODEL 6
REMARK VINA RESULT:      -7.0      1.599      2.180
REMARK  Name = 
REMARK  7 active torsions:
REMARK  status: ('A' for Active; 'I' for Inactive)
REMARK    1  A    between atoms: C_1  and  C_2
REMARK    2  A    between atoms: C_8  and  N_9
REMARK    3  A    between atoms: C_10  and  C_12
REMARK    4  A    between atoms: C_12  and  C_13
REMARK    5  A    between atoms: C_13  and  C_14
REMARK    6  A    between atoms: C_14  and  C_15
REMARK    7  A    between atoms: C_15  and  O_17
REMARK                            x       y       z     vdW  Elec       q    Type
REMARK                         _______ _______ _______ _____ _____    ______ ____
ROOT
ATOM      1  N   UNL     1       2.705   6.878  19.960  0.00  0.00    +0.000 N 
ATOM      2  C   UNL     1       3.346   5.944  19.158  0.00  0.00    +0.000 C 
ATOM      3  O   UNL     1       3.476   6.030  17.939  0.00  0.00    +0.000 OA
ATOM      4  H   UNL     1       2.775   6.769  20.965  0.00  0.00    +0.000 HD
ENDROOT
BRANCH   1  12
ATOM      5  C   UNL     1      -0.578   9.784  23.354  0.00  0.00    +0.000 C 
ATOM      6  C   UNL     1      -0.019   9.711  21.981  0.00  0.00    +0.000 A 
ATOM      7  C   UNL     1      -0.195  10.526  20.888  0.00  0.00    +0.000 A 
ATOM      8  C   UNL     1       0.563   9.979  19.814  0.00  0.00    +0.000 A 
ATOM      9  C   UNL     1       0.759  10.388  18.481  0.00  0.00    +0.000 A 
ATOM     10  C   UNL     1       1.574   9.624  17.655  0.00  0.00    +0.000 A 
ATOM     11  C   UNL     1       2.189   8.476  18.140  0.00  0.00    +0.000 A 
ATOM     12  C   UNL     1       2.047   8.037  19.468  0.00  0.00    +0.000 A 
ATOM     13  C   UNL     1       1.193   8.822  20.284  0.00  0.00    +0.000 A 
ATOM     14  N   UNL     1       0.829   8.694  21.605  0.00  0.00    +0.000 N 
ATOM     15  H   UNL     1       1.145   7.963  22.220  0.00  0.00    +0.000 HD
ENDBRANCH   1  12
BRANCH   2  16
ATOM     16  C   UNL     1       3.986   4.769  19.886  0.00  0.00    +0.000 C 
BRANCH  16  17
ATOM     17  C   UNL     1       3.004   3.571  20.040  0.00  0.00    +0.000 C 
ATOM     18  C   UNL     1       2.697   3.279  21.525  0.00  0.00    +0.000 C 
ATOM     19  C   UNL     1       1.323   2.615  21.550  0.00  0.00    +0.000 C 
ATOM     20  C   UNL     1       0.568   3.158  20.347  0.00  0.00    +0.000 C 
ATOM     21  C   UNL     1       1.583   3.952  19.532  0.00  0.00    +0.000 C 
BRANCH  17  22
ATOM     22  C   UNL     1       3.527   2.317  19.285  0.00  0.00    +0.000 C 
BRANCH  22  23
ATOM     23  C   UNL     1       3.421   2.338  17.769  0.00  0.00    +0.000 C 
ATOM     24  O   UNL     1       2.444   2.024  17.108  0.00  0.00    +0.000 OA
BRANCH  23  25
ATOM     25  O   UNL     1       4.586   2.703  17.183  0.00  0.00    +0.000 OA
ATOM     26  H   UNL     1       4.471   3.281  16.402  0.00  0.00    +0.000 HD
ENDBRANCH  23  25
ENDBRANCH  22  23
ENDBRANCH  17  22
ENDBRANCH  16  17
ENDBRANCH   2  16
TORSDOF 6
ENDMDL
MODEL 7
REMARK VINA RESULT:      -6.9      1.295      1.393
REMARK  Name = 
REMARK  7 active torsions:
REMARK  status: ('A' for Active; 'I' for Inactive)
REMARK    1  A    between atoms: C_1  and  C_2
REMARK    2  A    between atoms: C_8  and  N_9
REMARK    3  A    between atoms: C_10  and  C_12
REMARK    4  A    between atoms: C_12  and  C_13
REMARK    5  A    between atoms: C_13  and  C_14
REMARK    6  A    between atoms: C_14  and  C_15
REMARK    7  A    between atoms: C_15  and  O_17
REMARK                            x       y       z     vdW  Elec       q    Type
REMARK                         _______ _______ _______ _____ _____    ______ ____
ROOT
ATOM      1  N   UNL     1       2.671   6.681  19.879  0.00  0.00    +0.000 N 
ATOM      2  C   UNL     1       1.978   5.593  20.391  0.00  0.00    +0.000 C 
ATOM      3  O   UNL     1       0.755   5.518  20.494  0.00  0.00    +0.000 OA
ATOM      4  H   UNL     1       3.666   6.579  19.719  0.00  0.00    +0.000 HD
ENDROOT
BRANCH   1  12
ATOM      5  C   UNL     1      -0.254   9.641  23.542  0.00  0.00    +0.000 C 
ATOM      6  C   UNL     1       0.228   9.588  22.140  0.00  0.00    +0.000 A 
ATOM      7  C   UNL     1       0.045  10.452  21.087  0.00  0.00    +0.000 A 
ATOM      8  C   UNL     1       0.713   9.904  19.956  0.00  0.00    +0.000 A 
ATOM      9  C   UNL     1       0.864  10.351  18.630  0.00  0.00    +0.000 A 
ATOM     10  C   UNL     1       1.588   9.574  17.734  0.00  0.00    +0.000 A 
ATOM     11  C   UNL     1       2.158   8.374  18.146  0.00  0.00    +0.000 A 
ATOM     12  C   UNL     1       2.058   7.894  19.463  0.00  0.00    +0.000 A 
ATOM     13  C   UNL     1       1.296   8.695  20.350  0.00  0.00    +0.000 A 
ATOM     14  N   UNL     1       0.993   8.539  21.684  0.00  0.00    +0.000 N 
ATOM     15  H   UNL     1       1.296   7.768  22.255  0.00  0.00    +0.000 HD
ENDBRANCH   1  12
BRANCH   2  16
ATOM     16  C   UNL     1       2.826   4.389  20.783  0.00  0.00    +0.000 C 
BRANCH  16  17
ATOM     17  C   UNL     1       3.174   3.495  19.556  0.00  0.00    +0.000 C 
ATOM     18  C   UNL     1       2.172   2.331  19.402  0.00  0.00    +0.000 C 
ATOM     19  C   UNL     1       2.178   1.960  17.921  0.00  0.00    +0.000 C 
ATOM     20  C   UNL     1       2.522   3.234  17.167  0.00  0.00    +0.000 C 
ATOM     21  C   UNL     1       2.919   4.259  18.225  0.00  0.00    +0.000 C 
BRANCH  17  22
ATOM     22  C   UNL     1       4.648   3.005  19.621  0.00  0.00    +0.000 C 
BRANCH  22  23
ATOM     23  C   UNL     1       4.899   1.682  20.324  0.00  0.00    +0.000 C 
ATOM     24  O   UNL     1       5.134   1.528  21.512  0.00  0.00    +0.000 OA
BRANCH  23  25
ATOM     25  O   UNL     1       4.893   0.639  19.461  0.00  0.00    +0.000 OA
ATOM     26  H   UNL     1       5.570   0.705  18.758  0.00  0.00    +0.000 HD
ENDBRANCH  23  25
ENDBRANCH  22  23
ENDBRANCH  17  22
ENDBRANCH  16  17
ENDBRANCH   2  16
TORSDOF 6
ENDMDL
MODEL 8
REMARK VINA RESULT:      -6.9      2.301      7.151
REMARK  Name = 
REMARK  7 active torsions:
REMARK  status: ('A' for Active; 'I' for Inactive)
REMARK    1  A    between atoms: C_1  and  C_2
REMARK    2  A    between atoms: C_8  and  N_9
REMARK    3  A    between atoms: C_10  and  C_12
REMARK    4  A    between atoms: C_12  and  C_13
REMARK    5  A    between atoms: C_13  and  C_14
REMARK    6  A    between atoms: C_14  and  C_15
REMARK    7  A    between atoms: C_15  and  O_17
REMARK                            x       y       z     vdW  Elec       q    Type
REMARK                         _______ _______ _______ _____ _____    ______ ____
ROOT
ATOM      1  N   UNL     1       2.235   7.510  19.924  0.00  0.00    +0.000 N 
ATOM      2  C   UNL     1       1.825   8.408  18.948  0.00  0.00    +0.000 C 
ATOM      3  O   UNL     1       1.450   8.103  17.818  0.00  0.00    +0.000 OA
ATOM      4  H   UNL     1       2.396   7.864  20.859  0.00  0.00    +0.000 HD
ENDROOT
BRANCH   1  12
ATOM      5  C   UNL     1       5.398   5.587  15.796  0.00  0.00    +0.000 C 
ATOM      6  C   UNL     1       4.520   5.201  16.928  0.00  0.00    +0.000 A 
ATOM      7  C   UNL     1       4.135   3.966  17.393  0.00  0.00    +0.000 A 
ATOM      8  C   UNL     1       3.263   4.173  18.499  0.00  0.00    +0.000 A 
ATOM      9  C   UNL     1       2.581   3.285  19.353  0.00  0.00    +0.000 A 
ATOM     10  C   UNL     1       1.783   3.803  20.366  0.00  0.00    +0.000 A 
ATOM     11  C   UNL     1       1.664   5.179  20.533  0.00  0.00    +0.000 A 
ATOM     12  C   UNL     1       2.341   6.107  19.724  0.00  0.00    +0.000 A 
ATOM     13  C   UNL     1       3.131   5.553  18.686  0.00  0.00    +0.000 A 
ATOM     14  N   UNL     1       3.916   6.147  17.724  0.00  0.00    +0.000 N 
ATOM     15  H   UNL     1       4.042   7.140  17.618  0.00  0.00    +0.000 HD
ENDBRANCH   1  12
BRANCH   2  16
ATOM     16  C   UNL     1       1.785   9.872  19.367  0.00  0.00    +0.000 C 
BRANCH  16  17
ATOM     17  C   UNL     1       0.419  10.261  20.006  0.00  0.00    +0.000 C 
ATOM     18  C   UNL     1       0.418  11.727  20.490  0.00  0.00    +0.000 C 
ATOM     19  C   UNL     1      -1.040  12.180  20.463  0.00  0.00    +0.000 C 
ATOM     20  C   UNL     1      -1.713  11.375  19.364  0.00  0.00    +0.000 C 
ATOM     21  C   UNL     1      -0.699  10.325  18.924  0.00  0.00    +0.000 C 
BRANCH  17  22
ATOM     22  C   UNL     1       0.023   9.264  21.130  0.00  0.00    +0.000 C 
BRANCH  22  23
ATOM     23  C   UNL     1       0.613   9.516  22.508  0.00  0.00    +0.000 C 
ATOM     24  O   UNL     1       0.035  10.012  23.462  0.00  0.00    +0.000 OA
BRANCH  23  25
ATOM     25  O   UNL     1       1.922   9.175  22.570  0.00  0.00    +0.000 OA
ATOM     26  H   UNL     1       2.098   8.243  22.331  0.00  0.00    +0.000 HD
ENDBRANCH  23  25
ENDBRANCH  22  23
ENDBRANCH  17  22
ENDBRANCH  16  17
ENDBRANCH   2  16
TORSDOF 6
ENDMDL
MODEL 9
REMARK VINA RESULT:      -6.9      2.806      5.306
REMARK  Name = 
REMARK  7 active torsions:
REMARK  status: ('A' for Active; 'I' for Inactive)
REMARK    1  A    between atoms: C_1  and  C_2
REMARK    2  A    between atoms: C_8  and  N_9
REMARK    3  A    between atoms: C_10  and  C_12
REMARK    4  A    between atoms: C_12  and  C_13
REMARK    5  A    between atoms: C_13  and  C_14
REMARK    6  A    between atoms: C_14  and  C_15
REMARK    7  A    between atoms: C_15  and  O_17
REMARK                            x       y       z     vdW  Elec       q    Type
REMARK                         _______ _______ _______ _____ _____    ______ ____
ROOT
ATOM      1  N   UNL     1       5.221   3.648  18.776  0.00  0.00    +0.000 N 
ATOM      2  C   UNL     1       6.258   4.566  18.852  0.00  0.00    +0.000 C 
ATOM      3  O   UNL     1       6.426   5.371  19.767  0.00  0.00    +0.000 OA
ATOM      4  H   UNL     1       5.258   2.948  18.045  0.00  0.00    +0.000 HD
ENDROOT
BRANCH   1  12
ATOM      5  C   UNL     1       1.930   8.035  19.593  0.00  0.00    +0.000 C 
ATOM      6  C   UNL     1       2.190   6.628  19.986  0.00  0.00    +0.000 A 
ATOM      7  C   UNL     1       1.548   5.806  20.882  0.00  0.00    +0.000 A 
ATOM      8  C   UNL     1       2.228   4.555  20.885  0.00  0.00    +0.000 A 
ATOM      9  C   UNL     1       2.014   3.356  21.591  0.00  0.00    +0.000 A 
ATOM     10  C   UNL     1       2.870   2.283  21.374  0.00  0.00    +0.000 A 
ATOM     11  C   UNL     1       3.919   2.394  20.469  0.00  0.00    +0.000 A 
ATOM     12  C   UNL     1       4.163   3.558  19.720  0.00  0.00    +0.000 A 
ATOM     13  C   UNL     1       3.288   4.644  19.977  0.00  0.00    +0.000 A 
ATOM     14  N   UNL     1       3.230   5.910  19.440  0.00  0.00    +0.000 N 
ATOM     15  H   UNL     1       3.855   6.265  18.737  0.00  0.00    +0.000 HD
ENDBRANCH   1  12
BRANCH   2  16
ATOM     16  C   UNL     1       7.290   4.498  17.734  0.00  0.00    +0.000 C 
BRANCH  16  17
ATOM     17  C   UNL     1       6.737   5.064  16.392  0.00  0.00    +0.000 C 
ATOM     18  C   UNL     1       7.719   4.817  15.227  0.00  0.00    +0.000 C 
ATOM     19  C   UNL     1       6.871   4.780  13.959  0.00  0.00    +0.000 C 
ATOM     20  C   UNL     1       5.501   4.273  14.381  0.00  0.00    +0.000 C 
ATOM     21  C   UNL     1       5.515   4.233  15.905  0.00  0.00    +0.000 C 
BRANCH  17  22
ATOM     22  C   UNL     1       6.348   6.562  16.534  0.00  0.00    +0.000 C 
BRANCH  22  23
ATOM     23  C   UNL     1       4.907   6.927  16.221  0.00  0.00    +0.000 C 
ATOM     24  O   UNL     1       3.952   6.813  16.972  0.00  0.00    +0.000 OA
BRANCH  23  25
ATOM     25  O   UNL     1       4.758   7.363  14.947  0.00  0.00    +0.000 OA
ATOM     26  H   UNL     1       4.193   8.157  14.865  0.00  0.00    +0.000 HD
ENDBRANCH  23  25
ENDBRANCH  22  23
ENDBRANCH  17  22
ENDBRANCH  16  17
ENDBRANCH   2  16
TORSDOF 6
ENDMDL
