MODEL 1
REMARK VINA RESULT:      -8.3      0.000      0.000
REMARK  Name = 
REMARK  6 active torsions:
REMARK  status: ('A' for Active; 'I' for Inactive)
REMARK    1  A    between atoms: C_1  and  C_2
REMARK    2  A    between atoms: C_2  and  C_3
REMARK    3  A    between atoms: C_3  and  C_4
REMARK    4  A    between atoms: C_4  and  C_5
REMARK    5  A    between atoms: C_6  and  O_7
REMARK    6  A    between atoms: N_14  and  C_15
REMARK                            x       y       z     vdW  Elec       q    Type
REMARK                         _______ _______ _______ _____ _____    ______ ____
ROOT
ATOM      1  C   UNL     1       4.655   4.377  17.121  0.00  0.00    +0.000 A 
ATOM      2  C   UNL     1       3.977   3.320  17.613  0.00  0.00    +0.000 A 
ATOM      3  C   UNL     1       2.868   3.484  18.569  0.00  0.00    +0.000 A 
ATOM      4  C   UNL     1       2.167   2.399  19.107  0.00  0.00    +0.000 A 
ATOM      5  C   UNL     1       1.131   2.609  20.014  0.00  0.00    +0.000 A 
ATOM      6  C   UNL     1       0.822   3.907  20.359  0.00  0.00    +0.000 A 
ATOM      7  N   UNL     1       1.474   4.973  19.865  0.00  0.00    +0.000 NA
ATOM      8  C   UNL     1       2.484   4.761  18.977  0.00  0.00    +0.000 A 
ATOM      9  N   UNL     1       3.197   5.870  18.475  0.00  0.00    +0.000 N 
ATOM     10  C   UNL     1       4.228   5.759  17.551  0.00  0.00    +0.000 A 
ATOM     11  O   UNL     1       4.797   6.718  17.024  0.00  0.00    +0.000 OA
ENDROOT
BRANCH   9  12
ATOM     12  C   UNL     1       2.739   7.165  18.846  0.00  0.00    +0.000 A 
ATOM     13  C   UNL     1       2.199   8.002  17.850  0.00  0.00    +0.000 A 
ATOM     14  C   UNL     1       1.324   9.028  18.189  0.00  0.00    +0.000 A 
ATOM     15  C   UNL     1       0.991   9.147  19.524  0.00  0.00    +0.000 A 
ATOM     16  C   UNL     1       1.699   8.477  20.532  0.00  0.00    +0.000 A 
ATOM     17  C   UNL     1       2.576   7.464  20.207  0.00  0.00    +0.000 A 
ATOM     18  C   UNL     1       1.083   8.774  21.864  0.00  0.00    +0.000 C 
ATOM     19  C   UNL     1      -0.368   8.841  21.386  0.00  0.00    +0.000 C 
ATOM     20  C   UNL     1      -0.302   9.671  20.084  0.00  0.00    +0.000 C 
ENDBRANCH   9  12
BRANCH   2  21
ATOM     21  O   UNL     1       4.235   2.000  17.278  0.00  0.00    +0.000 OA
ATOM     22  H   UNL     1       3.513   1.643  16.738  0.00  0.00    +0.000 HD
ENDBRANCH   2  21
BRANCH   1  23
ATOM     23  C   UNL     1       5.791   4.333  16.130  0.00  0.00    +0.000 C 
BRANCH  23  24
ATOM     24  C   UNL     1       5.315   4.385  14.671  0.00  0.00    +0.000 C 
BRANCH  24  26
ATOM     25  C   UNL     1       5.915   3.333  12.470  0.00  0.00    +0.000 C 
ATOM     26  C   UNL     1       6.445   4.071  13.690  0.00  0.00    +0.000 C 
ENDBRANCH  24  26
ENDBRANCH  23  24
ENDBRANCH   1  23
TORSDOF 5
ENDMDL
MODEL 2
REMARK VINA RESULT:      -8.3      1.664      4.205
REMARK  Name = 
REMARK  6 active torsions:
REMARK  status: ('A' for Active; 'I' for Inactive)
REMARK    1  A    between atoms: C_1  and  C_2
REMARK    2  A    between atoms: C_2  and  C_3
REMARK    3  A    between atoms: C_3  and  C_4
REMARK    4  A    between atoms: C_4  and  C_5
REMARK    5  A    between atoms: C_6  and  O_7
REMARK    6  A    between atoms: N_14  and  C_15
REMARK                            x       y       z     vdW  Elec       q    Type
REMARK                         _______ _______ _______ _____ _____    ______ ____
ROOT
ATOM      1  C   UNL     1       2.695   3.641  17.998  0.00  0.00    +0.000 A 
ATOM      2  C   UNL     1       3.953   3.524  17.521  0.00  0.00    +0.000 A 
ATOM      3  C   UNL     1       4.831   4.694  17.349  0.00  0.00    +0.000 A 
ATOM      4  C   UNL     1       6.129   4.596  16.837  0.00  0.00    +0.000 A 
ATOM      5  C   UNL     1       6.917   5.735  16.688  0.00  0.00    +0.000 A 
ATOM      6  C   UNL     1       6.380   6.950  17.059  0.00  0.00    +0.000 A 
ATOM      7  N   UNL     1       5.138   7.083  17.554  0.00  0.00    +0.000 NA
ATOM      8  C   UNL     1       4.374   5.965  17.699  0.00  0.00    +0.000 A 
ATOM      9  N   UNL     1       3.056   6.095  18.187  0.00  0.00    +0.000 N 
ATOM     10  C   UNL     1       2.208   5.015  18.390  0.00  0.00    +0.000 A 
ATOM     11  O   UNL     1       1.092   5.094  18.909  0.00  0.00    +0.000 OA
ENDROOT
BRANCH   9  12
ATOM     12  C   UNL     1       2.640   7.389  18.607  0.00  0.00    +0.000 A 
ATOM     13  C   UNL     1       2.166   8.295  17.639  0.00  0.00    +0.000 A 
ATOM     14  C   UNL     1       1.324   9.340  18.003  0.00  0.00    +0.000 A 
ATOM     15  C   UNL     1       0.956   9.409  19.332  0.00  0.00    +0.000 A 
ATOM     16  C   UNL     1       1.605   8.662  20.325  0.00  0.00    +0.000 A 
ATOM     17  C   UNL     1       2.449   7.629  19.976  0.00  0.00    +0.000 A 
ATOM     18  C   UNL     1       0.961   8.921  21.653  0.00  0.00    +0.000 C 
ATOM     19  C   UNL     1      -0.470   9.072  21.138  0.00  0.00    +0.000 C 
ATOM     20  C   UNL     1      -0.331   9.960  19.881  0.00  0.00    +0.000 C 
ENDBRANCH   9  12
BRANCH   2  21
ATOM     21  O   UNL     1       4.543   2.325  17.157  0.00  0.00    +0.000 OA
ATOM     22  H   UNL     1       3.875   1.623  17.108  0.00  0.00    +0.000 HD
ENDBRANCH   2  21
BRANCH   1  23
ATOM     23  C   UNL     1       1.716   2.519  18.231  0.00  0.00    +0.000 C 
BRANCH  23  24
ATOM     24  C   UNL     1       1.957   1.778  19.554  0.00  0.00    +0.000 C 
BRANCH  24  26
ATOM     25  C   UNL     1       2.304   3.120  21.650  0.00  0.00    +0.000 C 
ATOM     26  C   UNL     1       1.276   2.476  20.732  0.00  0.00    +0.000 C 
ENDBRANCH  24  26
ENDBRANCH  23  24
ENDBRANCH   1  23
TORSDOF 5
ENDMDL
MODEL 3
REMARK VINA RESULT:      -8.1      0.993      1.727
REMARK  Name = 
REMARK  6 active torsions:
REMARK  status: ('A' for Active; 'I' for Inactive)
REMARK    1  A    between atoms: C_1  and  C_2
REMARK    2  A    between atoms: C_2  and  C_3
REMARK    3  A    between atoms: C_3  and  C_4
REMARK    4  A    between atoms: C_4  and  C_5
REMARK    5  A    between atoms: C_6  and  O_7
REMARK    6  A    between atoms: N_14  and  C_15
REMARK                            x       y       z     vdW  Elec       q    Type
REMARK                         _______ _______ _______ _____ _____    ______ ____
ROOT
ATOM      1  C   UNL     1       4.577   4.708  17.042  0.00  0.00    +0.000 A 
ATOM      2  C   UNL     1       3.966   3.618  17.552  0.00  0.00    +0.000 A 
ATOM      3  C   UNL     1       2.887   3.725  18.548  0.00  0.00    +0.000 A 
ATOM      4  C   UNL     1       2.257   2.606  19.103  0.00  0.00    +0.000 A 
ATOM      5  C   UNL     1       1.245   2.763  20.048  0.00  0.00    +0.000 A 
ATOM      6  C   UNL     1       0.889   4.044  20.413  0.00  0.00    +0.000 A 
ATOM      7  N   UNL     1       1.473   5.142  19.903  0.00  0.00    +0.000 NA
ATOM      8  C   UNL     1       2.459   4.981  18.977  0.00  0.00    +0.000 A 
ATOM      9  N   UNL     1       3.102   6.125  18.458  0.00  0.00    +0.000 N 
ATOM     10  C   UNL     1       4.102   6.067  17.496  0.00  0.00    +0.000 A 
ATOM     11  O   UNL     1       4.606   7.054  16.955  0.00  0.00    +0.000 OA
ENDROOT
BRANCH   9  12
ATOM     12  C   UNL     1       2.597   7.395  18.853  0.00  0.00    +0.000 A 
ATOM     13  C   UNL     1       2.021   8.229  17.875  0.00  0.00    +0.000 A 
ATOM     14  C   UNL     1       1.111   9.215  18.236  0.00  0.00    +0.000 A 
ATOM     15  C   UNL     1       0.781   9.299  19.574  0.00  0.00    +0.000 A 
ATOM     16  C   UNL     1       1.519   8.638  20.566  0.00  0.00    +0.000 A 
ATOM     17  C   UNL     1       2.431   7.665  20.220  0.00  0.00    +0.000 A 
ATOM     18  C   UNL     1       0.900   8.889  21.907  0.00  0.00    +0.000 C 
ATOM     19  C   UNL     1      -0.555   8.911  21.437  0.00  0.00    +0.000 C 
ATOM     20  C   UNL     1      -0.528   9.764  20.150  0.00  0.00    +0.000 C 
ENDBRANCH   9  12
BRANCH   2  21
ATOM     21  O   UNL     1       4.273   2.313  17.199  0.00  0.00    +0.000 OA
ATOM     22  H   UNL     1       4.232   2.207  16.236  0.00  0.00    +0.000 HD
ENDBRANCH   2  21
BRANCH   1  23
ATOM     23  C   UNL     1       5.676   4.721  16.010  0.00  0.00    +0.000 C 
BRANCH  23  24
ATOM     24  C   UNL     1       7.068   4.486  16.615  0.00  0.00    +0.000 C 
BRANCH  24  26
ATOM     25  C   UNL     1       7.722   6.252  18.279  0.00  0.00    +0.000 C 
ATOM     26  C   UNL     1       7.120   4.867  18.095  0.00  0.00    +0.000 C 
ENDBRANCH  24  26
ENDBRANCH  23  24
ENDBRANCH   1  23
TORSDOF 5
ENDMDL
MODEL 4
REMARK VINA RESULT:      -8.0      1.691      2.749
REMARK  Name = 
REMARK  6 active torsions:
REMARK  status: ('A' for Active; 'I' for Inactive)
REMARK    1  A    between atoms: C_1  and  C_2
REMARK    2  A    between atoms: C_2  and  C_3
REMARK    3  A    between atoms: C_3  and  C_4
REMARK    4  A    between atoms: C_4  and  C_5
REMARK    5  A    between atoms: C_6  and  O_7
REMARK    6  A    between atoms: N_14  and  C_15
REMARK                            x       y       z     vdW  Elec       q    Type
REMARK                         _______ _______ _______ _____ _____    ______ ____
ROOT
ATOM      1  C   UNL     1       5.050   5.530  17.112  0.00  0.00    +0.000 A 
ATOM      2  C   UNL     1       4.691   4.229  17.106  0.00  0.00    +0.000 A 
ATOM      3  C   UNL     1       3.436   3.766  17.723  0.00  0.00    +0.000 A 
ATOM      4  C   UNL     1       3.057   2.419  17.745  0.00  0.00    +0.000 A 
ATOM      5  C   UNL     1       1.863   2.033  18.348  0.00  0.00    +0.000 A 
ATOM      6  C   UNL     1       1.074   3.012  18.915  0.00  0.00    +0.000 A 
ATOM      7  N   UNL     1       1.406   4.314  18.914  0.00  0.00    +0.000 NA
ATOM      8  C   UNL     1       2.574   4.685  18.320  0.00  0.00    +0.000 A 
ATOM      9  N   UNL     1       2.950   6.045  18.341  0.00  0.00    +0.000 N 
ATOM     10  C   UNL     1       4.109   6.525  17.745  0.00  0.00    +0.000 A 
ATOM     11  O   UNL     1       4.406   7.719  17.663  0.00  0.00    +0.000 OA
ENDROOT
BRANCH   9  12
ATOM     12  C   UNL     1       2.020   6.972  18.888  0.00  0.00    +0.000 A 
ATOM     13  C   UNL     1       1.927   7.090  20.289  0.00  0.00    +0.000 A 
ATOM     14  C   UNL     1       1.432   8.253  20.867  0.00  0.00    +0.000 A 
ATOM     15  C   UNL     1       1.084   9.277  20.008  0.00  0.00    +0.000 A 
ATOM     16  C   UNL     1       0.954   9.079  18.626  0.00  0.00    +0.000 A 
ATOM     17  C   UNL     1       1.433   7.925  18.043  0.00  0.00    +0.000 A 
ATOM     18  C   UNL     1       0.606  10.375  17.961  0.00  0.00    +0.000 C 
ATOM     19  C   UNL     1       1.429  11.280  18.878  0.00  0.00    +0.000 C 
ATOM     20  C   UNL     1       1.135  10.751  20.300  0.00  0.00    +0.000 C 
ENDBRANCH   9  12
BRANCH   2  21
ATOM     21  O   UNL     1       5.438   3.214  16.529  0.00  0.00    +0.000 OA
ATOM     22  H   UNL     1       6.382   3.435  16.556  0.00  0.00    +0.000 HD
ENDBRANCH   2  21
BRANCH   1  23
ATOM     23  C   UNL     1       6.296   6.120  16.501  0.00  0.00    +0.000 C 
BRANCH  23  24
ATOM     24  C   UNL     1       7.560   5.832  17.322  0.00  0.00    +0.000 C 
BRANCH  24  26
ATOM     25  C   UNL     1       7.867   8.305  17.647  0.00  0.00    +0.000 C 
ATOM     26  C   UNL     1       7.853   6.945  18.329  0.00  0.00    +0.000 C 
ENDBRANCH  24  26
ENDBRANCH  23  24
ENDBRANCH   1  23
TORSDOF 5
ENDMDL
MODEL 5
REMARK VINA RESULT:      -7.9      2.981      4.903
REMARK  Name = 
REMARK  6 active torsions:
REMARK  status: ('A' for Active; 'I' for Inactive)
REMARK    1  A    between atoms: C_1  and  C_2
REMARK    2  A    between atoms: C_2  and  C_3
REMARK    3  A    between atoms: C_3  and  C_4
REMARK    4  A    between atoms: C_4  and  C_5
REMARK    5  A    between atoms: C_6  and  O_7
REMARK    6  A    between atoms: N_14  and  C_15
REMARK                            x       y       z     vdW  Elec       q    Type
REMARK                         _______ _______ _______ _____ _____    ______ ____
ROOT
ATOM      1  C   UNL     1       5.701   4.592  14.702  0.00  0.00    +0.000 A 
ATOM      2  C   UNL     1       6.724   5.157  15.377  0.00  0.00    +0.000 A 
ATOM      3  C   UNL     1       6.729   5.248  16.847  0.00  0.00    +0.000 A 
ATOM      4  C   UNL     1       7.769   5.849  17.564  0.00  0.00    +0.000 A 
ATOM      5  C   UNL     1       7.722   5.915  18.954  0.00  0.00    +0.000 A 
ATOM      6  C   UNL     1       6.627   5.374  19.594  0.00  0.00    +0.000 A 
ATOM      7  N   UNL     1       5.609   4.791  18.939  0.00  0.00    +0.000 NA
ATOM      8  C   UNL     1       5.663   4.727  17.580  0.00  0.00    +0.000 A 
ATOM      9  N   UNL     1       4.584   4.146  16.879  0.00  0.00    +0.000 N 
ATOM     10  C   UNL     1       4.556   4.015  15.497  0.00  0.00    +0.000 A 
ATOM     11  O   UNL     1       3.673   3.422  14.872  0.00  0.00    +0.000 OA
ENDROOT
BRANCH   9  12
ATOM     12  C   UNL     1       3.546   3.554  17.651  0.00  0.00    +0.000 A 
ATOM     13  C   UNL     1       3.621   2.178  17.945  0.00  0.00    +0.000 A 
ATOM     14  C   UNL     1       2.950   1.654  19.043  0.00  0.00    +0.000 A 
ATOM     15  C   UNL     1       2.256   2.549  19.834  0.00  0.00    +0.000 A 
ATOM     16  C   UNL     1       1.988   3.860  19.418  0.00  0.00    +0.000 A 
ATOM     17  C   UNL     1       2.640   4.388  18.324  0.00  0.00    +0.000 A 
ATOM     18  C   UNL     1       1.255   4.593  20.499  0.00  0.00    +0.000 C 
ATOM     19  C   UNL     1       1.959   3.928  21.682  0.00  0.00    +0.000 C 
ATOM     20  C   UNL     1       1.996   2.429  21.311  0.00  0.00    +0.000 C 
ENDBRANCH   9  12
BRANCH   2  21
ATOM     21  O   UNL     1       7.854   5.693  14.780  0.00  0.00    +0.000 OA
ATOM     22  H   UNL     1       8.331   5.007  14.287  0.00  0.00    +0.000 HD
ENDBRANCH   2  21
BRANCH   1  23
ATOM     23  C   UNL     1       5.594   4.429  13.206  0.00  0.00    +0.000 C 
BRANCH  23  24
ATOM     24  C   UNL     1       6.326   3.183  12.686  0.00  0.00    +0.000 C 
BRANCH  24  26
ATOM     25  C   UNL     1       4.218   3.180  11.318  0.00  0.00    +0.000 C 
ATOM     26  C   UNL     1       5.496   2.424  11.649  0.00  0.00    +0.000 C 
ENDBRANCH  24  26
ENDBRANCH  23  24
ENDBRANCH   1  23
TORSDOF 5
ENDMDL
MODEL 6
REMARK VINA RESULT:      -7.5      5.760      8.375
REMARK  Name = 
REMARK  6 active torsions:
REMARK  status: ('A' for Active; 'I' for Inactive)
REMARK    1  A    between atoms: C_1  and  C_2
REMARK    2  A    between atoms: C_2  and  C_3
REMARK    3  A    between atoms: C_3  and  C_4
REMARK    4  A    between atoms: C_4  and  C_5
REMARK    5  A    between atoms: C_6  and  O_7
REMARK    6  A    between atoms: N_14  and  C_15
REMARK                            x       y       z     vdW  Elec       q    Type
REMARK                         _______ _______ _______ _____ _____    ______ ____
ROOT
ATOM      1  C   UNL     1      -1.204  11.386  18.740  0.00  0.00    +0.000 A 
ATOM      2  C   UNL     1      -0.356  10.342  18.852  0.00  0.00    +0.000 A 
ATOM      3  C   UNL     1       0.191   9.920  20.153  0.00  0.00    +0.000 A 
ATOM      4  C   UNL     1       1.088   8.855  20.286  0.00  0.00    +0.000 A 
ATOM      5  C   UNL     1       1.581   8.501  21.540  0.00  0.00    +0.000 A 
ATOM      6  C   UNL     1       1.159   9.227  22.633  0.00  0.00    +0.000 A 
ATOM      7  N   UNL     1       0.301  10.256  22.544  0.00  0.00    +0.000 NA
ATOM      8  C   UNL     1      -0.180  10.595  21.315  0.00  0.00    +0.000 A 
ATOM      9  N   UNL     1      -1.057  11.695  21.204  0.00  0.00    +0.000 N 
ATOM     10  C   UNL     1      -1.616  12.106  20.001  0.00  0.00    +0.000 A 
ATOM     11  O   UNL     1      -2.461  12.997  19.894  0.00  0.00    +0.000 OA
ENDROOT
BRANCH   9  12
ATOM     12  C   UNL     1      -1.479  12.320  22.410  0.00  0.00    +0.000 A 
ATOM     13  C   UNL     1      -0.838  13.506  22.819  0.00  0.00    +0.000 A 
ATOM     14  C   UNL     1      -1.481  14.398  23.669  0.00  0.00    +0.000 A 
ATOM     15  C   UNL     1      -2.770  14.078  24.048  0.00  0.00    +0.000 A 
ATOM     16  C   UNL     1      -3.315  12.804  23.839  0.00  0.00    +0.000 A 
ATOM     17  C   UNL     1      -2.682  11.907  23.004  0.00  0.00    +0.000 A 
ATOM     18  C   UNL     1      -4.733  12.775  24.319  0.00  0.00    +0.000 C 
ATOM     19  C   UNL     1      -5.089  14.210  23.929  0.00  0.00    +0.000 C 
ATOM     20  C   UNL     1      -3.872  15.043  24.389  0.00  0.00    +0.000 C 
ENDBRANCH   9  12
BRANCH   2  21
ATOM     21  O   UNL     1       0.077   9.569  17.786  0.00  0.00    +0.000 OA
ATOM     22  H   UNL     1       0.637   8.843  18.104  0.00  0.00    +0.000 HD
ENDBRANCH   2  21
BRANCH   1  23
ATOM     23  C   UNL     1      -1.838  11.896  17.470  0.00  0.00    +0.000 C 
BRANCH  23  24
ATOM     24  C   UNL     1      -3.140  11.164  17.114  0.00  0.00    +0.000 C 
BRANCH  24  26
ATOM     25  C   UNL     1      -3.077  10.285  14.761  0.00  0.00    +0.000 C 
ATOM     26  C   UNL     1      -2.885   9.942  16.231  0.00  0.00    +0.000 C 
ENDBRANCH  24  26
ENDBRANCH  23  24
ENDBRANCH   1  23
TORSDOF 5
ENDMDL
MODEL 7
REMARK VINA RESULT:      -7.5      3.525      5.847
REMARK  Name = 
REMARK  6 active torsions:
REMARK  status: ('A' for Active; 'I' for Inactive)
REMARK    1  A    between atoms: C_1  and  C_2
REMARK    2  A    between atoms: C_2  and  C_3
REMARK    3  A    between atoms: C_3  and  C_4
REMARK    4  A    between atoms: C_4  and  C_5
REMARK    5  A    between atoms: C_6  and  O_7
REMARK    6  A    between atoms: N_14  and  C_15
REMARK                            x       y       z     vdW  Elec       q    Type
REMARK                         _______ _______ _______ _____ _____    ______ ____
ROOT
ATOM      1  C   UNL     1       2.116   7.867  19.199  0.00  0.00    +0.000 A 
ATOM      2  C   UNL     1       1.665   7.666  20.455  0.00  0.00    +0.000 A 
ATOM      3  C   UNL     1       0.942   8.712  21.198  0.00  0.00    +0.000 A 
ATOM      4  C   UNL     1       0.486   8.531  22.508  0.00  0.00    +0.000 A 
ATOM      5  C   UNL     1      -0.187   9.556  23.169  0.00  0.00    +0.000 A 
ATOM      6  C   UNL     1      -0.387  10.742  22.496  0.00  0.00    +0.000 A 
ATOM      7  N   UNL     1       0.037  10.953  21.239  0.00  0.00    +0.000 NA
ATOM      8  C   UNL     1       0.692   9.946  20.598  0.00  0.00    +0.000 A 
ATOM      9  N   UNL     1       1.171  10.167  19.289  0.00  0.00    +0.000 N 
ATOM     10  C   UNL     1       1.831   9.197  18.545  0.00  0.00    +0.000 A 
ATOM     11  O   UNL     1       2.168   9.334  17.367  0.00  0.00    +0.000 OA
ENDROOT
BRANCH   9  12
ATOM     12  C   UNL     1       0.838  11.404  18.671  0.00  0.00    +0.000 A 
ATOM     13  C   UNL     1      -0.512  11.667  18.366  0.00  0.00    +0.000 A 
ATOM     14  C   UNL     1      -0.961  12.974  18.225  0.00  0.00    +0.000 A 
ATOM     15  C   UNL     1      -0.036  13.978  18.437  0.00  0.00    +0.000 A 
ATOM     16  C   UNL     1       1.340  13.720  18.506  0.00  0.00    +0.000 A 
ATOM     17  C   UNL     1       1.799  12.427  18.637  0.00  0.00    +0.000 A 
ATOM     18  C   UNL     1       2.079  14.994  18.779  0.00  0.00    +0.000 C 
ATOM     19  C   UNL     1       1.024  15.629  19.686  0.00  0.00    +0.000 C 
ATOM     20  C   UNL     1      -0.314  15.360  18.960  0.00  0.00    +0.000 C 
ENDBRANCH   9  12
BRANCH   2  21
ATOM     21  O   UNL     1       1.822   6.485  21.162  0.00  0.00    +0.000 OA
ATOM     22  H   UNL     1       2.012   5.753  20.556  0.00  0.00    +0.000 HD
ENDBRANCH   2  21
BRANCH   1  23
ATOM     23  C   UNL     1       2.850   6.870  18.338  0.00  0.00    +0.000 C 
BRANCH  23  24
ATOM     24  C   UNL     1       1.959   5.711  17.871  0.00  0.00    +0.000 C 
BRANCH  24  26
ATOM     25  C   UNL     1       1.321   3.577  19.036  0.00  0.00    +0.000 C 
ATOM     26  C   UNL     1       2.456   4.362  18.393  0.00  0.00    +0.000 C 
ENDBRANCH  24  26
ENDBRANCH  23  24
ENDBRANCH   1  23
TORSDOF 5
ENDMDL
MODEL 8
REMARK VINA RESULT:      -7.4      1.071      1.828
REMARK  Name = 
REMARK  6 active torsions:
REMARK  status: ('A' for Active; 'I' for Inactive)
REMARK    1  A    between atoms: C_1  and  C_2
REMARK    2  A    between atoms: C_2  and  C_3
REMARK    3  A    between atoms: C_3  and  C_4
REMARK    4  A    between atoms: C_4  and  C_5
REMARK    5  A    between atoms: C_6  and  O_7
REMARK    6  A    between atoms: N_14  and  C_15
REMARK                            x       y       z     vdW  Elec       q    Type
REMARK                         _______ _______ _______ _____ _____    ______ ____
ROOT
ATOM      1  C   UNL     1       4.868   5.305  17.159  0.00  0.00    +0.000 A 
ATOM      2  C   UNL     1       4.496   4.013  17.269  0.00  0.00    +0.000 A 
ATOM      3  C   UNL     1       3.276   3.614  17.992  0.00  0.00    +0.000 A 
ATOM      4  C   UNL     1       2.884   2.278  18.135  0.00  0.00    +0.000 A 
ATOM      5  C   UNL     1       1.724   1.955  18.835  0.00  0.00    +0.000 A 
ATOM      6  C   UNL     1       0.982   2.984  19.375  0.00  0.00    +0.000 A 
ATOM      7  N   UNL     1       1.327   4.277  19.259  0.00  0.00    +0.000 NA
ATOM      8  C   UNL     1       2.461   4.587  18.571  0.00  0.00    +0.000 A 
ATOM      9  N   UNL     1       2.852   5.939  18.470  0.00  0.00    +0.000 N 
ATOM     10  C   UNL     1       3.978   6.357  17.773  0.00  0.00    +0.000 A 
ATOM     11  O   UNL     1       4.282   7.538  17.587  0.00  0.00    +0.000 OA
ENDROOT
BRANCH   9  12
ATOM     12  C   UNL     1       1.966   6.917  19.003  0.00  0.00    +0.000 A 
ATOM     13  C   UNL     1       1.914   7.093  20.400  0.00  0.00    +0.000 A 
ATOM     14  C   UNL     1       1.473   8.294  20.943  0.00  0.00    +0.000 A 
ATOM     15  C   UNL     1       1.135   9.294  20.051  0.00  0.00    +0.000 A 
ATOM     16  C   UNL     1       0.962   9.045  18.683  0.00  0.00    +0.000 A 
ATOM     17  C   UNL     1       1.388   7.855  18.134  0.00  0.00    +0.000 A 
ATOM     18  C   UNL     1       0.637  10.325  17.974  0.00  0.00    +0.000 C 
ATOM     19  C   UNL     1       1.512  11.238  18.833  0.00  0.00    +0.000 C 
ATOM     20  C   UNL     1       1.240  10.776  20.282  0.00  0.00    +0.000 C 
ENDBRANCH   9  12
BRANCH   2  21
ATOM     21  O   UNL     1       5.196   2.948  16.725  0.00  0.00    +0.000 OA
ATOM     22  H   UNL     1       5.426   3.134  15.801  0.00  0.00    +0.000 HD
ENDBRANCH   2  21
BRANCH   1  23
ATOM     23  C   UNL     1       6.081   5.831  16.434  0.00  0.00    +0.000 C 
BRANCH  23  24
ATOM     24  C   UNL     1       5.942   5.764  14.906  0.00  0.00    +0.000 C 
BRANCH  24  26
ATOM     25  C   UNL     1       6.141   3.771  13.389  0.00  0.00    +0.000 C 
ATOM     26  C   UNL     1       6.894   4.737  14.290  0.00  0.00    +0.000 C 
ENDBRANCH  24  26
ENDBRANCH  23  24
ENDBRANCH   1  23
TORSDOF 5
ENDMDL
MODEL 9
REMARK VINA RESULT:      -7.3      1.291      1.963
REMARK  Name = 
REMARK  6 active torsions:
REMARK  status: ('A' for Active; 'I' for Inactive)
REMARK    1  A    between atoms: C_1  and  C_2
REMARK    2  A    between atoms: C_2  and  C_3
REMARK    3  A    between atoms: C_3  and  C_4
REMARK    4  A    between atoms: C_4  and  C_5
REMARK    5  A    between atoms: C_6  and  O_7
REMARK    6  A    between atoms: N_14  and  C_15
REMARK                            x       y       z     vdW  Elec       q    Type
REMARK                         _______ _______ _______ _____ _____    ______ ____
ROOT
ATOM      1  C   UNL     1       4.667   5.628  17.744  0.00  0.00    +0.000 A 
ATOM      2  C   UNL     1       4.466   4.385  18.231  0.00  0.00    +0.000 A 
ATOM      3  C   UNL     1       3.398   4.095  19.202  0.00  0.00    +0.000 A 
ATOM      4  C   UNL     1       3.187   2.818  19.735  0.00  0.00    +0.000 A 
ATOM      5  C   UNL     1       2.166   2.599  20.657  0.00  0.00    +0.000 A 
ATOM      6  C   UNL     1       1.378   3.670  21.022  0.00  0.00    +0.000 A 
ATOM      7  N   UNL     1       1.551   4.909  20.533  0.00  0.00    +0.000 NA
ATOM      8  C   UNL     1       2.550   5.116  19.630  0.00  0.00    +0.000 A 
ATOM      9  N   UNL     1       2.763   6.420  19.134  0.00  0.00    +0.000 N 
ATOM     10  C   UNL     1       3.740   6.728  18.196  0.00  0.00    +0.000 A 
ATOM     11  O   UNL     1       3.878   7.837  17.674  0.00  0.00    +0.000 OA
ENDROOT
BRANCH   9  12
ATOM     12  C   UNL     1       1.839   7.428  19.526  0.00  0.00    +0.000 A 
ATOM     13  C   UNL     1       1.641   7.668  20.900  0.00  0.00    +0.000 A 
ATOM     14  C   UNL     1       1.160   8.895  21.340  0.00  0.00    +0.000 A 
ATOM     15  C   UNL     1       0.932   9.857  20.375  0.00  0.00    +0.000 A 
ATOM     16  C   UNL     1       0.902   9.549  19.008  0.00  0.00    +0.000 A 
ATOM     17  C   UNL     1       1.368   8.331  18.560  0.00  0.00    +0.000 A 
ATOM     18  C   UNL     1       0.671  10.798  18.214  0.00  0.00    +0.000 C 
ATOM     19  C   UNL     1       1.462  11.742  19.120  0.00  0.00    +0.000 C 
ATOM     20  C   UNL     1       1.031  11.347  20.550  0.00  0.00    +0.000 C 
ENDBRANCH   9  12
BRANCH   2  21
ATOM     21  O   UNL     1       5.216   3.275  17.877  0.00  0.00    +0.000 OA
ATOM     22  H   UNL     1       4.808   2.820  17.123  0.00  0.00    +0.000 HD
ENDBRANCH   2  21
BRANCH   1  23
ATOM     23  C   UNL     1       5.713   6.039  16.738  0.00  0.00    +0.000 C 
BRANCH  23  24
ATOM     24  C   UNL     1       5.436   5.495  15.329  0.00  0.00    +0.000 C 
BRANCH  24  26
ATOM     25  C   UNL     1       6.158   3.876  13.548  0.00  0.00    +0.000 C 
ATOM     26  C   UNL     1       6.551   4.567  14.845  0.00  0.00    +0.000 C 
ENDBRANCH  24  26
ENDBRANCH  23  24
ENDBRANCH   1  23
TORSDOF 5
ENDMDL
