MODEL 1
REMARK VINA RESULT:      -8.5      0.000      0.000
REMARK  Name = 
REMARK  5 active torsions:
REMARK  status: ('A' for Active; 'I' for Inactive)
REMARK    1  A    between atoms: C_1  and  C_2
REMARK    2  A    between atoms: C_10  and  C_11
REMARK    3  A    between atoms: C_11  and  C_13
REMARK    4  A    between atoms: N_16  and  C_17
REMARK    5  A    between atoms: C_17  and  C_18
REMARK                            x       y       z     vdW  Elec       q    Type
REMARK                         _______ _______ _______ _____ _____    ______ ____
ROOT
ATOM      1  C   UNL     1       5.109   5.839  17.183  0.00  0.00    +0.000 A 
ATOM      2  N   UNL     1       5.241   5.888  15.825  0.00  0.00    +0.000 NA
ATOM      3  C   UNL     1       6.381   5.437  15.295  0.00  0.00    +0.000 A 
ATOM      4  N   UNL     1       6.485   5.485  13.921  0.00  0.00    +0.000 N 
ATOM      5  N   UNL     1       7.390   4.956  16.029  0.00  0.00    +0.000 NA
ATOM      6  C   UNL     1       7.236   4.940  17.369  0.00  0.00    +0.000 A 
ATOM      7  C   UNL     1       6.100   5.359  18.019  0.00  0.00    +0.000 A 
ATOM      8 CL   UNL     1       6.017   5.183  19.724  0.00  0.00    +0.000 Cl
ATOM      9  H   UNL     1       5.563   5.601  13.518  0.00  0.00    +0.000 HD
ENDROOT
BRANCH   1  10
ATOM     10  C   UNL     1       3.838   6.414  17.730  0.00  0.00    +0.000 C 
ATOM     11  O   UNL     1       3.535   7.544  17.354  0.00  0.00    +0.000 OA
BRANCH  10  21
ATOM     12  C   UNL     1       2.181   7.610  20.102  0.00  0.00    +0.000 C 
ATOM     13  C   UNL     1       2.208   6.185  19.657  0.00  0.00    +0.000 A 
ATOM     14  C   UNL     1       1.447   5.147  20.244  0.00  0.00    +0.000 A 
ATOM     15  C   UNL     1       1.714   3.997  19.551  0.00  0.00    +0.000 A 
ATOM     16  C   UNL     1       1.228   2.664  19.682  0.00  0.00    +0.000 A 
ATOM     17  C   UNL     1       1.690   1.702  18.865  0.00  0.00    +0.000 A 
ATOM     18  C   UNL     1       2.706   1.989  17.873  0.00  0.00    +0.000 A 
ATOM     19  C   UNL     1       3.178   3.242  17.758  0.00  0.00    +0.000 A 
ATOM     20  N   UNL     1       2.661   4.270  18.561  0.00  0.00    +0.000 N 
ATOM     21  C   UNL     1       2.937   5.640  18.590  0.00  0.00    +0.000 A 
ENDBRANCH  10  21
ENDBRANCH   1  10
BRANCH   4  22
ATOM     22  C   UNL     1       7.314   4.467  13.305  0.00  0.00    +0.000 C 
BRANCH  22  23
ATOM     23  C   UNL     1       6.455   3.576  12.433  0.00  0.00    +0.000 A 
ATOM     24  C   UNL     1       5.095   3.869  12.249  0.00  0.00    +0.000 A 
ATOM     25  C   UNL     1       4.279   3.024  11.494  0.00  0.00    +0.000 A 
ATOM     26  C   UNL     1       4.815   1.883  10.902  0.00  0.00    +0.000 A 
ATOM     27  C   UNL     1       6.172   1.598  11.047  0.00  0.00    +0.000 A 
ATOM     28  C   UNL     1       6.989   2.440  11.805  0.00  0.00    +0.000 A 
ENDBRANCH  22  23
ENDBRANCH   4  22
TORSDOF 4
ENDMDL
MODEL 2
REMARK VINA RESULT:      -8.5      5.369      7.957
REMARK  Name = 
REMARK  5 active torsions:
REMARK  status: ('A' for Active; 'I' for Inactive)
REMARK    1  A    between atoms: C_1  and  C_2
REMARK    2  A    between atoms: C_10  and  C_11
REMARK    3  A    between atoms: C_11  and  C_13
REMARK    4  A    between atoms: N_16  and  C_17
REMARK    5  A    between atoms: C_17  and  C_18
REMARK                            x       y       z     vdW  Elec       q    Type
REMARK                         _______ _______ _______ _____ _____    ______ ____
ROOT
ATOM      1  C   UNL     1       0.278  10.343  20.380  0.00  0.00    +0.000 A 
ATOM      2  N   UNL     1       1.014   9.707  19.423  0.00  0.00    +0.000 NA
ATOM      3  C   UNL     1       1.620   8.566  19.761  0.00  0.00    +0.000 A 
ATOM      4  N   UNL     1       2.347   7.936  18.772  0.00  0.00    +0.000 N 
ATOM      5  N   UNL     1       1.546   8.032  20.984  0.00  0.00    +0.000 NA
ATOM      6  C   UNL     1       0.827   8.695  21.913  0.00  0.00    +0.000 A 
ATOM      7  C   UNL     1       0.147   9.864  21.671  0.00  0.00    +0.000 A 
ATOM      8 CL   UNL     1      -0.807  10.536  22.930  0.00  0.00    +0.000 Cl
ATOM      9  H   UNL     1       2.074   8.304  17.868  0.00  0.00    +0.000 HD
ENDROOT
BRANCH   1  10
ATOM     10  C   UNL     1      -0.329  11.649  19.968  0.00  0.00    +0.000 C 
ATOM     11  O   UNL     1       0.415  12.627  19.959  0.00  0.00    +0.000 OA
BRANCH  10  21
ATOM     12  C   UNL     1      -2.614  13.163  21.482  0.00  0.00    +0.000 C 
ATOM     13  C   UNL     1      -2.732  12.425  20.190  0.00  0.00    +0.000 A 
ATOM     14  C   UNL     1      -3.921  12.324  19.430  0.00  0.00    +0.000 A 
ATOM     15  C   UNL     1      -3.630  11.601  18.304  0.00  0.00    +0.000 A 
ATOM     16  C   UNL     1      -4.423  11.207  17.188  0.00  0.00    +0.000 A 
ATOM     17  C   UNL     1      -3.877  10.459  16.213  0.00  0.00    +0.000 A 
ATOM     18  C   UNL     1      -2.500  10.015  16.294  0.00  0.00    +0.000 A 
ATOM     19  C   UNL     1      -1.755  10.372  17.354  0.00  0.00    +0.000 A 
ATOM     20  N   UNL     1      -2.292  11.203  18.350  0.00  0.00    +0.000 N 
ATOM     21  C   UNL     1      -1.714  11.754  19.497  0.00  0.00    +0.000 A 
ENDBRANCH  10  21
ENDBRANCH   1  10
BRANCH   4  22
ATOM     22  C   UNL     1       2.432   6.491  18.862  0.00  0.00    +0.000 C 
BRANCH  22  23
ATOM     23  C   UNL     1       3.421   5.979  17.836  0.00  0.00    +0.000 A 
ATOM     24  C   UNL     1       3.510   4.604  17.567  0.00  0.00    +0.000 A 
ATOM     25  C   UNL     1       4.458   4.113  16.667  0.00  0.00    +0.000 A 
ATOM     26  C   UNL     1       5.318   4.992  16.013  0.00  0.00    +0.000 A 
ATOM     27  C   UNL     1       5.219   6.362  16.244  0.00  0.00    +0.000 A 
ATOM     28  C   UNL     1       4.274   6.855  17.148  0.00  0.00    +0.000 A 
ENDBRANCH  22  23
ENDBRANCH   4  22
TORSDOF 4
ENDMDL
MODEL 3
REMARK VINA RESULT:      -8.4      5.911      9.319
REMARK  Name = 
REMARK  5 active torsions:
REMARK  status: ('A' for Active; 'I' for Inactive)
REMARK    1  A    between atoms: C_1  and  C_2
REMARK    2  A    between atoms: C_10  and  C_11
REMARK    3  A    between atoms: C_11  and  C_13
REMARK    4  A    between atoms: N_16  and  C_17
REMARK    5  A    between atoms: C_17  and  C_18
REMARK                            x       y       z     vdW  Elec       q    Type
REMARK                         _______ _______ _______ _____ _____    ______ ____
ROOT
ATOM      1  C   UNL     1      -0.138  10.563  20.633  0.00  0.00    +0.000 A 
ATOM      2  N   UNL     1       0.588   9.550  20.078  0.00  0.00    +0.000 NA
ATOM      3  C   UNL     1       1.130   8.649  20.902  0.00  0.00    +0.000 A 
ATOM      4  N   UNL     1       1.849   7.628  20.315  0.00  0.00    +0.000 N 
ATOM      5  N   UNL     1       1.001   8.702  22.231  0.00  0.00    +0.000 NA
ATOM      6  C   UNL     1       0.294   9.727  22.750  0.00  0.00    +0.000 A 
ATOM      7  C   UNL     1      -0.322  10.697  21.997  0.00  0.00    +0.000 A 
ATOM      8 CL   UNL     1      -1.271  11.881  22.800  0.00  0.00    +0.000 Cl
ATOM      9  H   UNL     1       1.614   7.575  19.330  0.00  0.00    +0.000 HD
ENDROOT
BRANCH   1  10
ATOM     10  C   UNL     1      -0.671  11.580  19.671  0.00  0.00    +0.000 C 
ATOM     11  O   UNL     1       0.116  12.440  19.284  0.00  0.00    +0.000 OA
BRANCH  10  21
ATOM     12  C   UNL     1      -1.519   9.804  17.235  0.00  0.00    +0.000 C 
ATOM     13  C   UNL     1      -2.397  10.715  18.028  0.00  0.00    +0.000 A 
ATOM     14  C   UNL     1      -3.782  10.889  17.803  0.00  0.00    +0.000 A 
ATOM     15  C   UNL     1      -4.244  11.772  18.742  0.00  0.00    +0.000 A 
ATOM     16  C   UNL     1      -5.542  12.299  19.005  0.00  0.00    +0.000 A 
ATOM     17  C   UNL     1      -5.711  13.192  19.997  0.00  0.00    +0.000 A 
ATOM     18  C   UNL     1      -4.586  13.658  20.783  0.00  0.00    +0.000 A 
ATOM     19  C   UNL     1      -3.359  13.174  20.526  0.00  0.00    +0.000 A 
ATOM     20  N   UNL     1      -3.175  12.196  19.536  0.00  0.00    +0.000 N 
ATOM     21  C   UNL     1      -2.031  11.505  19.128  0.00  0.00    +0.000 A 
ENDBRANCH  10  21
ENDBRANCH   1  10
BRANCH   4  22
ATOM     22  C   UNL     1       1.860   6.363  21.025  0.00  0.00    +0.000 C 
BRANCH  22  23
ATOM     23  C   UNL     1       1.720   5.227  20.034  0.00  0.00    +0.000 A 
ATOM     24  C   UNL     1       2.219   5.364  18.729  0.00  0.00    +0.000 A 
ATOM     25  C   UNL     1       2.045   4.346  17.789  0.00  0.00    +0.000 A 
ATOM     26  C   UNL     1       1.384   3.174  18.145  0.00  0.00    +0.000 A 
ATOM     27  C   UNL     1       0.914   3.009  19.447  0.00  0.00    +0.000 A 
ATOM     28  C   UNL     1       1.083   4.028  20.388  0.00  0.00    +0.000 A 
ENDBRANCH  22  23
ENDBRANCH   4  22
TORSDOF 4
ENDMDL
MODEL 4
REMARK VINA RESULT:      -8.4      5.637      8.313
REMARK  Name = 
REMARK  5 active torsions:
REMARK  status: ('A' for Active; 'I' for Inactive)
REMARK    1  A    between atoms: C_1  and  C_2
REMARK    2  A    between atoms: C_10  and  C_11
REMARK    3  A    between atoms: C_11  and  C_13
REMARK    4  A    between atoms: N_16  and  C_17
REMARK    5  A    between atoms: C_17  and  C_18
REMARK                            x       y       z     vdW  Elec       q    Type
REMARK                         _______ _______ _______ _____ _____    ______ ____
ROOT
ATOM      1  C   UNL     1      -0.075  10.640  20.525  0.00  0.00    +0.000 A 
ATOM      2  N   UNL     1       0.679   9.966  19.609  0.00  0.00    +0.000 NA
ATOM      3  C   UNL     1       1.330   8.875  20.021  0.00  0.00    +0.000 A 
ATOM      4  N   UNL     1       2.074   8.204  19.073  0.00  0.00    +0.000 N 
ATOM      5  N   UNL     1       1.284   8.427  21.280  0.00  0.00    +0.000 NA
ATOM      6  C   UNL     1       0.546   9.127  22.166  0.00  0.00    +0.000 A 
ATOM      7  C   UNL     1      -0.179  10.250  21.848  0.00  0.00    +0.000 A 
ATOM      8 CL   UNL     1      -1.149  10.974  23.065  0.00  0.00    +0.000 Cl
ATOM      9  H   UNL     1       1.781   8.495  18.148  0.00  0.00    +0.000 HD
ENDROOT
BRANCH   1  10
ATOM     10  C   UNL     1      -0.733  11.890  20.027  0.00  0.00    +0.000 C 
ATOM     11  O   UNL     1      -0.054  12.914  20.037  0.00  0.00    +0.000 OA
BRANCH  10  21
ATOM     12  C   UNL     1      -3.251  13.135  21.413  0.00  0.00    +0.000 C 
ATOM     13  C   UNL     1      -3.207  12.439  20.093  0.00  0.00    +0.000 A 
ATOM     14  C   UNL     1      -4.324  12.261  19.243  0.00  0.00    +0.000 A 
ATOM     15  C   UNL     1      -3.888  11.610  18.120  0.00  0.00    +0.000 A 
ATOM     16  C   UNL     1      -4.559  11.189  16.935  0.00  0.00    +0.000 A 
ATOM     17  C   UNL     1      -3.877  10.532  15.981  0.00  0.00    +0.000 A 
ATOM     18  C   UNL     1      -2.475  10.210  16.151  0.00  0.00    +0.000 A 
ATOM     19  C   UNL     1      -1.844  10.592  17.275  0.00  0.00    +0.000 A 
ATOM     20  N   UNL     1      -2.525  11.333  18.253  0.00  0.00    +0.000 N 
ATOM     21  C   UNL     1      -2.084  11.888  19.457  0.00  0.00    +0.000 A 
ENDBRANCH  10  21
ENDBRANCH   1  10
BRANCH   4  22
ATOM     22  C   UNL     1       2.213   6.772  19.264  0.00  0.00    +0.000 C 
BRANCH  22  23
ATOM     23  C   UNL     1       3.196   6.222  18.252  0.00  0.00    +0.000 A 
ATOM     24  C   UNL     1       4.017   7.094  17.519  0.00  0.00    +0.000 A 
ATOM     25  C   UNL     1       4.885   6.603  16.542  0.00  0.00    +0.000 A 
ATOM     26  C   UNL     1       4.955   5.234  16.296  0.00  0.00    +0.000 A 
ATOM     27  C   UNL     1       4.172   4.353  17.039  0.00  0.00    +0.000 A 
ATOM     28  C   UNL     1       3.298   4.843  18.014  0.00  0.00    +0.000 A 
ENDBRANCH  22  23
ENDBRANCH   4  22
TORSDOF 4
ENDMDL
MODEL 5
REMARK VINA RESULT:      -8.3      4.572      7.034
REMARK  Name = 
REMARK  5 active torsions:
REMARK  status: ('A' for Active; 'I' for Inactive)
REMARK    1  A    between atoms: C_1  and  C_2
REMARK    2  A    between atoms: C_10  and  C_11
REMARK    3  A    between atoms: C_11  and  C_13
REMARK    4  A    between atoms: N_16  and  C_17
REMARK    5  A    between atoms: C_17  and  C_18
REMARK                            x       y       z     vdW  Elec       q    Type
REMARK                         _______ _______ _______ _____ _____    ______ ____
ROOT
ATOM      1  C   UNL     1       6.452   6.956  17.280  0.00  0.00    +0.000 A 
ATOM      2  N   UNL     1       6.730   8.290  17.216  0.00  0.00    +0.000 NA
ATOM      3  C   UNL     1       7.772   8.742  17.920  0.00  0.00    +0.000 A 
ATOM      4  N   UNL     1       8.040  10.093  17.828  0.00  0.00    +0.000 N 
ATOM      5  N   UNL     1       8.538   7.955  18.682  0.00  0.00    +0.000 NA
ATOM      6  C   UNL     1       8.224   6.645  18.739  0.00  0.00    +0.000 A 
ATOM      7  C   UNL     1       7.189   6.069  18.044  0.00  0.00    +0.000 A 
ATOM      8 CL   UNL     1       6.978   4.368  18.142  0.00  0.00    +0.000 Cl
ATOM      9  H   UNL     1       7.565  10.475  17.019  0.00  0.00    +0.000 HD
ENDROOT
BRANCH   1  10
ATOM     10  C   UNL     1       5.238   6.511  16.524  0.00  0.00    +0.000 C 
ATOM     11  O   UNL     1       5.340   6.448  15.301  0.00  0.00    +0.000 OA
BRANCH  10  21
ATOM     12  C   UNL     1       3.088   8.432  17.745  0.00  0.00    +0.000 C 
ATOM     13  C   UNL     1       3.064   6.940  17.754  0.00  0.00    +0.000 A 
ATOM     14  C   UNL     1       2.023   6.159  18.308  0.00  0.00    +0.000 A 
ATOM     15  C   UNL     1       2.339   4.843  18.100  0.00  0.00    +0.000 A 
ATOM     16  C   UNL     1       1.662   3.631  18.423  0.00  0.00    +0.000 A 
ATOM     17  C   UNL     1       2.227   2.450  18.119  0.00  0.00    +0.000 A 
ATOM     18  C   UNL     1       3.535   2.384  17.499  0.00  0.00    +0.000 A 
ATOM     19  C   UNL     1       4.183   3.525  17.208  0.00  0.00    +0.000 A 
ATOM     20  N   UNL     1       3.580   4.767  17.462  0.00  0.00    +0.000 N 
ATOM     21  C   UNL     1       4.014   6.069  17.200  0.00  0.00    +0.000 A 
ENDBRANCH  10  21
ENDBRANCH   1  10
BRANCH   4  22
ATOM     22  C   UNL     1       9.429  10.482  17.982  0.00  0.00    +0.000 C 
BRANCH  22  23
ATOM     23  C   UNL     1       9.547  11.503  19.093  0.00  0.00    +0.000 A 
ATOM     24  C   UNL     1       9.761  12.856  18.788  0.00  0.00    +0.000 A 
ATOM     25  C   UNL     1       9.930  13.798  19.805  0.00  0.00    +0.000 A 
ATOM     26  C   UNL     1       9.872  13.403  21.139  0.00  0.00    +0.000 A 
ATOM     27  C   UNL     1       9.626  12.069  21.457  0.00  0.00    +0.000 A 
ATOM     28  C   UNL     1       9.461  11.123  20.442  0.00  0.00    +0.000 A 
ENDBRANCH  22  23
ENDBRANCH   4  22
TORSDOF 4
ENDMDL
MODEL 6
REMARK VINA RESULT:      -8.3      4.839      7.303
REMARK  Name = 
REMARK  5 active torsions:
REMARK  status: ('A' for Active; 'I' for Inactive)
REMARK    1  A    between atoms: C_1  and  C_2
REMARK    2  A    between atoms: C_10  and  C_11
REMARK    3  A    between atoms: C_11  and  C_13
REMARK    4  A    between atoms: N_16  and  C_17
REMARK    5  A    between atoms: C_17  and  C_18
REMARK                            x       y       z     vdW  Elec       q    Type
REMARK                         _______ _______ _______ _____ _____    ______ ____
ROOT
ATOM      1  C   UNL     1       0.898   9.665  19.985  0.00  0.00    +0.000 A 
ATOM      2  N   UNL     1       1.666   9.152  18.981  0.00  0.00    +0.000 NA
ATOM      3  C   UNL     1       2.151   7.917  19.139  0.00  0.00    +0.000 A 
ATOM      4  N   UNL     1       2.914   7.416  18.104  0.00  0.00    +0.000 N 
ATOM      5  N   UNL     1       1.928   7.177  20.229  0.00  0.00    +0.000 NA
ATOM      6  C   UNL     1       1.182   7.721  21.212  0.00  0.00    +0.000 A 
ATOM      7  C   UNL     1       0.617   8.972  21.148  0.00  0.00    +0.000 A 
ATOM      8 CL   UNL     1      -0.391   9.486  22.439  0.00  0.00    +0.000 Cl
ATOM      9  H   UNL     1       2.750   7.967  17.269  0.00  0.00    +0.000 HD
ENDROOT
BRANCH   1  10
ATOM     10  C   UNL     1       0.431  11.075  19.786  0.00  0.00    +0.000 C 
ATOM     11  O   UNL     1       1.296  11.948  19.775  0.00  0.00    +0.000 OA
BRANCH  10  21
ATOM     12  C   UNL     1      -1.367  12.864  21.622  0.00  0.00    +0.000 C 
ATOM     13  C   UNL     1      -1.771  12.196  20.350  0.00  0.00    +0.000 A 
ATOM     14  C   UNL     1      -3.054  12.301  19.762  0.00  0.00    +0.000 A 
ATOM     15  C   UNL     1      -3.033  11.580  18.598  0.00  0.00    +0.000 A 
ATOM     16  C   UNL     1      -4.021  11.347  17.598  0.00  0.00    +0.000 A 
ATOM     17  C   UNL     1      -3.734  10.559  16.547  0.00  0.00    +0.000 A 
ATOM     18  C   UNL     1      -2.444   9.910  16.431  0.00  0.00    +0.000 A 
ATOM     19  C   UNL     1      -1.516  10.115  17.381  0.00  0.00    +0.000 A 
ATOM     20  N   UNL     1      -1.778  10.984  18.452  0.00  0.00    +0.000 N 
ATOM     21  C   UNL     1      -0.972  11.402  19.514  0.00  0.00    +0.000 A 
ENDBRANCH  10  21
ENDBRANCH   1  10
BRANCH   4  22
ATOM     22  C   UNL     1       2.880   5.977  17.923  0.00  0.00    +0.000 C 
BRANCH  22  23
ATOM     23  C   UNL     1       4.182   5.516  17.303  0.00  0.00    +0.000 A 
ATOM     24  C   UNL     1       5.289   6.378  17.264  0.00  0.00    +0.000 A 
ATOM     25  C   UNL     1       6.477   5.986  16.643  0.00  0.00    +0.000 A 
ATOM     26  C   UNL     1       6.577   4.722  16.067  0.00  0.00    +0.000 A 
ATOM     27  C   UNL     1       5.498   3.842  16.128  0.00  0.00    +0.000 A 
ATOM     28  C   UNL     1       4.307   4.234  16.745  0.00  0.00    +0.000 A 
ENDBRANCH  22  23
ENDBRANCH   4  22
TORSDOF 4
ENDMDL
MODEL 7
REMARK VINA RESULT:      -8.3      5.307      8.054
REMARK  Name = 
REMARK  5 active torsions:
REMARK  status: ('A' for Active; 'I' for Inactive)
REMARK    1  A    between atoms: C_1  and  C_2
REMARK    2  A    between atoms: C_10  and  C_11
REMARK    3  A    between atoms: C_11  and  C_13
REMARK    4  A    between atoms: N_16  and  C_17
REMARK    5  A    between atoms: C_17  and  C_18
REMARK                            x       y       z     vdW  Elec       q    Type
REMARK                         _______ _______ _______ _____ _____    ______ ____
ROOT
ATOM      1  C   UNL     1       0.399  10.270  20.064  0.00  0.00    +0.000 A 
ATOM      2  N   UNL     1       1.133   9.744  19.041  0.00  0.00    +0.000 NA
ATOM      3  C   UNL     1       1.765   8.587  19.260  0.00  0.00    +0.000 A 
ATOM      4  N   UNL     1       2.490   8.070  18.207  0.00  0.00    +0.000 N 
ATOM      5  N   UNL     1       1.717   7.937  20.427  0.00  0.00    +0.000 NA
ATOM      6  C   UNL     1       0.999   8.494  21.424  0.00  0.00    +0.000 A 
ATOM      7  C   UNL     1       0.296   9.668  21.304  0.00  0.00    +0.000 A 
ATOM      8 CL   UNL     1      -0.653  10.198  22.633  0.00  0.00    +0.000 Cl
ATOM      9  H   UNL     1       2.197   8.517  17.346  0.00  0.00    +0.000 HD
ENDROOT
BRANCH   1  10
ATOM     10  C   UNL     1      -0.237  11.598  19.787  0.00  0.00    +0.000 C 
ATOM     11  O   UNL     1       0.498  12.582  19.823  0.00  0.00    +0.000 OA
BRANCH  10  21
ATOM     12  C   UNL     1      -2.449  13.020  21.487  0.00  0.00    +0.000 C 
ATOM     13  C   UNL     1      -2.627  12.352  20.164  0.00  0.00    +0.000 A 
ATOM     14  C   UNL     1      -3.851  12.289  19.457  0.00  0.00    +0.000 A 
ATOM     15  C   UNL     1      -3.613  11.629  18.280  0.00  0.00    +0.000 A 
ATOM     16  C   UNL     1      -4.458  11.294  17.183  0.00  0.00    +0.000 A 
ATOM     17  C   UNL     1      -3.958  10.603  16.143  0.00  0.00    +0.000 A 
ATOM     18  C   UNL     1      -2.578  10.159  16.136  0.00  0.00    +0.000 A 
ATOM     19  C   UNL     1      -1.784  10.461  17.177  0.00  0.00    +0.000 A 
ATOM     20  N   UNL     1      -2.273  11.235  18.241  0.00  0.00    +0.000 N 
ATOM     21  C   UNL     1      -1.643  11.723  19.387  0.00  0.00    +0.000 A 
ENDBRANCH  10  21
ENDBRANCH   1  10
BRANCH   4  22
ATOM     22  C   UNL     1       2.601   6.624  18.156  0.00  0.00    +0.000 C 
BRANCH  22  23
ATOM     23  C   UNL     1       4.063   6.232  18.138  0.00  0.00    +0.000 A 
ATOM     24  C   UNL     1       4.593   5.438  19.168  0.00  0.00    +0.000 A 
ATOM     25  C   UNL     1       5.952   5.118  19.194  0.00  0.00    +0.000 A 
ATOM     26  C   UNL     1       6.795   5.574  18.185  0.00  0.00    +0.000 A 
ATOM     27  C   UNL     1       6.277   6.333  17.137  0.00  0.00    +0.000 A 
ATOM     28  C   UNL     1       4.919   6.659  17.111  0.00  0.00    +0.000 A 
ENDBRANCH  22  23
ENDBRANCH   4  22
TORSDOF 4
ENDMDL
MODEL 8
REMARK VINA RESULT:      -8.3      4.776      6.824
REMARK  Name = 
REMARK  5 active torsions:
REMARK  status: ('A' for Active; 'I' for Inactive)
REMARK    1  A    between atoms: C_1  and  C_2
REMARK    2  A    between atoms: C_10  and  C_11
REMARK    3  A    between atoms: C_11  and  C_13
REMARK    4  A    between atoms: N_16  and  C_17
REMARK    5  A    between atoms: C_17  and  C_18
REMARK                            x       y       z     vdW  Elec       q    Type
REMARK                         _______ _______ _______ _____ _____    ______ ____
ROOT
ATOM      1  C   UNL     1       6.476   6.963  17.302  0.00  0.00    +0.000 A 
ATOM      2  N   UNL     1       6.778   8.291  17.221  0.00  0.00    +0.000 NA
ATOM      3  C   UNL     1       7.816   8.738  17.934  0.00  0.00    +0.000 A 
ATOM      4  N   UNL     1       8.108  10.081  17.825  0.00  0.00    +0.000 N 
ATOM      5  N   UNL     1       8.555   7.951  18.721  0.00  0.00    +0.000 NA
ATOM      6  C   UNL     1       8.219   6.646  18.795  0.00  0.00    +0.000 A 
ATOM      7  C   UNL     1       7.185   6.077  18.092  0.00  0.00    +0.000 A 
ATOM      8 CL   UNL     1       6.944   4.381  18.214  0.00  0.00    +0.000 Cl
ATOM      9  H   UNL     1       7.653  10.459  17.002  0.00  0.00    +0.000 HD
ENDROOT
BRANCH   1  10
ATOM     10  C   UNL     1       5.267   6.526  16.533  0.00  0.00    +0.000 C 
ATOM     11  O   UNL     1       5.380   6.467  15.311  0.00  0.00    +0.000 OA
BRANCH  10  21
ATOM     12  C   UNL     1       3.117   8.452  17.747  0.00  0.00    +0.000 C 
ATOM     13  C   UNL     1       3.085   6.960  17.747  0.00  0.00    +0.000 A 
ATOM     14  C   UNL     1       2.035   6.181  18.288  0.00  0.00    +0.000 A 
ATOM     15  C   UNL     1       2.346   4.865  18.075  0.00  0.00    +0.000 A 
ATOM     16  C   UNL     1       1.659   3.655  18.385  0.00  0.00    +0.000 A 
ATOM     17  C   UNL     1       2.220   2.472  18.078  0.00  0.00    +0.000 A 
ATOM     18  C   UNL     1       3.533   2.403  17.469  0.00  0.00    +0.000 A 
ATOM     19  C   UNL     1       4.190   3.542  17.190  0.00  0.00    +0.000 A 
ATOM     20  N   UNL     1       3.592   4.786  17.447  0.00  0.00    +0.000 N 
ATOM     21  C   UNL     1       4.035   6.087  17.196  0.00  0.00    +0.000 A 
ENDBRANCH  10  21
ENDBRANCH   1  10
BRANCH   4  22
ATOM     22  C   UNL     1       9.501  10.449  17.995  0.00  0.00    +0.000 C 
BRANCH  22  23
ATOM     23  C   UNL     1       9.644  11.952  17.871  0.00  0.00    +0.000 A 
ATOM     24  C   UNL     1      10.867  12.512  17.469  0.00  0.00    +0.000 A 
ATOM     25  C   UNL     1      11.029  13.898  17.407  0.00  0.00    +0.000 A 
ATOM     26  C   UNL     1       9.969  14.740  17.732  0.00  0.00    +0.000 A 
ATOM     27  C   UNL     1       8.739  14.197  18.100  0.00  0.00    +0.000 A 
ATOM     28  C   UNL     1       8.575  12.811  18.167  0.00  0.00    +0.000 A 
ENDBRANCH  22  23
ENDBRANCH   4  22
TORSDOF 4
ENDMDL
MODEL 9
REMARK VINA RESULT:      -8.1      5.665      8.442
REMARK  Name = 
REMARK  5 active torsions:
REMARK  status: ('A' for Active; 'I' for Inactive)
REMARK    1  A    between atoms: C_1  and  C_2
REMARK    2  A    between atoms: C_10  and  C_11
REMARK    3  A    between atoms: C_11  and  C_13
REMARK    4  A    between atoms: N_16  and  C_17
REMARK    5  A    between atoms: C_17  and  C_18
REMARK                            x       y       z     vdW  Elec       q    Type
REMARK                         _______ _______ _______ _____ _____    ______ ____
ROOT
ATOM      1  C   UNL     1       0.227  10.315  19.989  0.00  0.00    +0.000 A 
ATOM      2  N   UNL     1       0.997   9.630  19.095  0.00  0.00    +0.000 NA
ATOM      3  C   UNL     1       1.659   8.558  19.538  0.00  0.00    +0.000 A 
ATOM      4  N   UNL     1       2.420   7.875  18.612  0.00  0.00    +0.000 N 
ATOM      5  N   UNL     1       1.609   8.139  20.807  0.00  0.00    +0.000 NA
ATOM      6  C   UNL     1       0.855   8.850  21.670  0.00  0.00    +0.000 A 
ATOM      7  C   UNL     1       0.117   9.955  21.320  0.00  0.00    +0.000 A 
ATOM      8 CL   UNL     1      -0.873  10.694  22.512  0.00  0.00    +0.000 Cl
ATOM      9  H   UNL     1       2.131   8.141  17.678  0.00  0.00    +0.000 HD
ENDROOT
BRANCH   1  10
ATOM     10  C   UNL     1      -0.445  11.544  19.457  0.00  0.00    +0.000 C 
ATOM     11  O   UNL     1       0.278  12.506  19.209  0.00  0.00    +0.000 OA
BRANCH  10  21
ATOM     12  C   UNL     1      -1.782   9.995  17.086  0.00  0.00    +0.000 C 
ATOM     13  C   UNL     1      -2.463  10.889  18.069  0.00  0.00    +0.000 A 
ATOM     14  C   UNL     1      -3.853  11.150  18.087  0.00  0.00    +0.000 A 
ATOM     15  C   UNL     1      -4.102  11.984  19.143  0.00  0.00    +0.000 A 
ATOM     16  C   UNL     1      -5.305  12.556  19.650  0.00  0.00    +0.000 A 
ATOM     17  C   UNL     1      -5.257  13.381  20.710  0.00  0.00    +0.000 A 
ATOM     18  C   UNL     1      -3.994  13.731  21.328  0.00  0.00    +0.000 A 
ATOM     19  C   UNL     1      -2.856  13.206  20.842  0.00  0.00    +0.000 A 
ATOM     20  N   UNL     1      -2.895  12.294  19.775  0.00  0.00    +0.000 N 
ATOM     21  C   UNL     1      -1.877  11.578  19.142  0.00  0.00    +0.000 A 
ENDBRANCH  10  21
ENDBRANCH   1  10
BRANCH   4  22
ATOM     22  C   UNL     1       2.578   6.451  18.838  0.00  0.00    +0.000 C 
BRANCH  22  23
ATOM     23  C   UNL     1       3.553   5.884  17.827  0.00  0.00    +0.000 A 
ATOM     24  C   UNL     1       4.399   6.741  17.107  0.00  0.00    +0.000 A 
ATOM     25  C   UNL     1       5.262   6.237  16.131  0.00  0.00    +0.000 A 
ATOM     26  C   UNL     1       5.299   4.870  15.873  0.00  0.00    +0.000 A 
ATOM     27  C   UNL     1       4.489   4.003  16.604  0.00  0.00    +0.000 A 
ATOM     28  C   UNL     1       3.622   4.505  17.578  0.00  0.00    +0.000 A 
ENDBRANCH  22  23
ENDBRANCH   4  22
TORSDOF 4
ENDMDL
