MODEL 1
REMARK VINA RESULT:      -6.0      0.000      0.000
REMARK  Name = 
REMARK  4 active torsions:
REMARK  status: ('A' for Active; 'I' for Inactive)
REMARK    1  A    between atoms: C_1  and  C_2
REMARK    2  A    between atoms: C_3  and  N_4
REMARK    3  A    between atoms: C_9  and  C_10
REMARK    4  A    between atoms: C_11  and  N_12
REMARK                            x       y       z     vdW  Elec       q    Type
REMARK                         _______ _______ _______ _____ _____    ______ ____
ROOT
ATOM      1  C   UNL     1       3.029   7.527  17.997  0.00  0.00    +0.000 C 
ATOM      2  C   UNL     1       3.613   6.232  18.497  0.00  0.00    +0.000 C 
ATOM      3  C   UNL     1       4.820   5.762  18.121  0.00  0.00    +0.000 C 
ATOM      4  C   UNL     1       5.319   4.534  18.838  0.00  0.00    +0.000 C 
ATOM      5  O   UNL     1       6.510   4.256  18.932  0.00  0.00    +0.000 OA
ATOM      6  C   UNL     1       4.303   3.624  19.432  0.00  0.00    +0.000 C 
ATOM      7  C   UNL     1       4.755   2.224  19.751  0.00  0.00    +0.000 C 
ATOM      8  C   UNL     1       3.047   4.035  19.691  0.00  0.00    +0.000 C 
ATOM      9  C   UNL     1       2.741   5.492  19.456  0.00  0.00    +0.000 C 
ATOM     10  O   UNL     1       1.800   6.073  19.986  0.00  0.00    +0.000 OA
ENDROOT
BRANCH   3  11
ATOM     11  N   UNL     1       5.521   6.346  17.063  0.00  0.00    +0.000 N 
ATOM     12  C   UNL     1       6.555   5.574  16.382  0.00  0.00    +0.000 C 
ATOM     13  C   UNL     1       5.323   6.049  15.657  0.00  0.00    +0.000 C 
ENDBRANCH   3  11
BRANCH   8  14
ATOM     14  N   UNL     1       2.077   3.116  20.087  0.00  0.00    +0.000 N 
ATOM     15  C   UNL     1       1.663   3.091  21.487  0.00  0.00    +0.000 C 
ATOM     16  C   UNL     1       0.689   3.412  20.382  0.00  0.00    +0.000 C 
ENDBRANCH   8  14
TORSDOF 2
ENDMDL
MODEL 2
REMARK VINA RESULT:      -5.9      0.661      5.278
REMARK  Name = 
REMARK  4 active torsions:
REMARK  status: ('A' for Active; 'I' for Inactive)
REMARK    1  A    between atoms: C_1  and  C_2
REMARK    2  A    between atoms: C_3  and  N_4
REMARK    3  A    between atoms: C_9  and  C_10
REMARK    4  A    between atoms: C_11  and  N_12
REMARK                            x       y       z     vdW  Elec       q    Type
REMARK                         _______ _______ _______ _____ _____    ______ ____
ROOT
ATOM      1  C   UNL     1       4.671   2.345  19.940  0.00  0.00    +0.000 C 
ATOM      2  C   UNL     1       4.204   3.733  19.592  0.00  0.00    +0.000 C 
ATOM      3  C   UNL     1       2.982   4.211  19.901  0.00  0.00    +0.000 C 
ATOM      4  C   UNL     1       2.736   5.671  19.620  0.00  0.00    +0.000 C 
ATOM      5  O   UNL     1       1.891   6.331  20.216  0.00  0.00    +0.000 OA
ATOM      6  C   UNL     1       3.553   6.313  18.555  0.00  0.00    +0.000 C 
ATOM      7  C   UNL     1       3.027   7.603  17.986  0.00  0.00    +0.000 C 
ATOM      8  C   UNL     1       4.714   5.779  18.132  0.00  0.00    +0.000 C 
ATOM      9  C   UNL     1       5.212   4.557  18.862  0.00  0.00    +0.000 C 
ATOM     10  O   UNL     1       6.386   4.203  18.851  0.00  0.00    +0.000 OA
ENDROOT
BRANCH   3  11
ATOM     11  N   UNL     1       1.979   3.363  20.380  0.00  0.00    +0.000 N 
ATOM     12  C   UNL     1       0.614   3.529  19.892  0.00  0.00    +0.000 C 
ATOM     13  C   UNL     1       1.388   2.261  19.645  0.00  0.00    +0.000 C 
ENDBRANCH   3  11
BRANCH   8  14
ATOM     14  N   UNL     1       5.366   6.310  17.021  0.00  0.00    +0.000 N 
ATOM     15  C   UNL     1       6.595   7.071  17.225  0.00  0.00    +0.000 C 
ATOM     16  C   UNL     1       6.580   5.799  16.417  0.00  0.00    +0.000 C 
ENDBRANCH   8  14
TORSDOF 2
ENDMDL
MODEL 3
REMARK VINA RESULT:      -5.7      1.845      2.945
REMARK  Name = 
REMARK  4 active torsions:
REMARK  status: ('A' for Active; 'I' for Inactive)
REMARK    1  A    between atoms: C_1  and  C_2
REMARK    2  A    between atoms: C_3  and  N_4
REMARK    3  A    between atoms: C_9  and  C_10
REMARK    4  A    between atoms: C_11  and  N_12
REMARK                            x       y       z     vdW  Elec       q    Type
REMARK                         _______ _______ _______ _____ _____    ______ ____
ROOT
ATOM      1  C   UNL     1       5.182   3.677  16.137  0.00  0.00    +0.000 C 
ATOM      2  C   UNL     1       4.371   4.590  17.018  0.00  0.00    +0.000 C 
ATOM      3  C   UNL     1       4.577   5.920  17.106  0.00  0.00    +0.000 C 
ATOM      4  C   UNL     1       3.575   6.706  17.912  0.00  0.00    +0.000 C 
ATOM      5  O   UNL     1       3.369   7.902  17.734  0.00  0.00    +0.000 OA
ATOM      6  C   UNL     1       2.830   5.982  18.977  0.00  0.00    +0.000 C 
ATOM      7  C   UNL     1       2.177   6.827  20.037  0.00  0.00    +0.000 C 
ATOM      8  C   UNL     1       2.726   4.640  18.984  0.00  0.00    +0.000 C 
ATOM      9  C   UNL     1       3.305   3.902  17.803  0.00  0.00    +0.000 C 
ATOM     10  O   UNL     1       2.963   2.767  17.490  0.00  0.00    +0.000 OA
ENDROOT
BRANCH   3  11
ATOM     11  N   UNL     1       5.712   6.511  16.543  0.00  0.00    +0.000 N 
ATOM     12  C   UNL     1       6.567   7.347  17.378  0.00  0.00    +0.000 C 
ATOM     13  C   UNL     1       7.080   6.075  16.755  0.00  0.00    +0.000 C 
ENDBRANCH   3  11
BRANCH   8  14
ATOM     14  N   UNL     1       2.169   3.986  20.081  0.00  0.00    +0.000 N 
ATOM     15  C   UNL     1       0.807   3.471  19.975  0.00  0.00    +0.000 C 
ATOM     16  C   UNL     1       1.979   2.556  20.218  0.00  0.00    +0.000 C 
ENDBRANCH   8  14
TORSDOF 2
ENDMDL
MODEL 4
REMARK VINA RESULT:      -5.6      2.043      4.736
REMARK  Name = 
REMARK  4 active torsions:
REMARK  status: ('A' for Active; 'I' for Inactive)
REMARK    1  A    between atoms: C_1  and  C_2
REMARK    2  A    between atoms: C_3  and  N_4
REMARK    3  A    between atoms: C_9  and  C_10
REMARK    4  A    between atoms: C_11  and  N_12
REMARK                            x       y       z     vdW  Elec       q    Type
REMARK                         _______ _______ _______ _____ _____    ______ ____
ROOT
ATOM      1  C   UNL     1       2.067   7.101  19.857  0.00  0.00    +0.000 C 
ATOM      2  C   UNL     1       2.639   6.149  18.840  0.00  0.00    +0.000 C 
ATOM      3  C   UNL     1       2.332   4.837  18.789  0.00  0.00    +0.000 C 
ATOM      4  C   UNL     1       2.868   4.063  17.612  0.00  0.00    +0.000 C 
ATOM      5  O   UNL     1       2.346   3.033  17.197  0.00  0.00    +0.000 OA
ATOM      6  C   UNL     1       4.098   4.580  16.953  0.00  0.00    +0.000 C 
ATOM      7  C   UNL     1       4.861   3.609  16.092  0.00  0.00    +0.000 C 
ATOM      8  C   UNL     1       4.500   5.856  17.101  0.00  0.00    +0.000 C 
ATOM      9  C   UNL     1       3.590   6.775  17.876  0.00  0.00    +0.000 C 
ATOM     10  O   UNL     1       3.625   7.996  17.771  0.00  0.00    +0.000 OA
ENDROOT
BRANCH   3  11
ATOM     11  N   UNL     1       1.622   4.224  19.825  0.00  0.00    +0.000 N 
ATOM     12  C   UNL     1       1.950   2.852  20.198  0.00  0.00    +0.000 C 
ATOM     13  C   UNL     1       2.124   3.993  21.166  0.00  0.00    +0.000 C 
ENDBRANCH   3  11
BRANCH   8  14
ATOM     14  N   UNL     1       5.740   6.262  16.611  0.00  0.00    +0.000 N 
ATOM     15  C   UNL     1       6.539   7.191  17.403  0.00  0.00    +0.000 C 
ATOM     16  C   UNL     1       7.034   5.805  17.077  0.00  0.00    +0.000 C 
ENDBRANCH   8  14
TORSDOF 2
ENDMDL
MODEL 5
REMARK VINA RESULT:      -5.4      1.935      2.897
REMARK  Name = 
REMARK  4 active torsions:
REMARK  status: ('A' for Active; 'I' for Inactive)
REMARK    1  A    between atoms: C_1  and  C_2
REMARK    2  A    between atoms: C_3  and  N_4
REMARK    3  A    between atoms: C_9  and  C_10
REMARK    4  A    between atoms: C_11  and  N_12
REMARK                            x       y       z     vdW  Elec       q    Type
REMARK                         _______ _______ _______ _____ _____    ______ ____
ROOT
ATOM      1  C   UNL     1       4.232   3.050  16.713  0.00  0.00    +0.000 C 
ATOM      2  C   UNL     1       3.609   4.139  17.546  0.00  0.00    +0.000 C 
ATOM      3  C   UNL     1       4.044   5.415  17.555  0.00  0.00    +0.000 C 
ATOM      4  C   UNL     1       3.208   6.408  18.321  0.00  0.00    +0.000 C 
ATOM      5  O   UNL     1       3.210   7.610  18.076  0.00  0.00    +0.000 OA
ATOM      6  C   UNL     1       2.367   5.886  19.432  0.00  0.00    +0.000 C 
ATOM      7  C   UNL     1       1.889   6.890  20.446  0.00  0.00    +0.000 C 
ATOM      8  C   UNL     1       2.032   4.585  19.518  0.00  0.00    +0.000 C 
ATOM      9  C   UNL     1       2.453   3.693  18.377  0.00  0.00    +0.000 C 
ATOM     10  O   UNL     1       1.913   2.619  18.133  0.00  0.00    +0.000 OA
ENDROOT
BRANCH   3  11
ATOM     11  N   UNL     1       5.254   5.766  16.950  0.00  0.00    +0.000 N 
ATOM     12  C   UNL     1       5.234   6.580  15.740  0.00  0.00    +0.000 C 
ATOM     13  C   UNL     1       5.874   7.076  17.009  0.00  0.00    +0.000 C 
ENDBRANCH   3  11
BRANCH   8  14
ATOM     14  N   UNL     1       1.388   4.100  20.655  0.00  0.00    +0.000 N 
ATOM     15  C   UNL     1       1.240   2.658  20.818  0.00  0.00    +0.000 C 
ATOM     16  C   UNL     1       2.026   3.485  21.801  0.00  0.00    +0.000 C 
ENDBRANCH   8  14
TORSDOF 2
ENDMDL
MODEL 6
REMARK VINA RESULT:      -5.2      1.106      5.374
REMARK  Name = 
REMARK  4 active torsions:
REMARK  status: ('A' for Active; 'I' for Inactive)
REMARK    1  A    between atoms: C_1  and  C_2
REMARK    2  A    between atoms: C_3  and  N_4
REMARK    3  A    between atoms: C_9  and  C_10
REMARK    4  A    between atoms: C_11  and  N_12
REMARK                            x       y       z     vdW  Elec       q    Type
REMARK                         _______ _______ _______ _____ _____    ______ ____
ROOT
ATOM      1  C   UNL     1       3.755   1.749  18.137  0.00  0.00    +0.000 C 
ATOM      2  C   UNL     1       3.593   3.240  18.267  0.00  0.00    +0.000 C 
ATOM      3  C   UNL     1       2.618   3.826  18.992  0.00  0.00    +0.000 C 
ATOM      4  C   UNL     1       2.696   5.323  19.144  0.00  0.00    +0.000 C 
ATOM      5  O   UNL     1       2.183   5.925  20.081  0.00  0.00    +0.000 OA
ATOM      6  C   UNL     1       3.415   6.084  18.087  0.00  0.00    +0.000 C 
ATOM      7  C   UNL     1       3.127   7.559  18.003  0.00  0.00    +0.000 C 
ATOM      8  C   UNL     1       4.295   5.491  17.258  0.00  0.00    +0.000 C 
ATOM      9  C   UNL     1       4.606   4.039  17.517  0.00  0.00    +0.000 C 
ATOM     10  O   UNL     1       5.626   3.490  17.113  0.00  0.00    +0.000 OA
ENDROOT
BRANCH   3  11
ATOM     11  N   UNL     1       1.553   3.078  19.500  0.00  0.00    +0.000 N 
ATOM     12  C   UNL     1       1.610   2.605  20.880  0.00  0.00    +0.000 C 
ATOM     13  C   UNL     1       0.545   3.568  20.422  0.00  0.00    +0.000 C 
ENDBRANCH   3  11
BRANCH   8  14
ATOM     14  N   UNL     1       4.821   6.193  16.176  0.00  0.00    +0.000 N 
ATOM     15  C   UNL     1       6.240   6.536  16.184  0.00  0.00    +0.000 C 
ATOM     16  C   UNL     1       5.650   5.643  15.122  0.00  0.00    +0.000 C 
ENDBRANCH   8  14
TORSDOF 2
ENDMDL
MODEL 7
REMARK VINA RESULT:      -5.1      1.233      1.233
REMARK  Name = 
REMARK  4 active torsions:
REMARK  status: ('A' for Active; 'I' for Inactive)
REMARK    1  A    between atoms: C_1  and  C_2
REMARK    2  A    between atoms: C_3  and  N_4
REMARK    3  A    between atoms: C_9  and  C_10
REMARK    4  A    between atoms: C_11  and  N_12
REMARK                            x       y       z     vdW  Elec       q    Type
REMARK                         _______ _______ _______ _____ _____    ______ ____
ROOT
ATOM      1  C   UNL     1       3.435   7.585  17.770  0.00  0.00    +0.000 C 
ATOM      2  C   UNL     1       3.620   6.094  17.856  0.00  0.00    +0.000 C 
ATOM      3  C   UNL     1       4.453   5.396  17.057  0.00  0.00    +0.000 C 
ATOM      4  C   UNL     1       4.636   3.936  17.382  0.00  0.00    +0.000 C 
ATOM      5  O   UNL     1       5.635   3.302  17.060  0.00  0.00    +0.000 OA
ATOM      6  C   UNL     1       3.535   3.251  18.110  0.00  0.00    +0.000 C 
ATOM      7  C   UNL     1       3.519   1.747  18.050  0.00  0.00    +0.000 C 
ATOM      8  C   UNL     1       2.608   3.937  18.805  0.00  0.00    +0.000 C 
ATOM      9  C   UNL     1       2.795   5.430  18.908  0.00  0.00    +0.000 C 
ATOM     10  O   UNL     1       2.278   6.110  19.787  0.00  0.00    +0.000 OA
ENDROOT
BRANCH   3  11
ATOM     11  N   UNL     1       5.043   5.993  15.940  0.00  0.00    +0.000 N 
ATOM     12  C   UNL     1       6.498   6.063  15.857  0.00  0.00    +0.000 C 
ATOM     13  C   UNL     1       5.691   5.284  14.852  0.00  0.00    +0.000 C 
ENDBRANCH   3  11
BRANCH   8  14
ATOM     14  N   UNL     1       1.498   3.280  19.332  0.00  0.00    +0.000 N 
ATOM     15  C   UNL     1       1.605   2.669  20.653  0.00  0.00    +0.000 C 
ATOM     16  C   UNL     1       0.624   3.779  20.375  0.00  0.00    +0.000 C 
ENDBRANCH   8  14
TORSDOF 2
ENDMDL
MODEL 8
REMARK VINA RESULT:      -5.0      2.235      3.270
REMARK  Name = 
REMARK  4 active torsions:
REMARK  status: ('A' for Active; 'I' for Inactive)
REMARK    1  A    between atoms: C_1  and  C_2
REMARK    2  A    between atoms: C_3  and  N_4
REMARK    3  A    between atoms: C_9  and  C_10
REMARK    4  A    between atoms: C_11  and  N_12
REMARK                            x       y       z     vdW  Elec       q    Type
REMARK                         _______ _______ _______ _____ _____    ______ ____
ROOT
ATOM      1  C   UNL     1       1.403   7.487  21.003  0.00  0.00    +0.000 C 
ATOM      2  C   UNL     1       2.161   6.737  19.940  0.00  0.00    +0.000 C 
ATOM      3  C   UNL     1       2.695   7.322  18.849  0.00  0.00    +0.000 C 
ATOM      4  C   UNL     1       3.555   6.452  17.969  0.00  0.00    +0.000 C 
ATOM      5  O   UNL     1       4.427   6.904  17.234  0.00  0.00    +0.000 OA
ATOM      6  C   UNL     1       3.304   4.986  17.995  0.00  0.00    +0.000 C 
ATOM      7  C   UNL     1       3.837   4.189  16.836  0.00  0.00    +0.000 C 
ATOM      8  C   UNL     1       2.649   4.396  19.013  0.00  0.00    +0.000 C 
ATOM      9  C   UNL     1       2.276   5.269  20.185  0.00  0.00    +0.000 C 
ATOM     10  O   UNL     1       2.035   4.824  21.302  0.00  0.00    +0.000 OA
ENDROOT
BRANCH   3  11
ATOM     11  N   UNL     1       2.390   8.646  18.522  0.00  0.00    +0.000 N 
ATOM     12  C   UNL     1       1.342   8.913  17.542  0.00  0.00    +0.000 C 
ATOM     13  C   UNL     1       1.218   9.375  18.971  0.00  0.00    +0.000 C 
ENDBRANCH   3  11
BRANCH   8  14
ATOM     14  N   UNL     1       2.283   3.055  18.927  0.00  0.00    +0.000 N 
ATOM     15  C   UNL     1       1.746   2.395  20.114  0.00  0.00    +0.000 C 
ATOM     16  C   UNL     1       0.930   2.541  18.855  0.00  0.00    +0.000 C 
ENDBRANCH   8  14
TORSDOF 2
ENDMDL
MODEL 9
REMARK VINA RESULT:      -4.9      2.222      4.632
REMARK  Name = 
REMARK  4 active torsions:
REMARK  status: ('A' for Active; 'I' for Inactive)
REMARK    1  A    between atoms: C_1  and  C_2
REMARK    2  A    between atoms: C_3  and  N_4
REMARK    3  A    between atoms: C_9  and  C_10
REMARK    4  A    between atoms: C_11  and  N_12
REMARK                            x       y       z     vdW  Elec       q    Type
REMARK                         _______ _______ _______ _____ _____    ______ ____
ROOT
ATOM      1  C   UNL     1       3.267   7.933  17.866  0.00  0.00    +0.000 C 
ATOM      2  C   UNL     1       3.267   6.431  17.762  0.00  0.00    +0.000 C 
ATOM      3  C   UNL     1       2.409   5.635  18.432  0.00  0.00    +0.000 C 
ATOM      4  C   UNL     1       2.442   4.167  18.091  0.00  0.00    +0.000 C 
ATOM      5  O   UNL     1       1.484   3.421  18.265  0.00  0.00    +0.000 OA
ATOM      6  C   UNL     1       3.710   3.619  17.539  0.00  0.00    +0.000 C 
ATOM      7  C   UNL     1       3.886   2.126  17.609  0.00  0.00    +0.000 C 
ATOM      8  C   UNL     1       4.646   4.413  16.986  0.00  0.00    +0.000 C 
ATOM      9  C   UNL     1       4.308   5.876  16.848  0.00  0.00    +0.000 C 
ATOM     10  O   UNL     1       4.869   6.620  16.051  0.00  0.00    +0.000 OA
ENDROOT
BRANCH   3  11
ATOM     11  N   UNL     1       1.595   6.149  19.446  0.00  0.00    +0.000 N 
ATOM     12  C   UNL     1       1.667   5.563  20.780  0.00  0.00    +0.000 C 
ATOM     13  C   UNL     1       2.042   7.001  20.532  0.00  0.00    +0.000 C 
ENDBRANCH   3  11
BRANCH   8  14
ATOM     14  N   UNL     1       5.889   3.891  16.633  0.00  0.00    +0.000 N 
ATOM     15  C   UNL     1       6.307   3.953  15.236  0.00  0.00    +0.000 C 
ATOM     16  C   UNL     1       7.080   4.655  16.323  0.00  0.00    +0.000 C 
ENDBRANCH   8  14
TORSDOF 2
ENDMDL
