MODEL 1
REMARK VINA RESULT:      -8.6      0.000      0.000
REMARK  Name = 
REMARK  3 active torsions:
REMARK  status: ('A' for Active; 'I' for Inactive)
REMARK    1  A    between atoms: N_2  and  C_4
REMARK    2  A    between atoms: N_7  and  N_8
REMARK    3  A    between atoms: C_11  and  C_12
REMARK                            x       y       z     vdW  Elec       q    Type
REMARK                         _______ _______ _______ _____ _____    ______ ____
ROOT
ATOM      1  N   UNL     1       2.072   6.878  20.523  0.00  0.00    +0.000 N 
ATOM      2  C   UNL     1       2.567   5.904  19.702  0.00  0.00    +0.000 A 
ATOM      3  N   UNL     1       3.386   6.096  18.693  0.00  0.00    +0.000 NA
ATOM      4  C   UNL     1       3.656   4.910  18.035  0.00  0.00    +0.000 A 
ATOM      5  C   UNL     1       3.008   3.806  18.547  0.00  0.00    +0.000 A 
ATOM      6  S   UNL     1       2.101   4.256  19.932  0.00  0.00    +0.000 S 
ATOM      7  H   UNL     1       1.451   6.547  21.254  0.00  0.00    +0.000 HD
ENDROOT
BRANCH   1  11
ATOM      8  C   UNL     1      -0.838   9.851  21.795  0.00  0.00    +0.000 C 
ATOM      9  C   UNL     1      -0.082   8.528  21.571  0.00  0.00    +0.000 C 
ATOM     10  C   UNL     1       0.929   8.865  20.504  0.00  0.00    +0.000 C 
ATOM     11  N   UNL     1       1.898   8.142  20.047  0.00  0.00    +0.000 NA
ATOM     12  C   UNL     1       0.651  10.189  19.962  0.00  0.00    +0.000 A 
ATOM     13  C   UNL     1       1.255  10.817  18.888  0.00  0.00    +0.000 A 
ATOM     14  C   UNL     1       0.782  12.079  18.532  0.00  0.00    +0.000 A 
ATOM     15  C   UNL     1      -0.274  12.670  19.247  0.00  0.00    +0.000 A 
ATOM     16  C   UNL     1      -0.870  12.009  20.330  0.00  0.00    +0.000 A 
ATOM     17  C   UNL     1      -0.392  10.757  20.686  0.00  0.00    +0.000 A 
BRANCH   8  19
ATOM     18  O   UNL     1       0.337   9.751  23.814  0.00  0.00    +0.000 OA
ATOM     19  N   UNL     1      -0.423  10.442  23.124  0.00  0.00    +0.000 N 
ATOM     20  O   UNL     1      -0.829  11.574  23.421  0.00  0.00    +0.000 OA
ENDBRANCH   8  19
ENDBRANCH   1  11
BRANCH   4  21
ATOM     21  C   UNL     1       4.586   4.883  16.915  0.00  0.00    +0.000 A 
ATOM     22  C   UNL     1       4.941   6.093  16.301  0.00  0.00    +0.000 A 
ATOM     23  C   UNL     1       5.812   6.108  15.208  0.00  0.00    +0.000 A 
ATOM     24  C   UNL     1       6.322   4.912  14.720  0.00  0.00    +0.000 A 
ATOM     25 CL   UNL     1       7.370   4.922  13.356  0.00  0.00    +0.000 Cl
ATOM     26  C   UNL     1       5.984   3.699  15.324  0.00  0.00    +0.000 A 
ATOM     27  C   UNL     1       5.121   3.684  16.422  0.00  0.00    +0.000 A 
ENDBRANCH   4  21
TORSDOF 3
ENDMDL
MODEL 2
REMARK VINA RESULT:      -8.6      4.290      8.289
REMARK  Name = 
REMARK  3 active torsions:
REMARK  status: ('A' for Active; 'I' for Inactive)
REMARK    1  A    between atoms: N_2  and  C_4
REMARK    2  A    between atoms: N_7  and  N_8
REMARK    3  A    between atoms: C_11  and  C_12
REMARK                            x       y       z     vdW  Elec       q    Type
REMARK                         _______ _______ _______ _____ _____    ______ ____
ROOT
ATOM      1  N   UNL     1       2.204   7.643  20.651  0.00  0.00    +0.000 N 
ATOM      2  C   UNL     1       1.219   8.590  20.684  0.00  0.00    +0.000 A 
ATOM      3  N   UNL     1       0.433   8.913  19.682  0.00  0.00    +0.000 NA
ATOM      4  C   UNL     1      -0.422   9.943  20.028  0.00  0.00    +0.000 A 
ATOM      5  C   UNL     1      -0.261  10.420  21.312  0.00  0.00    +0.000 A 
ATOM      6  S   UNL     1       0.939   9.502  22.125  0.00  0.00    +0.000 S 
ATOM      7  H   UNL     1       2.712   7.525  21.521  0.00  0.00    +0.000 HD
ENDROOT
BRANCH   1  11
ATOM      8  C   UNL     1       2.924   3.766  18.816  0.00  0.00    +0.000 C 
ATOM      9  C   UNL     1       2.583   4.882  19.820  0.00  0.00    +0.000 C 
ATOM     10  C   UNL     1       3.026   6.145  19.124  0.00  0.00    +0.000 C 
ATOM     11  N   UNL     1       2.845   7.374  19.481  0.00  0.00    +0.000 NA
ATOM     12  C   UNL     1       3.783   5.807  17.926  0.00  0.00    +0.000 A 
ATOM     13  C   UNL     1       4.471   6.658  17.080  0.00  0.00    +0.000 A 
ATOM     14  C   UNL     1       5.160   6.087  16.013  0.00  0.00    +0.000 A 
ATOM     15  C   UNL     1       5.148   4.693  15.823  0.00  0.00    +0.000 A 
ATOM     16  C   UNL     1       4.444   3.853  16.697  0.00  0.00    +0.000 A 
ATOM     17  C   UNL     1       3.754   4.426  17.755  0.00  0.00    +0.000 A 
BRANCH   8  19
ATOM     18  O   UNL     1       1.079   3.996  17.398  0.00  0.00    +0.000 OA
ATOM     19  N   UNL     1       1.646   3.242  18.200  0.00  0.00    +0.000 N 
ATOM     20  O   UNL     1       1.269   2.100  18.498  0.00  0.00    +0.000 OA
ENDBRANCH   8  19
ENDBRANCH   1  11
BRANCH   4  21
ATOM     21  C   UNL     1      -1.418  10.425  19.082  0.00  0.00    +0.000 A 
ATOM     22  C   UNL     1      -2.323  11.414  19.498  0.00  0.00    +0.000 A 
ATOM     23  C   UNL     1      -3.310  11.886  18.628  0.00  0.00    +0.000 A 
ATOM     24  C   UNL     1      -3.402  11.364  17.345  0.00  0.00    +0.000 A 
ATOM     25 CL   UNL     1      -4.634  11.920  16.282  0.00  0.00    +0.000 Cl
ATOM     26  C   UNL     1      -2.505  10.385  16.913  0.00  0.00    +0.000 A 
ATOM     27  C   UNL     1      -1.512   9.919  17.779  0.00  0.00    +0.000 A 
ENDBRANCH   4  21
TORSDOF 3
ENDMDL
MODEL 3
REMARK VINA RESULT:      -8.4      4.248      8.246
REMARK  Name = 
REMARK  3 active torsions:
REMARK  status: ('A' for Active; 'I' for Inactive)
REMARK    1  A    between atoms: N_2  and  C_4
REMARK    2  A    between atoms: N_7  and  N_8
REMARK    3  A    between atoms: C_11  and  C_12
REMARK                            x       y       z     vdW  Elec       q    Type
REMARK                         _______ _______ _______ _____ _____    ______ ____
ROOT
ATOM      1  N   UNL     1       2.229   7.622  20.667  0.00  0.00    +0.000 N 
ATOM      2  C   UNL     1       1.239   8.564  20.692  0.00  0.00    +0.000 A 
ATOM      3  N   UNL     1       0.452   8.875  19.686  0.00  0.00    +0.000 NA
ATOM      4  C   UNL     1      -0.409   9.903  20.024  0.00  0.00    +0.000 A 
ATOM      5  C   UNL     1      -0.252  10.391  21.304  0.00  0.00    +0.000 A 
ATOM      6  S   UNL     1       0.953   9.485  22.125  0.00  0.00    +0.000 S 
ATOM      7  H   UNL     1       2.737   7.513  21.539  0.00  0.00    +0.000 HD
ENDROOT
BRANCH   1  11
ATOM      8  C   UNL     1       2.889   3.742  18.815  0.00  0.00    +0.000 C 
ATOM      9  C   UNL     1       2.562   4.858  19.824  0.00  0.00    +0.000 C 
ATOM     10  C   UNL     1       3.033   6.117  19.138  0.00  0.00    +0.000 C 
ATOM     11  N   UNL     1       2.873   7.347  19.500  0.00  0.00    +0.000 NA
ATOM     12  C   UNL     1       3.792   5.771  17.942  0.00  0.00    +0.000 A 
ATOM     13  C   UNL     1       4.501   6.614  17.106  0.00  0.00    +0.000 A 
ATOM     14  C   UNL     1       5.186   6.036  16.040  0.00  0.00    +0.000 A 
ATOM     15  C   UNL     1       5.150   4.644  15.842  0.00  0.00    +0.000 A 
ATOM     16  C   UNL     1       4.425   3.812  16.707  0.00  0.00    +0.000 A 
ATOM     17  C   UNL     1       3.738   4.392  17.763  0.00  0.00    +0.000 A 
BRANCH   8  19
ATOM     18  O   UNL     1       1.197   2.146  18.583  0.00  0.00    +0.000 OA
ATOM     19  N   UNL     1       1.606   3.245  18.188  0.00  0.00    +0.000 N 
ATOM     20  O   UNL     1       1.032   3.967  17.361  0.00  0.00    +0.000 OA
ENDBRANCH   8  19
ENDBRANCH   1  11
BRANCH   4  21
ATOM     21  C   UNL     1      -1.407  10.371  19.074  0.00  0.00    +0.000 A 
ATOM     22  C   UNL     1      -1.477   9.764  17.811  0.00  0.00    +0.000 A 
ATOM     23  C   UNL     1      -2.405  10.201  16.861  0.00  0.00    +0.000 A 
ATOM     24  C   UNL     1      -3.259  11.252  17.168  0.00  0.00    +0.000 A 
ATOM     25 CL   UNL     1      -4.381  11.813  15.992  0.00  0.00    +0.000 Cl
ATOM     26  C   UNL     1      -3.207  11.863  18.422  0.00  0.00    +0.000 A 
ATOM     27  C   UNL     1      -2.286  11.421  19.375  0.00  0.00    +0.000 A 
ENDBRANCH   4  21
TORSDOF 3
ENDMDL
MODEL 4
REMARK VINA RESULT:      -8.2      4.849      9.220
REMARK  Name = 
REMARK  3 active torsions:
REMARK  status: ('A' for Active; 'I' for Inactive)
REMARK    1  A    between atoms: N_2  and  C_4
REMARK    2  A    between atoms: N_7  and  N_8
REMARK    3  A    between atoms: C_11  and  C_12
REMARK                            x       y       z     vdW  Elec       q    Type
REMARK                         _______ _______ _______ _____ _____    ______ ____
ROOT
ATOM      1  N   UNL     1       2.564   8.299  18.747  0.00  0.00    +0.000 N 
ATOM      2  C   UNL     1       1.772   9.388  18.980  0.00  0.00    +0.000 A 
ATOM      3  N   UNL     1       0.951   9.536  19.995  0.00  0.00    +0.000 NA
ATOM      4  C   UNL     1       0.260  10.731  19.909  0.00  0.00    +0.000 A 
ATOM      5  C   UNL     1       0.552  11.489  18.796  0.00  0.00    +0.000 A 
ATOM      6  S   UNL     1       1.779  10.718  17.876  0.00  0.00    +0.000 S 
ATOM      7  H   UNL     1       3.139   8.359  17.914  0.00  0.00    +0.000 HD
ENDROOT
BRANCH   1  11
ATOM      8  C   UNL     1       4.032   4.408  17.473  0.00  0.00    +0.000 C 
ATOM      9  C   UNL     1       3.722   5.914  17.552  0.00  0.00    +0.000 C 
ATOM     10  C   UNL     1       2.673   6.013  18.631  0.00  0.00    +0.000 C 
ATOM     11  N   UNL     1       2.167   7.070  19.177  0.00  0.00    +0.000 NA
ATOM     12  C   UNL     1       2.215   4.678  18.997  0.00  0.00    +0.000 A 
ATOM     13  C   UNL     1       1.179   4.332  19.845  0.00  0.00    +0.000 A 
ATOM     14  C   UNL     1       0.904   2.976  20.005  0.00  0.00    +0.000 A 
ATOM     15  C   UNL     1       1.659   2.011  19.315  0.00  0.00    +0.000 A 
ATOM     16  C   UNL     1       2.702   2.390  18.459  0.00  0.00    +0.000 A 
ATOM     17  C   UNL     1       2.978   3.741  18.308  0.00  0.00    +0.000 A 
BRANCH   8  19
ATOM     18  O   UNL     1       6.361   4.284  17.322  0.00  0.00    +0.000 OA
ATOM     19  N   UNL     1       5.392   4.146  18.079  0.00  0.00    +0.000 N 
ATOM     20  O   UNL     1       5.459   3.852  19.281  0.00  0.00    +0.000 OA
ENDBRANCH   8  19
ENDBRANCH   1  11
BRANCH   4  21
ATOM     21  C   UNL     1      -0.668  11.123  20.961  0.00  0.00    +0.000 A 
ATOM     22  C   UNL     1      -1.668  12.062  20.665  0.00  0.00    +0.000 A 
ATOM     23  C   UNL     1      -2.563  12.483  21.652  0.00  0.00    +0.000 A 
ATOM     24  C   UNL     1      -2.455  11.975  22.940  0.00  0.00    +0.000 A 
ATOM     25 CL   UNL     1      -3.535  12.514  24.164  0.00  0.00    +0.000 Cl
ATOM     26  C   UNL     1      -1.470  11.035  23.249  0.00  0.00    +0.000 A 
ATOM     27  C   UNL     1      -0.581  10.606  22.261  0.00  0.00    +0.000 A 
ENDBRANCH   4  21
TORSDOF 3
ENDMDL
MODEL 5
REMARK VINA RESULT:      -8.2      1.121      1.462
REMARK  Name = 
REMARK  3 active torsions:
REMARK  status: ('A' for Active; 'I' for Inactive)
REMARK    1  A    between atoms: N_2  and  C_4
REMARK    2  A    between atoms: N_7  and  N_8
REMARK    3  A    between atoms: C_11  and  C_12
REMARK                            x       y       z     vdW  Elec       q    Type
REMARK                         _______ _______ _______ _____ _____    ______ ____
ROOT
ATOM      1  N   UNL     1       2.910   6.274  20.067  0.00  0.00    +0.000 N 
ATOM      2  C   UNL     1       3.481   5.370  19.215  0.00  0.00    +0.000 A 
ATOM      3  N   UNL     1       4.148   5.664  18.122  0.00  0.00    +0.000 NA
ATOM      4  C   UNL     1       4.552   4.518  17.461  0.00  0.00    +0.000 A 
ATOM      5  C   UNL     1       4.161   3.339  18.057  0.00  0.00    +0.000 A 
ATOM      6  S   UNL     1       3.335   3.676  19.523  0.00  0.00    +0.000 S 
ATOM      7  H   UNL     1       2.433   5.868  20.865  0.00  0.00    +0.000 HD
ENDROOT
BRANCH   1  11
ATOM      8  C   UNL     1      -0.158   8.869  21.732  0.00  0.00    +0.000 C 
ATOM      9  C   UNL     1       0.738   7.657  21.420  0.00  0.00    +0.000 C 
ATOM     10  C   UNL     1       1.495   8.074  20.184  0.00  0.00    +0.000 C 
ATOM     11  N   UNL     1       2.472   7.472  19.589  0.00  0.00    +0.000 NA
ATOM     12  C   UNL     1       0.936   9.313  19.658  0.00  0.00    +0.000 A 
ATOM     13  C   UNL     1       1.251   9.959  18.477  0.00  0.00    +0.000 A 
ATOM     14  C   UNL     1       0.542  11.119  18.170  0.00  0.00    +0.000 A 
ATOM     15  C   UNL     1      -0.457  11.593  19.039  0.00  0.00    +0.000 A 
ATOM     16  C   UNL     1      -0.757  10.916  20.228  0.00  0.00    +0.000 A 
ATOM     17  C   UNL     1      -0.045   9.766  20.535  0.00  0.00    +0.000 A 
BRANCH   8  19
ATOM     18  O   UNL     1      -0.457  10.171  23.651  0.00  0.00    +0.000 OA
ATOM     19  N   UNL     1       0.379   9.587  22.949  0.00  0.00    +0.000 N 
ATOM     20  O   UNL     1       1.592   9.520  23.190  0.00  0.00    +0.000 OA
ENDBRANCH   8  19
ENDBRANCH   1  11
BRANCH   4  21
ATOM     21  C   UNL     1       5.355   4.610  16.249  0.00  0.00    +0.000 A 
ATOM     22  C   UNL     1       4.815   4.140  15.043  0.00  0.00    +0.000 A 
ATOM     23  C   UNL     1       5.562   4.188  13.862  0.00  0.00    +0.000 A 
ATOM     24  C   UNL     1       6.854   4.697  13.887  0.00  0.00    +0.000 A 
ATOM     25 CL   UNL     1       7.787   4.729  12.443  0.00  0.00    +0.000 Cl
ATOM     26  C   UNL     1       7.403   5.175  15.078  0.00  0.00    +0.000 A 
ATOM     27  C   UNL     1       6.654   5.136  16.257  0.00  0.00    +0.000 A 
ENDBRANCH   4  21
TORSDOF 3
ENDMDL
MODEL 6
REMARK VINA RESULT:      -8.1      4.864      9.246
REMARK  Name = 
REMARK  3 active torsions:
REMARK  status: ('A' for Active; 'I' for Inactive)
REMARK    1  A    between atoms: N_2  and  C_4
REMARK    2  A    between atoms: N_7  and  N_8
REMARK    3  A    between atoms: C_11  and  C_12
REMARK                            x       y       z     vdW  Elec       q    Type
REMARK                         _______ _______ _______ _____ _____    ______ ____
ROOT
ATOM      1  N   UNL     1       2.518   8.390  18.895  0.00  0.00    +0.000 N 
ATOM      2  C   UNL     1       1.701   9.471  19.070  0.00  0.00    +0.000 A 
ATOM      3  N   UNL     1       0.885   9.660  20.082  0.00  0.00    +0.000 NA
ATOM      4  C   UNL     1       0.164  10.831  19.932  0.00  0.00    +0.000 A 
ATOM      5  C   UNL     1       0.428  11.527  18.772  0.00  0.00    +0.000 A 
ATOM      6  S   UNL     1       1.665  10.731  17.887  0.00  0.00    +0.000 S 
ATOM      7  H   UNL     1       3.083   8.412  18.053  0.00  0.00    +0.000 HD
ENDROOT
BRANCH   1  11
ATOM      8  C   UNL     1       3.847   4.444  17.637  0.00  0.00    +0.000 C 
ATOM      9  C   UNL     1       3.553   5.954  17.688  0.00  0.00    +0.000 C 
ATOM     10  C   UNL     1       2.605   6.100  18.852  0.00  0.00    +0.000 C 
ATOM     11  N   UNL     1       2.155   7.179  19.403  0.00  0.00    +0.000 NA
ATOM     12  C   UNL     1       2.176   4.783  19.306  0.00  0.00    +0.000 A 
ATOM     13  C   UNL     1       1.218   4.475  20.255  0.00  0.00    +0.000 A 
ATOM     14  C   UNL     1       0.952   3.127  20.487  0.00  0.00    +0.000 A 
ATOM     15  C   UNL     1       1.639   2.133  19.768  0.00  0.00    +0.000 A 
ATOM     16  C   UNL     1       2.603   2.473  18.809  0.00  0.00    +0.000 A 
ATOM     17  C   UNL     1       2.870   3.816  18.585  0.00  0.00    +0.000 A 
BRANCH   8  19
ATOM     18  O   UNL     1       5.374   3.937  19.333  0.00  0.00    +0.000 OA
ATOM     19  N   UNL     1       5.255   4.194  18.128  0.00  0.00    +0.000 N 
ATOM     20  O   UNL     1       6.183   4.223  17.308  0.00  0.00    +0.000 OA
ENDBRANCH   8  19
ENDBRANCH   1  11
BRANCH   4  21
ATOM     21  C   UNL     1      -0.763  11.264  20.967  0.00  0.00    +0.000 A 
ATOM     22  C   UNL     1      -0.632  10.732  22.259  0.00  0.00    +0.000 A 
ATOM     23  C   UNL     1      -1.517  11.104  23.275  0.00  0.00    +0.000 A 
ATOM     24  C   UNL     1      -2.542  12.000  23.000  0.00  0.00    +0.000 A 
ATOM     25 CL   UNL     1      -3.651  12.436  24.239  0.00  0.00    +0.000 Cl
ATOM     26  C   UNL     1      -2.682  12.543  21.722  0.00  0.00    +0.000 A 
ATOM     27  C   UNL     1      -1.792  12.180  20.708  0.00  0.00    +0.000 A 
ENDBRANCH   4  21
TORSDOF 3
ENDMDL
MODEL 7
REMARK VINA RESULT:      -7.9      4.238      8.498
REMARK  Name = 
REMARK  3 active torsions:
REMARK  status: ('A' for Active; 'I' for Inactive)
REMARK    1  A    between atoms: N_2  and  C_4
REMARK    2  A    between atoms: N_7  and  N_8
REMARK    3  A    between atoms: C_11  and  C_12
REMARK                            x       y       z     vdW  Elec       q    Type
REMARK                         _______ _______ _______ _____ _____    ______ ____
ROOT
ATOM      1  N   UNL     1       1.385   7.651  20.445  0.00  0.00    +0.000 N 
ATOM      2  C   UNL     1       1.009   8.900  20.851  0.00  0.00    +0.000 A 
ATOM      3  N   UNL     1       0.914   9.960  20.081  0.00  0.00    +0.000 NA
ATOM      4  C   UNL     1       0.557  11.079  20.811  0.00  0.00    +0.000 A 
ATOM      5  C   UNL     1       0.399  10.860  22.163  0.00  0.00    +0.000 A 
ATOM      6  S   UNL     1       0.632   9.196  22.511  0.00  0.00    +0.000 S 
ATOM      7  H   UNL     1       1.401   6.949  21.177  0.00  0.00    +0.000 HD
ENDROOT
BRANCH   1  11
ATOM      8  C   UNL     1       2.984   3.973  18.760  0.00  0.00    +0.000 C 
ATOM      9  C   UNL     1       2.319   5.000  19.694  0.00  0.00    +0.000 C 
ATOM     10  C   UNL     1       2.662   6.331  19.072  0.00  0.00    +0.000 C 
ATOM     11  N   UNL     1       2.237   7.510  19.391  0.00  0.00    +0.000 NA
ATOM     12  C   UNL     1       3.641   6.141  18.009  0.00  0.00    +0.000 A 
ATOM     13  C   UNL     1       4.310   7.107  17.280  0.00  0.00    +0.000 A 
ATOM     14  C   UNL     1       5.239   6.673  16.337  0.00  0.00    +0.000 A 
ATOM     15  C   UNL     1       5.476   5.299  16.153  0.00  0.00    +0.000 A 
ATOM     16  C   UNL     1       4.785   4.341  16.907  0.00  0.00    +0.000 A 
ATOM     17  C   UNL     1       3.856   4.777  17.841  0.00  0.00    +0.000 A 
BRANCH   8  19
ATOM     18  O   UNL     1       1.919   2.033  18.006  0.00  0.00    +0.000 OA
ATOM     19  N   UNL     1       1.917   3.270  17.952  0.00  0.00    +0.000 N 
ATOM     20  O   UNL     1       1.099   3.957  17.326  0.00  0.00    +0.000 OA
ENDBRANCH   8  19
ENDBRANCH   1  11
BRANCH   4  21
ATOM     21  C   UNL     1       0.343  12.356  20.146  0.00  0.00    +0.000 A 
ATOM     22  C   UNL     1       0.690  13.536  20.821  0.00  0.00    +0.000 A 
ATOM     23  C   UNL     1       0.479  14.784  20.228  0.00  0.00    +0.000 A 
ATOM     24  C   UNL     1      -0.090  14.856  18.963  0.00  0.00    +0.000 A 
ATOM     25 CL   UNL     1      -0.381  16.390  18.242  0.00  0.00    +0.000 Cl
ATOM     26  C   UNL     1      -0.436  13.691  18.275  0.00  0.00    +0.000 A 
ATOM     27  C   UNL     1      -0.216  12.443  18.864  0.00  0.00    +0.000 A 
ENDBRANCH   4  21
TORSDOF 3
ENDMDL
MODEL 8
REMARK VINA RESULT:      -7.9      4.226      8.528
REMARK  Name = 
REMARK  3 active torsions:
REMARK  status: ('A' for Active; 'I' for Inactive)
REMARK    1  A    between atoms: N_2  and  C_4
REMARK    2  A    between atoms: N_7  and  N_8
REMARK    3  A    between atoms: C_11  and  C_12
REMARK                            x       y       z     vdW  Elec       q    Type
REMARK                         _______ _______ _______ _____ _____    ______ ____
ROOT
ATOM      1  N   UNL     1       1.390   7.602  20.413  0.00  0.00    +0.000 N 
ATOM      2  C   UNL     1       0.994   8.833  20.855  0.00  0.00    +0.000 A 
ATOM      3  N   UNL     1       0.895   9.917  20.119  0.00  0.00    +0.000 NA
ATOM      4  C   UNL     1       0.515  11.006  20.881  0.00  0.00    +0.000 A 
ATOM      5  C   UNL     1       0.345  10.741  22.223  0.00  0.00    +0.000 A 
ATOM      6  S   UNL     1       0.593   9.069  22.520  0.00  0.00    +0.000 S 
ATOM      7  H   UNL     1       1.405   6.877  21.122  0.00  0.00    +0.000 HD
ENDROOT
BRANCH   1  11
ATOM      8  C   UNL     1       3.014   3.999  18.597  0.00  0.00    +0.000 C 
ATOM      9  C   UNL     1       2.336   4.986  19.564  0.00  0.00    +0.000 C 
ATOM     10  C   UNL     1       2.685   6.342  19.003  0.00  0.00    +0.000 C 
ATOM     11  N   UNL     1       2.255   7.506  19.366  0.00  0.00    +0.000 NA
ATOM     12  C   UNL     1       3.678   6.197  17.946  0.00  0.00    +0.000 A 
ATOM     13  C   UNL     1       4.356   7.192  17.267  0.00  0.00    +0.000 A 
ATOM     14  C   UNL     1       5.298   6.798  16.319  0.00  0.00    +0.000 A 
ATOM     15  C   UNL     1       5.538   5.434  16.080  0.00  0.00    +0.000 A 
ATOM     16  C   UNL     1       4.838   4.445  16.785  0.00  0.00    +0.000 A 
ATOM     17  C   UNL     1       3.897   4.841  17.724  0.00  0.00    +0.000 A 
BRANCH   8  19
ATOM     18  O   UNL     1       1.023   4.050  17.373  0.00  0.00    +0.000 OA
ATOM     19  N   UNL     1       1.958   3.330  17.746  0.00  0.00    +0.000 N 
ATOM     20  O   UNL     1       2.106   2.137  17.447  0.00  0.00    +0.000 OA
ENDBRANCH   8  19
ENDBRANCH   1  11
BRANCH   4  21
ATOM     21  C   UNL     1       0.294  12.302  20.256  0.00  0.00    +0.000 A 
ATOM     22  C   UNL     1      -0.163  12.345  18.930  0.00  0.00    +0.000 A 
ATOM     23  C   UNL     1      -0.365  13.569  18.286  0.00  0.00    +0.000 A 
ATOM     24  C   UNL     1      -0.102  14.753  18.962  0.00  0.00    +0.000 A 
ATOM     25 CL   UNL     1      -0.320  16.260  18.163  0.00  0.00    +0.000 Cl
ATOM     26  C   UNL     1       0.346  14.728  20.284  0.00  0.00    +0.000 A 
ATOM     27  C   UNL     1       0.540  13.506  20.932  0.00  0.00    +0.000 A 
ENDBRANCH   4  21
TORSDOF 3
ENDMDL
MODEL 9
REMARK VINA RESULT:      -7.7      1.386      1.772
REMARK  Name = 
REMARK  3 active torsions:
REMARK  status: ('A' for Active; 'I' for Inactive)
REMARK    1  A    between atoms: N_2  and  C_4
REMARK    2  A    between atoms: N_7  and  N_8
REMARK    3  A    between atoms: C_11  and  C_12
REMARK                            x       y       z     vdW  Elec       q    Type
REMARK                         _______ _______ _______ _____ _____    ______ ____
ROOT
ATOM      1  N   UNL     1       1.545   7.677  20.677  0.00  0.00    +0.000 N 
ATOM      2  C   UNL     1       2.275   6.652  20.143  0.00  0.00    +0.000 A 
ATOM      3  N   UNL     1       2.869   6.664  18.971  0.00  0.00    +0.000 NA
ATOM      4  C   UNL     1       3.482   5.452  18.709  0.00  0.00    +0.000 A 
ATOM      5  C   UNL     1       3.328   4.502  19.696  0.00  0.00    +0.000 A 
ATOM      6  S   UNL     1       2.459   5.172  21.015  0.00  0.00    +0.000 S 
ATOM      7  H   UNL     1       1.159   7.493  21.597  0.00  0.00    +0.000 HD
ENDROOT
BRANCH   1  11
ATOM      8  C   UNL     1      -0.926  11.082  21.781  0.00  0.00    +0.000 C 
ATOM      9  C   UNL     1      -0.110   9.777  21.821  0.00  0.00    +0.000 C 
ATOM     10  C   UNL     1       0.136   9.458  20.367  0.00  0.00    +0.000 C 
ATOM     11  N   UNL     1       0.883   8.536  19.854  0.00  0.00    +0.000 NA
ATOM     12  C   UNL     1      -0.660  10.344  19.527  0.00  0.00    +0.000 A 
ATOM     13  C   UNL     1      -0.824  10.301  18.155  0.00  0.00    +0.000 A 
ATOM     14  C   UNL     1      -1.677  11.240  17.579  0.00  0.00    +0.000 A 
ATOM     15  C   UNL     1      -2.341  12.184  18.383  0.00  0.00    +0.000 A 
ATOM     16  C   UNL     1      -2.157  12.204  19.772  0.00  0.00    +0.000 A 
ATOM     17  C   UNL     1      -1.302  11.271  20.341  0.00  0.00    +0.000 A 
BRANCH   8  19
ATOM     18  O   UNL     1       0.995  12.400  21.583  0.00  0.00    +0.000 OA
ATOM     19  N   UNL     1      -0.050  12.232  22.225  0.00  0.00    +0.000 N 
ATOM     20  O   UNL     1      -0.437  12.945  23.161  0.00  0.00    +0.000 OA
ENDBRANCH   8  19
ENDBRANCH   1  11
BRANCH   4  21
ATOM     21  C   UNL     1       4.246   5.261  17.485  0.00  0.00    +0.000 A 
ATOM     22  C   UNL     1       4.610   3.959  17.110  0.00  0.00    +0.000 A 
ATOM     23  C   UNL     1       5.364   3.735  15.955  0.00  0.00    +0.000 A 
ATOM     24  C   UNL     1       5.766   4.813  15.177  0.00  0.00    +0.000 A 
ATOM     25 CL   UNL     1       6.720   4.545  13.772  0.00  0.00    +0.000 Cl
ATOM     26  C   UNL     1       5.406   6.115  15.532  0.00  0.00    +0.000 A 
ATOM     27  C   UNL     1       4.644   6.339  16.681  0.00  0.00    +0.000 A 
ENDBRANCH   4  21
TORSDOF 3
ENDMDL
