MODEL 1
REMARK VINA RESULT:      -7.5      0.000      0.000
REMARK  Name = 
REMARK  6 active torsions:
REMARK  status: ('A' for Active; 'I' for Inactive)
REMARK    1  A    between atoms: C_1  and  O_2
REMARK    2  A    between atoms: O_2  and  C_3
REMARK    3  A    between atoms: C_5  and  C_6
REMARK    4  A    between atoms: C_6  and  O_7
REMARK    5  A    between atoms: O_7  and  N_8
REMARK    6  A    between atoms: C_9  and  C_10
REMARK                            x       y       z     vdW  Elec       q    Type
REMARK                         _______ _______ _______ _____ _____    ______ ____
ROOT
ATOM      1  N   UNL     1       6.105   4.391  19.092  0.00  0.00    +0.000 NA
ATOM      2  C   UNL     1       4.898   4.048  18.762  0.00  0.00    +0.000 C 
ENDROOT
BRANCH   2   3
ATOM      3  C   UNL     1       3.861   3.494  19.706  0.00  0.00    +0.000 C 
ATOM      4  C   UNL     1       3.241   2.131  19.359  0.00  0.00    +0.000 C 
ATOM      5  N   UNL     1       1.772   2.127  19.604  0.00  0.00    +0.000 NA
ATOM      6  C   UNL     1       1.482   2.642  20.963  0.00  0.00    +0.000 C 
ATOM      7  C   UNL     1       1.949   4.096  21.142  0.00  0.00    +0.000 C 
ATOM      8  C   UNL     1       2.726   4.526  19.888  0.00  0.00    +0.000 C 
ATOM      9  C   UNL     1       1.756   4.442  18.693  0.00  0.00    +0.000 C 
ATOM     10  C   UNL     1       1.147   3.034  18.618  0.00  0.00    +0.000 C 
ENDBRANCH   2   3
BRANCH   1  11
ATOM     11  O   UNL     1       6.722   4.867  17.920  0.00  0.00    +0.000 OA
BRANCH  11  12
ATOM     12  C   UNL     1       5.746   5.364  17.008  0.00  0.00    +0.000 C 
BRANCH  12  15
ATOM     13  C   UNL     1       6.832   4.513  13.620  0.00  0.00    +0.000 A 
ATOM     14  C   UNL     1       5.878   4.273  14.617  0.00  0.00    +0.000 A 
ATOM     15  C   UNL     1       6.276   5.084  15.656  0.00  0.00    +0.000 A 
ATOM     16  O   UNL     1       7.419   5.737  15.300  0.00  0.00    +0.000 OA
ATOM     17  N   UNL     1       7.776   5.373  14.008  0.00  0.00    +0.000 NA
BRANCH  13  19
ATOM     18  C   UNL     1       5.701   3.158  12.114  0.00  0.00    +0.000 C 
ATOM     19  O   UNL     1       6.857   3.939  12.398  0.00  0.00    +0.000 OA
ENDBRANCH  13  19
ENDBRANCH  12  15
ENDBRANCH  11  12
ENDBRANCH   1  11
TORSDOF 5
ENDMDL
MODEL 2
REMARK VINA RESULT:      -7.4      1.000      1.061
REMARK  Name = 
REMARK  6 active torsions:
REMARK  status: ('A' for Active; 'I' for Inactive)
REMARK    1  A    between atoms: C_1  and  O_2
REMARK    2  A    between atoms: O_2  and  C_3
REMARK    3  A    between atoms: C_5  and  C_6
REMARK    4  A    between atoms: C_6  and  O_7
REMARK    5  A    between atoms: O_7  and  N_8
REMARK    6  A    between atoms: C_9  and  C_10
REMARK                            x       y       z     vdW  Elec       q    Type
REMARK                         _______ _______ _______ _____ _____    ______ ____
ROOT
ATOM      1  N   UNL     1       5.906   4.397  18.746  0.00  0.00    +0.000 NA
ATOM      2  C   UNL     1       4.864   4.860  19.363  0.00  0.00    +0.000 C 
ENDROOT
BRANCH   2   3
ATOM      3  C   UNL     1       3.672   4.044  19.795  0.00  0.00    +0.000 C 
ATOM      4  C   UNL     1       3.779   2.515  19.681  0.00  0.00    +0.000 C 
ATOM      5  N   UNL     1       2.519   1.922  19.152  0.00  0.00    +0.000 NA
ATOM      6  C   UNL     1       1.357   2.433  19.917  0.00  0.00    +0.000 C 
ATOM      7  C   UNL     1       1.208   3.959  19.791  0.00  0.00    +0.000 C 
ATOM      8  C   UNL     1       2.418   4.515  19.025  0.00  0.00    +0.000 C 
ATOM      9  C   UNL     1       2.407   3.881  17.621  0.00  0.00    +0.000 C 
ATOM     10  C   UNL     1       2.375   2.350  17.743  0.00  0.00    +0.000 C 
ENDBRANCH   2   3
BRANCH   1  11
ATOM     11  O   UNL     1       6.775   5.487  18.550  0.00  0.00    +0.000 OA
BRANCH  11  12
ATOM     12  C   UNL     1       6.238   6.387  17.584  0.00  0.00    +0.000 C 
BRANCH  12  15
ATOM     13  C   UNL     1       6.227   4.590  14.398  0.00  0.00    +0.000 A 
ATOM     14  C   UNL     1       5.496   4.883  15.556  0.00  0.00    +0.000 A 
ATOM     15  C   UNL     1       6.341   5.692  16.283  0.00  0.00    +0.000 A 
ATOM     16  O   UNL     1       7.514   5.837  15.603  0.00  0.00    +0.000 OA
ATOM     17  N   UNL     1       7.445   5.135  14.407  0.00  0.00    +0.000 NA
BRANCH  13  19
ATOM     18  C   UNL     1       6.725   3.764  12.289  0.00  0.00    +0.000 C 
ATOM     19  O   UNL     1       5.804   3.821  13.372  0.00  0.00    +0.000 OA
ENDBRANCH  13  19
ENDBRANCH  12  15
ENDBRANCH  11  12
ENDBRANCH   1  11
TORSDOF 5
ENDMDL
MODEL 3
REMARK VINA RESULT:      -7.3      1.131      1.209
REMARK  Name = 
REMARK  6 active torsions:
REMARK  status: ('A' for Active; 'I' for Inactive)
REMARK    1  A    between atoms: C_1  and  O_2
REMARK    2  A    between atoms: O_2  and  C_3
REMARK    3  A    between atoms: C_5  and  C_6
REMARK    4  A    between atoms: C_6  and  O_7
REMARK    5  A    between atoms: O_7  and  N_8
REMARK    6  A    between atoms: C_9  and  C_10
REMARK                            x       y       z     vdW  Elec       q    Type
REMARK                         _______ _______ _______ _____ _____    ______ ____
ROOT
ATOM      1  N   UNL     1       6.307   5.400  19.501  0.00  0.00    +0.000 NA
ATOM      2  C   UNL     1       5.164   5.059  18.991  0.00  0.00    +0.000 C 
ENDROOT
BRANCH   2   3
ATOM      3  C   UNL     1       3.939   4.671  19.780  0.00  0.00    +0.000 C 
ATOM      4  C   UNL     1       3.417   3.234  19.621  0.00  0.00    +0.000 C 
ATOM      5  N   UNL     1       1.931   3.206  19.526  0.00  0.00    +0.000 NA
ATOM      6  C   UNL     1       1.336   3.990  20.633  0.00  0.00    +0.000 C 
ATOM      7  C   UNL     1       1.748   5.471  20.578  0.00  0.00    +0.000 C 
ATOM      8  C   UNL     1       2.791   5.656  19.466  0.00  0.00    +0.000 C 
ATOM      9  C   UNL     1       2.122   5.260  18.135  0.00  0.00    +0.000 C 
ATOM     10  C   UNL     1       1.548   3.839  18.246  0.00  0.00    +0.000 C 
ENDBRANCH   2   3
BRANCH   1  11
ATOM     11  O   UNL     1       7.158   5.696  18.419  0.00  0.00    +0.000 OA
BRANCH  11  12
ATOM     12  C   UNL     1       7.600   4.496  17.788  0.00  0.00    +0.000 C 
BRANCH  12  15
ATOM     13  C   UNL     1       6.220   4.467  14.401  0.00  0.00    +0.000 A 
ATOM     14  C   UNL     1       6.231   3.822  15.644  0.00  0.00    +0.000 A 
ATOM     15  C   UNL     1       7.111   4.570  16.395  0.00  0.00    +0.000 A 
ATOM     16  O   UNL     1       7.612   5.577  15.624  0.00  0.00    +0.000 OA
ATOM     17  N   UNL     1       7.049   5.512  14.355  0.00  0.00    +0.000 NA
BRANCH  13  19
ATOM     18  C   UNL     1       6.230   3.334  12.377  0.00  0.00    +0.000 C 
ATOM     19  O   UNL     1       5.492   4.095  13.326  0.00  0.00    +0.000 OA
ENDBRANCH  13  19
ENDBRANCH  12  15
ENDBRANCH  11  12
ENDBRANCH   1  11
TORSDOF 5
ENDMDL
MODEL 4
REMARK VINA RESULT:      -7.1      1.248      1.881
REMARK  Name = 
REMARK  6 active torsions:
REMARK  status: ('A' for Active; 'I' for Inactive)
REMARK    1  A    between atoms: C_1  and  O_2
REMARK    2  A    between atoms: O_2  and  C_3
REMARK    3  A    between atoms: C_5  and  C_6
REMARK    4  A    between atoms: C_6  and  O_7
REMARK    5  A    between atoms: O_7  and  N_8
REMARK    6  A    between atoms: C_9  and  C_10
REMARK                            x       y       z     vdW  Elec       q    Type
REMARK                         _______ _______ _______ _____ _____    ______ ____
ROOT
ATOM      1  N   UNL     1       4.775   5.644  17.851  0.00  0.00    +0.000 NA
ATOM      2  C   UNL     1       4.283   5.263  18.989  0.00  0.00    +0.000 C 
ENDROOT
BRANCH   2   3
ATOM      3  C   UNL     1       2.906   4.682  19.193  0.00  0.00    +0.000 C 
ATOM      4  C   UNL     1       2.199   4.980  20.525  0.00  0.00    +0.000 C 
ATOM      5  N   UNL     1       1.512   3.770  21.055  0.00  0.00    +0.000 NA
ATOM      6  C   UNL     1       0.670   3.160  19.998  0.00  0.00    +0.000 C 
ATOM      7  C   UNL     1       1.504   2.695  18.792  0.00  0.00    +0.000 C 
ATOM      8  C   UNL     1       2.957   3.152  18.987  0.00  0.00    +0.000 C 
ATOM      9  C   UNL     1       3.486   2.477  20.267  0.00  0.00    +0.000 C 
ATOM     10  C   UNL     1       2.552   2.794  21.445  0.00  0.00    +0.000 C 
ENDBRANCH   2   3
BRANCH   1  11
ATOM     11  O   UNL     1       6.080   6.104  18.111  0.00  0.00    +0.000 OA
BRANCH  11  12
ATOM     12  C   UNL     1       7.035   5.086  17.823  0.00  0.00    +0.000 C 
BRANCH  12  15
ATOM     13  C   UNL     1       6.537   4.225  14.303  0.00  0.00    +0.000 A 
ATOM     14  C   UNL     1       6.207   3.900  15.624  0.00  0.00    +0.000 A 
ATOM     15  C   UNL     1       6.912   4.815  16.374  0.00  0.00    +0.000 A 
ATOM     16  O   UNL     1       7.639   5.612  15.539  0.00  0.00    +0.000 OA
ATOM     17  N   UNL     1       7.405   5.236  14.222  0.00  0.00    +0.000 NA
BRANCH  13  19
ATOM     18  C   UNL     1       6.856   3.859  12.034  0.00  0.00    +0.000 C 
ATOM     19  O   UNL     1       6.080   3.597  13.198  0.00  0.00    +0.000 OA
ENDBRANCH  13  19
ENDBRANCH  12  15
ENDBRANCH  11  12
ENDBRANCH   1  11
TORSDOF 5
ENDMDL
MODEL 5
REMARK VINA RESULT:      -7.1      0.973      1.055
REMARK  Name = 
REMARK  6 active torsions:
REMARK  status: ('A' for Active; 'I' for Inactive)
REMARK    1  A    between atoms: C_1  and  O_2
REMARK    2  A    between atoms: O_2  and  C_3
REMARK    3  A    between atoms: C_5  and  C_6
REMARK    4  A    between atoms: C_6  and  O_7
REMARK    5  A    between atoms: O_7  and  N_8
REMARK    6  A    between atoms: C_9  and  C_10
REMARK                            x       y       z     vdW  Elec       q    Type
REMARK                         _______ _______ _______ _____ _____    ______ ____
ROOT
ATOM      1  N   UNL     1       6.908   4.268  18.351  0.00  0.00    +0.000 NA
ATOM      2  C   UNL     1       5.647   4.547  18.226  0.00  0.00    +0.000 C 
ENDROOT
BRANCH   2   3
ATOM      3  C   UNL     1       4.571   4.180  19.216  0.00  0.00    +0.000 C 
ATOM      4  C   UNL     1       3.980   2.764  19.132  0.00  0.00    +0.000 C 
ATOM      5  N   UNL     1       2.501   2.783  19.306  0.00  0.00    +0.000 NA
ATOM      6  C   UNL     1       2.142   3.562  20.514  0.00  0.00    +0.000 C 
ATOM      7  C   UNL     1       2.588   5.030  20.409  0.00  0.00    +0.000 C 
ATOM      8  C   UNL     1       3.419   5.207  19.129  0.00  0.00    +0.000 C 
ATOM      9  C   UNL     1       2.509   4.860  17.935  0.00  0.00    +0.000 C 
ATOM     10  C   UNL     1       1.916   3.456  18.125  0.00  0.00    +0.000 C 
ENDBRANCH   2   3
BRANCH   1  11
ATOM     11  O   UNL     1       7.552   4.803  17.220  0.00  0.00    +0.000 OA
BRANCH  11  12
ATOM     12  C   UNL     1       6.635   5.555  16.431  0.00  0.00    +0.000 C 
BRANCH  12  15
ATOM     13  C   UNL     1       6.542   3.937  13.152  0.00  0.00    +0.000 A 
ATOM     14  C   UNL     1       5.990   3.961  14.439  0.00  0.00    +0.000 A 
ATOM     15  C   UNL     1       6.686   4.963  15.077  0.00  0.00    +0.000 A 
ATOM     16  O   UNL     1       7.616   5.476  14.220  0.00  0.00    +0.000 OA
ATOM     17  N   UNL     1       7.528   4.823  12.997  0.00  0.00    +0.000 NA
BRANCH  13  19
ATOM     18  C   UNL     1       4.798   3.220  11.799  0.00  0.00    +0.000 C 
ATOM     19  O   UNL     1       6.173   3.108  12.151  0.00  0.00    +0.000 OA
ENDBRANCH  13  19
ENDBRANCH  12  15
ENDBRANCH  11  12
ENDBRANCH   1  11
TORSDOF 5
ENDMDL
MODEL 6
REMARK VINA RESULT:      -7.0      1.005      1.102
REMARK  Name = 
REMARK  6 active torsions:
REMARK  status: ('A' for Active; 'I' for Inactive)
REMARK    1  A    between atoms: C_1  and  O_2
REMARK    2  A    between atoms: O_2  and  C_3
REMARK    3  A    between atoms: C_5  and  C_6
REMARK    4  A    between atoms: C_6  and  O_7
REMARK    5  A    between atoms: O_7  and  N_8
REMARK    6  A    between atoms: C_9  and  C_10
REMARK                            x       y       z     vdW  Elec       q    Type
REMARK                         _______ _______ _______ _____ _____    ______ ____
ROOT
ATOM      1  N   UNL     1       5.382   4.074  18.216  0.00  0.00    +0.000 NA
ATOM      2  C   UNL     1       4.880   3.618  19.321  0.00  0.00    +0.000 C 
ENDROOT
BRANCH   2   3
ATOM      3  C   UNL     1       3.451   3.177  19.514  0.00  0.00    +0.000 C 
ATOM      4  C   UNL     1       2.770   2.442  18.348  0.00  0.00    +0.000 C 
ATOM      5  N   UNL     1       1.370   2.912  18.156  0.00  0.00    +0.000 NA
ATOM      6  C   UNL     1       0.644   2.887  19.447  0.00  0.00    +0.000 C 
ATOM      7  C   UNL     1       1.280   3.826  20.486  0.00  0.00    +0.000 C 
ATOM      8  C   UNL     1       2.585   4.395  19.909  0.00  0.00    +0.000 C 
ATOM      9  C   UNL     1       2.220   5.199  18.646  0.00  0.00    +0.000 C 
ATOM     10  C   UNL     1       1.425   4.310  17.677  0.00  0.00    +0.000 C 
ENDBRANCH   2   3
BRANCH   1  11
ATOM     11  O   UNL     1       6.739   4.347  18.472  0.00  0.00    +0.000 OA
BRANCH  11  12
ATOM     12  C   UNL     1       7.171   5.479  17.721  0.00  0.00    +0.000 C 
BRANCH  12  15
ATOM     13  C   UNL     1       6.562   4.377  14.287  0.00  0.00    +0.000 A 
ATOM     14  C   UNL     1       6.275   4.144  15.637  0.00  0.00    +0.000 A 
ATOM     15  C   UNL     1       7.002   5.109  16.299  0.00  0.00    +0.000 A 
ATOM     16  O   UNL     1       7.701   5.844  15.389  0.00  0.00    +0.000 OA
ATOM     17  N   UNL     1       7.426   5.379  14.109  0.00  0.00    +0.000 NA
BRANCH  13  19
ATOM     18  C   UNL     1       6.919   3.686  12.101  0.00  0.00    +0.000 C 
ATOM     19  O   UNL     1       6.070   3.674  13.243  0.00  0.00    +0.000 OA
ENDBRANCH  13  19
ENDBRANCH  12  15
ENDBRANCH  11  12
ENDBRANCH   1  11
TORSDOF 5
ENDMDL
MODEL 7
REMARK VINA RESULT:      -7.0      1.292      1.702
REMARK  Name = 
REMARK  6 active torsions:
REMARK  status: ('A' for Active; 'I' for Inactive)
REMARK    1  A    between atoms: C_1  and  O_2
REMARK    2  A    between atoms: O_2  and  C_3
REMARK    3  A    between atoms: C_5  and  C_6
REMARK    4  A    between atoms: C_6  and  O_7
REMARK    5  A    between atoms: O_7  and  N_8
REMARK    6  A    between atoms: C_9  and  C_10
REMARK                            x       y       z     vdW  Elec       q    Type
REMARK                         _______ _______ _______ _____ _____    ______ ____
ROOT
ATOM      1  N   UNL     1       5.871   4.797  19.468  0.00  0.00    +0.000 NA
ATOM      2  C   UNL     1       4.727   5.164  18.978  0.00  0.00    +0.000 C 
ENDROOT
BRANCH   2   3
ATOM      3  C   UNL     1       3.399   4.523  19.291  0.00  0.00    +0.000 C 
ATOM      4  C   UNL     1       3.403   3.291  20.211  0.00  0.00    +0.000 C 
ATOM      5  N   UNL     1       2.470   2.242  19.715  0.00  0.00    +0.000 NA
ATOM      6  C   UNL     1       1.141   2.835  19.436  0.00  0.00    +0.000 C 
ATOM      7  C   UNL     1       1.208   3.913  18.340  0.00  0.00    +0.000 C 
ATOM      8  C   UNL     1       2.679   4.158  17.973  0.00  0.00    +0.000 C 
ATOM      9  C   UNL     1       3.246   2.834  17.427  0.00  0.00    +0.000 C 
ATOM     10  C   UNL     1       3.020   1.711  18.449  0.00  0.00    +0.000 C 
ENDBRANCH   2   3
BRANCH   1  11
ATOM     11  O   UNL     1       6.837   5.667  18.928  0.00  0.00    +0.000 OA
BRANCH  11  12
ATOM     12  C   UNL     1       7.719   4.958  18.061  0.00  0.00    +0.000 C 
BRANCH  12  15
ATOM     13  C   UNL     1       6.018   4.584  14.844  0.00  0.00    +0.000 A 
ATOM     14  C   UNL     1       6.542   3.909  15.954  0.00  0.00    +0.000 A 
ATOM     15  C   UNL     1       7.045   4.918  16.745  0.00  0.00    +0.000 A 
ATOM     16  O   UNL     1       6.855   6.114  16.119  0.00  0.00    +0.000 OA
ATOM     17  N   UNL     1       6.206   5.904  14.909  0.00  0.00    +0.000 NA
BRANCH  13  19
ATOM     18  C   UNL     1       6.305   3.666  12.733  0.00  0.00    +0.000 C 
ATOM     19  O   UNL     1       5.409   4.008  13.785  0.00  0.00    +0.000 OA
ENDBRANCH  13  19
ENDBRANCH  12  15
ENDBRANCH  11  12
ENDBRANCH   1  11
TORSDOF 5
ENDMDL
MODEL 8
REMARK VINA RESULT:      -7.0      1.523      2.046
REMARK  Name = 
REMARK  6 active torsions:
REMARK  status: ('A' for Active; 'I' for Inactive)
REMARK    1  A    between atoms: C_1  and  O_2
REMARK    2  A    between atoms: O_2  and  C_3
REMARK    3  A    between atoms: C_5  and  C_6
REMARK    4  A    between atoms: C_6  and  O_7
REMARK    5  A    between atoms: O_7  and  N_8
REMARK    6  A    between atoms: C_9  and  C_10
REMARK                            x       y       z     vdW  Elec       q    Type
REMARK                         _______ _______ _______ _____ _____    ______ ____
ROOT
ATOM      1  N   UNL     1       3.530   6.810  17.891  0.00  0.00    +0.000 NA
ATOM      2  C   UNL     1       3.425   5.528  18.057  0.00  0.00    +0.000 C 
ENDROOT
BRANCH   2   3
ATOM      3  C   UNL     1       2.379   4.841  18.898  0.00  0.00    +0.000 C 
ATOM      4  C   UNL     1       2.554   4.883  20.425  0.00  0.00    +0.000 C 
ATOM      5  N   UNL     1       2.236   3.566  21.042  0.00  0.00    +0.000 NA
ATOM      6  C   UNL     1       0.923   3.080  20.555  0.00  0.00    +0.000 C 
ATOM      7  C   UNL     1       0.917   2.860  19.033  0.00  0.00    +0.000 C 
ATOM      8  C   UNL     1       2.246   3.367  18.452  0.00  0.00    +0.000 C 
ATOM      9  C   UNL     1       3.376   2.533  19.086  0.00  0.00    +0.000 C 
ATOM     10  C   UNL     1       3.277   2.605  20.617  0.00  0.00    +0.000 C 
ENDBRANCH   2   3
BRANCH   1  11
ATOM     11  O   UNL     1       4.623   7.015  17.027  0.00  0.00    +0.000 OA
BRANCH  11  12
ATOM     12  C   UNL     1       5.693   6.133  17.356  0.00  0.00    +0.000 C 
BRANCH  12  15
ATOM     13  C   UNL     1       6.474   4.453  14.202  0.00  0.00    +0.000 A 
ATOM     14  C   UNL     1       5.557   4.553  15.257  0.00  0.00    +0.000 A 
ATOM     15  C   UNL     1       6.107   5.508  16.082  0.00  0.00    +0.000 A 
ATOM     16  O   UNL     1       7.296   5.922  15.556  0.00  0.00    +0.000 OA
ATOM     17  N   UNL     1       7.532   5.250  14.363  0.00  0.00    +0.000 NA
BRANCH  13  19
ATOM     18  C   UNL     1       7.161   4.035  12.026  0.00  0.00    +0.000 C 
ATOM     19  O   UNL     1       6.361   3.635  13.134  0.00  0.00    +0.000 OA
ENDBRANCH  13  19
ENDBRANCH  12  15
ENDBRANCH  11  12
ENDBRANCH   1  11
TORSDOF 5
ENDMDL
MODEL 9
REMARK VINA RESULT:      -6.9      1.416      1.478
REMARK  Name = 
REMARK  6 active torsions:
REMARK  status: ('A' for Active; 'I' for Inactive)
REMARK    1  A    between atoms: C_1  and  O_2
REMARK    2  A    between atoms: O_2  and  C_3
REMARK    3  A    between atoms: C_5  and  C_6
REMARK    4  A    between atoms: C_6  and  O_7
REMARK    5  A    between atoms: O_7  and  N_8
REMARK    6  A    between atoms: C_9  and  C_10
REMARK                            x       y       z     vdW  Elec       q    Type
REMARK                         _______ _______ _______ _____ _____    ______ ____
ROOT
ATOM      1  N   UNL     1       3.625   6.535  18.123  0.00  0.00    +0.000 NA
ATOM      2  C   UNL     1       3.769   5.257  18.287  0.00  0.00    +0.000 C 
ENDROOT
BRANCH   2   3
ATOM      3  C   UNL     1       3.238   4.463  19.455  0.00  0.00    +0.000 C 
ATOM      4  C   UNL     1       3.687   2.998  19.581  0.00  0.00    +0.000 C 
ATOM      5  N   UNL     1       2.552   2.117  19.971  0.00  0.00    +0.000 NA
ATOM      6  C   UNL     1       1.851   2.682  21.148  0.00  0.00    +0.000 C 
ATOM      7  C   UNL     1       1.247   4.065  20.853  0.00  0.00    +0.000 C 
ATOM      8  C   UNL     1       1.694   4.514  19.453  0.00  0.00    +0.000 C 
ATOM      9  C   UNL     1       1.147   3.488  18.442  0.00  0.00    +0.000 C 
ATOM     10  C   UNL     1       1.602   2.075  18.838  0.00  0.00    +0.000 C 
ENDBRANCH   2   3
BRANCH   1  11
ATOM     11  O   UNL     1       4.254   6.857  16.905  0.00  0.00    +0.000 OA
BRANCH  11  12
ATOM     12  C   UNL     1       5.670   6.764  17.034  0.00  0.00    +0.000 C 
BRANCH  12  15
ATOM     13  C   UNL     1       6.511   4.518  14.272  0.00  0.00    +0.000 A 
ATOM     14  C   UNL     1       5.481   5.000  15.090  0.00  0.00    +0.000 A 
ATOM     15  C   UNL     1       6.118   5.881  15.935  0.00  0.00    +0.000 A 
ATOM     16  O   UNL     1       7.452   5.890  15.650  0.00  0.00    +0.000 OA
ATOM     17  N   UNL     1       7.704   5.021  14.595  0.00  0.00    +0.000 NA
BRANCH  13  19
ATOM     18  C   UNL     1       6.899   4.065  12.030  0.00  0.00    +0.000 C 
ATOM     19  O   UNL     1       6.369   3.619  13.274  0.00  0.00    +0.000 OA
ENDBRANCH  13  19
ENDBRANCH  12  15
ENDBRANCH  11  12
ENDBRANCH   1  11
TORSDOF 5
ENDMDL
