MODEL 1
REMARK VINA RESULT:      -7.8      0.000      0.000
REMARK  Name = 
REMARK  7 active torsions:
REMARK  status: ('A' for Active; 'I' for Inactive)
REMARK    1  A    between atoms: C_1  and  C_2
REMARK    2  A    between atoms: N_4  and  C_5
REMARK    3  A    between atoms: C_5  and  C_6
REMARK    4  A    between atoms: C_5  and  C_7
REMARK    5  A    between atoms: C_10  and  O_11
REMARK    6  A    between atoms: O_11  and  C_12
REMARK    7  A    between atoms: N_15  and  C_16
REMARK                            x       y       z     vdW  Elec       q    Type
REMARK                         _______ _______ _______ _____ _____    ______ ____
ROOT
ATOM      1  C   UNL     1       0.254  11.396  21.772  0.00  0.00    +0.000 C 
ATOM      2  C   UNL     1      -0.709  11.432  20.589  0.00  0.00    +0.000 C 
ATOM      3  C   UNL     1      -0.787   9.992  20.097  0.00  0.00    +0.000 C 
ATOM      4  N   UNL     1       0.515   9.400  20.405  0.00  0.00    +0.000 N 
ATOM      5  C   UNL     1       1.168  10.188  21.471  0.00  0.00    +0.000 C 
ENDROOT
BRANCH   4   6
ATOM      6  C   UNL     1       1.362   8.800  19.467  0.00  0.00    +0.000 A 
ATOM      7  C   UNL     1       1.764   9.481  18.313  0.00  0.00    +0.000 A 
ATOM      8  C   UNL     1       2.648   8.882  17.427  0.00  0.00    +0.000 A 
ATOM      9  N   UNL     1       3.184   7.657  17.594  0.00  0.00    +0.000 NA
ATOM     10  C   UNL     1       2.821   6.954  18.692  0.00  0.00    +0.000 A 
ATOM     11  N   UNL     1       3.415   5.694  18.889  0.00  0.00    +0.000 N 
ATOM     12  C   UNL     1       4.722   5.461  18.245  0.00  0.00    +0.000 C 
ATOM     13  C   UNL     1       4.490   4.398  17.179  0.00  0.00    +0.000 C 
ATOM     14  C   UNL     1       3.415   3.551  17.812  0.00  0.00    +0.000 C 
ATOM     15  F   UNL     1       2.750   2.829  16.890  0.00  0.00    +0.000 F 
ATOM     16  F   UNL     1       3.966   2.681  18.692  0.00  0.00    +0.000 F 
ATOM     17  C   UNL     1       2.519   4.564  18.526  0.00  0.00    +0.000 C 
ATOM     18  C   UNL     1       1.894   7.489  19.629  0.00  0.00    +0.000 A 
ATOM     19 CL   UNL     1       1.389   6.499  20.976  0.00  0.00    +0.000 Cl
ENDBRANCH   4   6
BRANCH   1  20
ATOM     20  O   UNL     1      -0.481  11.261  23.004  0.00  0.00    +0.000 OA
BRANCH  20  24
ATOM     21  C   UNL     1      -3.285  14.327  23.646  0.00  0.00    +0.000 A 
ATOM     22  C   UNL     1      -1.935  14.607  23.378  0.00  0.00    +0.000 A 
ATOM     23  C   UNL     1      -1.019  13.562  23.158  0.00  0.00    +0.000 A 
ATOM     24  C   UNL     1      -1.433  12.232  23.219  0.00  0.00    +0.000 A 
ATOM     25  C   UNL     1      -2.780  11.957  23.459  0.00  0.00    +0.000 A 
ATOM     26  C   UNL     1      -3.692  12.988  23.672  0.00  0.00    +0.000 A 
BRANCH  21  27
ATOM     27  C   UNL     1      -4.304  15.434  23.870  0.00  0.00    +0.000 C 
ATOM     28  C   UNL     1      -3.820  16.426  24.936  0.00  0.00    +0.000 C 
BRANCH  27  32
ATOM     29  C   UNL     1      -7.902  14.262  24.116  0.00  0.00    +0.000 C 
ATOM     30  C   UNL     1      -6.714  14.949  23.496  0.00  0.00    +0.000 C 
ATOM     31  O   UNL     1      -6.767  15.523  22.416  0.00  0.00    +0.000 OA
ATOM     32  N   UNL     1      -5.576  14.839  24.256  0.00  0.00    +0.000 N 
ATOM     33  H   UNL     1      -5.631  14.368  25.147  0.00  0.00    +0.000 HD
ENDBRANCH  27  32
ENDBRANCH  21  27
ENDBRANCH  20  24
ENDBRANCH   1  20
TORSDOF 5
ENDMDL
MODEL 2
REMARK VINA RESULT:      -7.7      5.249     11.892
REMARK  Name = 
REMARK  7 active torsions:
REMARK  status: ('A' for Active; 'I' for Inactive)
REMARK    1  A    between atoms: C_1  and  C_2
REMARK    2  A    between atoms: N_4  and  C_5
REMARK    3  A    between atoms: C_5  and  C_6
REMARK    4  A    between atoms: C_5  and  C_7
REMARK    5  A    between atoms: C_10  and  O_11
REMARK    6  A    between atoms: O_11  and  C_12
REMARK    7  A    between atoms: N_15  and  C_16
REMARK                            x       y       z     vdW  Elec       q    Type
REMARK                         _______ _______ _______ _____ _____    ______ ____
ROOT
ATOM      1  C   UNL     1       2.494   6.314  19.097  0.00  0.00    +0.000 C 
ATOM      2  C   UNL     1       2.324   7.195  17.862  0.00  0.00    +0.000 C 
ATOM      3  C   UNL     1       2.427   8.625  18.377  0.00  0.00    +0.000 C 
ATOM      4  N   UNL     1       1.916   8.587  19.748  0.00  0.00    +0.000 N 
ATOM      5  C   UNL     1       1.993   7.202  20.258  0.00  0.00    +0.000 C 
ENDROOT
BRANCH   4   6
ATOM      6  C   UNL     1       0.861   9.369  20.229  0.00  0.00    +0.000 A 
ATOM      7  C   UNL     1       0.691   9.594  21.600  0.00  0.00    +0.000 A 
ATOM      8  C   UNL     1      -0.331  10.419  22.045  0.00  0.00    +0.000 A 
ATOM      9  N   UNL     1      -1.204  11.058  21.240  0.00  0.00    +0.000 NA
ATOM     10  C   UNL     1      -1.086  10.867  19.906  0.00  0.00    +0.000 A 
ATOM     11  N   UNL     1      -1.968  11.569  19.063  0.00  0.00    +0.000 N 
ATOM     12  C   UNL     1      -2.556  12.813  19.597  0.00  0.00    +0.000 C 
ATOM     13  C   UNL     1      -4.048  12.545  19.757  0.00  0.00    +0.000 C 
ATOM     14  C   UNL     1      -4.322  11.609  18.607  0.00  0.00    +0.000 C 
ATOM     15  F   UNL     1      -5.452  10.902  18.806  0.00  0.00    +0.000 F 
ATOM     16  F   UNL     1      -4.477  12.313  17.461  0.00  0.00    +0.000 F 
ATOM     17  C   UNL     1      -3.077  10.723  18.546  0.00  0.00    +0.000 C 
ATOM     18  C   UNL     1      -0.083  10.010  19.376  0.00  0.00    +0.000 A 
ATOM     19 CL   UNL     1      -0.039   9.726  17.653  0.00  0.00    +0.000 Cl
ENDBRANCH   4   6
BRANCH   1  20
ATOM     20  O   UNL     1       3.872   5.918  19.237  0.00  0.00    +0.000 OA
BRANCH  20  24
ATOM     21  C   UNL     1       5.638   4.578  15.665  0.00  0.00    +0.000 A 
ATOM     22  C   UNL     1       4.567   3.892  16.259  0.00  0.00    +0.000 A 
ATOM     23  C   UNL     1       3.987   4.367  17.451  0.00  0.00    +0.000 A 
ATOM     24  C   UNL     1       4.479   5.516  18.069  0.00  0.00    +0.000 A 
ATOM     25  C   UNL     1       5.526   6.212  17.461  0.00  0.00    +0.000 A 
ATOM     26  C   UNL     1       6.098   5.749  16.279  0.00  0.00    +0.000 A 
BRANCH  21  27
ATOM     27  C   UNL     1       6.274   4.101  14.367  0.00  0.00    +0.000 C 
ATOM     28  C   UNL     1       7.361   5.074  13.891  0.00  0.00    +0.000 C 
BRANCH  27  32
ATOM     29  C   UNL     1       4.208   3.254  11.303  0.00  0.00    +0.000 C 
ATOM     30  C   UNL     1       5.424   3.252  12.190  0.00  0.00    +0.000 C 
ATOM     31  O   UNL     1       6.459   2.667  11.898  0.00  0.00    +0.000 OA
ATOM     32  N   UNL     1       5.236   3.949  13.357  0.00  0.00    +0.000 N 
ATOM     33  H   UNL     1       4.356   4.422  13.504  0.00  0.00    +0.000 HD
ENDBRANCH  27  32
ENDBRANCH  21  27
ENDBRANCH  20  24
ENDBRANCH   1  20
TORSDOF 5
ENDMDL
MODEL 3
REMARK VINA RESULT:      -7.6      5.266     11.646
REMARK  Name = 
REMARK  7 active torsions:
REMARK  status: ('A' for Active; 'I' for Inactive)
REMARK    1  A    between atoms: C_1  and  C_2
REMARK    2  A    between atoms: N_4  and  C_5
REMARK    3  A    between atoms: C_5  and  C_6
REMARK    4  A    between atoms: C_5  and  C_7
REMARK    5  A    between atoms: C_10  and  O_11
REMARK    6  A    between atoms: O_11  and  C_12
REMARK    7  A    between atoms: N_15  and  C_16
REMARK                            x       y       z     vdW  Elec       q    Type
REMARK                         _______ _______ _______ _____ _____    ______ ____
ROOT
ATOM      1  C   UNL     1       1.389   8.464  21.048  0.00  0.00    +0.000 C 
ATOM      2  C   UNL     1       1.530   9.106  22.425  0.00  0.00    +0.000 C 
ATOM      3  C   UNL     1       0.170   9.727  22.716  0.00  0.00    +0.000 C 
ATOM      4  N   UNL     1      -0.382  10.094  21.411  0.00  0.00    +0.000 N 
ATOM      5  C   UNL     1       0.289   9.302  20.359  0.00  0.00    +0.000 C 
ENDROOT
BRANCH   4   6
ATOM      6  C   UNL     1      -0.796  11.381  21.052  0.00  0.00    +0.000 A 
ATOM      7  C   UNL     1      -0.328  11.995  19.885  0.00  0.00    +0.000 A 
ATOM      8  C   UNL     1      -0.799  13.250  19.526  0.00  0.00    +0.000 A 
ATOM      9  N   UNL     1      -1.712  13.952  20.225  0.00  0.00    +0.000 NA
ATOM     10  C   UNL     1      -2.190  13.405  21.366  0.00  0.00    +0.000 A 
ATOM     11  N   UNL     1      -3.177  14.119  22.072  0.00  0.00    +0.000 N 
ATOM     12  C   UNL     1      -3.988  15.081  21.301  0.00  0.00    +0.000 C 
ATOM     13  C   UNL     1      -3.620  16.464  21.823  0.00  0.00    +0.000 C 
ATOM     14  C   UNL     1      -3.341  16.186  23.278  0.00  0.00    +0.000 C 
ATOM     15  F   UNL     1      -2.584  17.153  23.829  0.00  0.00    +0.000 F 
ATOM     16  F   UNL     1      -4.503  16.131  23.972  0.00  0.00    +0.000 F 
ATOM     17  C   UNL     1      -2.642  14.825  23.267  0.00  0.00    +0.000 C 
ATOM     18  C   UNL     1      -1.731  12.136  21.817  0.00  0.00    +0.000 A 
ATOM     19 CL   UNL     1      -2.312  11.523  23.345  0.00  0.00    +0.000 Cl
ENDBRANCH   4   6
BRANCH   1  20
ATOM     20  O   UNL     1       1.042   7.072  21.185  0.00  0.00    +0.000 OA
BRANCH  20  24
ATOM     21  C   UNL     1       3.003   4.373  18.626  0.00  0.00    +0.000 A 
ATOM     22  C   UNL     1       2.105   3.934  19.612  0.00  0.00    +0.000 A 
ATOM     23  C   UNL     1       1.455   4.859  20.450  0.00  0.00    +0.000 A 
ATOM     24  C   UNL     1       1.705   6.225  20.326  0.00  0.00    +0.000 A 
ATOM     25  C   UNL     1       2.576   6.661  19.326  0.00  0.00    +0.000 A 
ATOM     26  C   UNL     1       3.217   5.750  18.491  0.00  0.00    +0.000 A 
BRANCH  21  27
ATOM     27  C   UNL     1       3.707   3.400  17.692  0.00  0.00    +0.000 C 
ATOM     28  C   UNL     1       3.498   1.948  18.145  0.00  0.00    +0.000 C 
BRANCH  27  32
ATOM     29  C   UNL     1       7.213   4.462  16.716  0.00  0.00    +0.000 C 
ATOM     30  C   UNL     1       5.740   4.217  16.518  0.00  0.00    +0.000 C 
ATOM     31  O   UNL     1       5.163   4.452  15.465  0.00  0.00    +0.000 OA
ATOM     32  N   UNL     1       5.124   3.729  17.643  0.00  0.00    +0.000 N 
ATOM     33  H   UNL     1       5.685   3.541  18.462  0.00  0.00    +0.000 HD
ENDBRANCH  27  32
ENDBRANCH  21  27
ENDBRANCH  20  24
ENDBRANCH   1  20
TORSDOF 5
ENDMDL
MODEL 4
REMARK VINA RESULT:      -7.6      5.827     11.483
REMARK  Name = 
REMARK  7 active torsions:
REMARK  status: ('A' for Active; 'I' for Inactive)
REMARK    1  A    between atoms: C_1  and  C_2
REMARK    2  A    between atoms: N_4  and  C_5
REMARK    3  A    between atoms: C_5  and  C_6
REMARK    4  A    between atoms: C_5  and  C_7
REMARK    5  A    between atoms: C_10  and  O_11
REMARK    6  A    between atoms: O_11  and  C_12
REMARK    7  A    between atoms: N_15  and  C_16
REMARK                            x       y       z     vdW  Elec       q    Type
REMARK                         _______ _______ _______ _____ _____    ______ ____
ROOT
ATOM      1  C   UNL     1       0.982   9.876  18.345  0.00  0.00    +0.000 C 
ATOM      2  C   UNL     1       1.119  11.393  18.426  0.00  0.00    +0.000 C 
ATOM      3  C   UNL     1      -0.137  11.868  19.146  0.00  0.00    +0.000 C 
ATOM      4  N   UNL     1      -1.179  10.901  18.798  0.00  0.00    +0.000 N 
ATOM      5  C   UNL     1      -0.545   9.640  18.360  0.00  0.00    +0.000 C 
ENDROOT
BRANCH   4   6
ATOM      6  C   UNL     1      -2.401  11.223  18.200  0.00  0.00    +0.000 A 
ATOM      7  C   UNL     1      -2.639  10.961  16.847  0.00  0.00    +0.000 A 
ATOM      8  C   UNL     1      -3.880  11.241  16.294  0.00  0.00    +0.000 A 
ATOM      9  N   UNL     1      -4.923  11.754  16.977  0.00  0.00    +0.000 NA
ATOM     10  C   UNL     1      -4.741  12.033  18.288  0.00  0.00    +0.000 A 
ATOM     11  N   UNL     1      -5.843  12.527  19.011  0.00  0.00    +0.000 N 
ATOM     12  C   UNL     1      -7.185  12.208  18.488  0.00  0.00    +0.000 C 
ATOM     13  C   UNL     1      -7.792  13.529  18.033  0.00  0.00    +0.000 C 
ATOM     14  C   UNL     1      -7.207  14.500  19.027  0.00  0.00    +0.000 C 
ATOM     15  F   UNL     1      -7.247  15.764  18.563  0.00  0.00    +0.000 F 
ATOM     16  F   UNL     1      -7.914  14.466  20.182  0.00  0.00    +0.000 F 
ATOM     17  C   UNL     1      -5.779  13.995  19.240  0.00  0.00    +0.000 C 
ATOM     18  C   UNL     1      -3.487  11.804  18.918  0.00  0.00    +0.000 A 
ATOM     19 CL   UNL     1      -3.282  12.271  20.588  0.00  0.00    +0.000 Cl
ENDBRANCH   4   6
BRANCH   1  20
ATOM     20  O   UNL     1       1.664   9.257  19.453  0.00  0.00    +0.000 OA
BRANCH  20  24
ATOM     21  C   UNL     1       3.231   5.464  18.542  0.00  0.00    +0.000 A 
ATOM     22  C   UNL     1       3.364   6.548  17.658  0.00  0.00    +0.000 A 
ATOM     23  C   UNL     1       2.838   7.810  17.992  0.00  0.00    +0.000 A 
ATOM     24  C   UNL     1       2.162   8.000  19.196  0.00  0.00    +0.000 A 
ATOM     25  C   UNL     1       2.055   6.928  20.084  0.00  0.00    +0.000 A 
ATOM     26  C   UNL     1       2.579   5.679  19.761  0.00  0.00    +0.000 A 
BRANCH  21  27
ATOM     27  C   UNL     1       3.805   4.092  18.219  0.00  0.00    +0.000 C 
ATOM     28  C   UNL     1       3.917   3.227  19.481  0.00  0.00    +0.000 C 
BRANCH  27  32
ATOM     29  C   UNL     1       7.443   4.767  17.395  0.00  0.00    +0.000 C 
ATOM     30  C   UNL     1       6.226   4.654  18.274  0.00  0.00    +0.000 C 
ATOM     31  O   UNL     1       6.253   4.874  19.478  0.00  0.00    +0.000 OA
ATOM     32  N   UNL     1       5.106   4.258  17.587  0.00  0.00    +0.000 N 
ATOM     33  H   UNL     1       5.171   4.122  16.588  0.00  0.00    +0.000 HD
ENDBRANCH  27  32
ENDBRANCH  21  27
ENDBRANCH  20  24
ENDBRANCH   1  20
TORSDOF 5
ENDMDL
MODEL 5
REMARK VINA RESULT:      -7.6      5.477     11.714
REMARK  Name = 
REMARK  7 active torsions:
REMARK  status: ('A' for Active; 'I' for Inactive)
REMARK    1  A    between atoms: C_1  and  C_2
REMARK    2  A    between atoms: N_4  and  C_5
REMARK    3  A    between atoms: C_5  and  C_6
REMARK    4  A    between atoms: C_5  and  C_7
REMARK    5  A    between atoms: C_10  and  O_11
REMARK    6  A    between atoms: O_11  and  C_12
REMARK    7  A    between atoms: N_15  and  C_16
REMARK                            x       y       z     vdW  Elec       q    Type
REMARK                         _______ _______ _______ _____ _____    ______ ____
ROOT
ATOM      1  C   UNL     1      -0.587  10.088  19.232  0.00  0.00    +0.000 C 
ATOM      2  C   UNL     1      -1.261  10.459  17.914  0.00  0.00    +0.000 C 
ATOM      3  C   UNL     1      -1.664  11.921  18.071  0.00  0.00    +0.000 C 
ATOM      4  N   UNL     1      -1.922  12.105  19.500  0.00  0.00    +0.000 N 
ATOM      5  C   UNL     1      -1.232  11.043  20.261  0.00  0.00    +0.000 C 
ENDROOT
BRANCH   4   6
ATOM      6  C   UNL     1      -3.123  12.578  20.040  0.00  0.00    +0.000 A 
ATOM      7  C   UNL     1      -4.349  12.327  19.414  0.00  0.00    +0.000 A 
ATOM      8  C   UNL     1      -5.528  12.761  20.001  0.00  0.00    +0.000 A 
ATOM      9  N   UNL     1      -5.601  13.420  21.174  0.00  0.00    +0.000 NA
ATOM     10  C   UNL     1      -4.442  13.695  21.815  0.00  0.00    +0.000 A 
ATOM     11  N   UNL     1      -4.520  14.344  23.062  0.00  0.00    +0.000 N 
ATOM     12  C   UNL     1      -5.781  14.197  23.815  0.00  0.00    +0.000 C 
ATOM     13  C   UNL     1      -6.420  15.580  23.851  0.00  0.00    +0.000 C 
ATOM     14  C   UNL     1      -5.212  16.481  23.902  0.00  0.00    +0.000 C 
ATOM     15  F   UNL     1      -5.512  17.731  23.500  0.00  0.00    +0.000 F 
ATOM     16  F   UNL     1      -4.745  16.561  25.171  0.00  0.00    +0.000 F 
ATOM     17  C   UNL     1      -4.199  15.794  22.985  0.00  0.00    +0.000 C 
ATOM     18  C   UNL     1      -3.190  13.311  21.260  0.00  0.00    +0.000 A 
ATOM     19 CL   UNL     1      -1.722  13.775  22.084  0.00  0.00    +0.000 Cl
ENDBRANCH   4   6
BRANCH   1  20
ATOM     20  O   UNL     1       0.840  10.251  19.120  0.00  0.00    +0.000 OA
BRANCH  20  24
ATOM     21  C   UNL     1       2.970   6.628  18.999  0.00  0.00    +0.000 A 
ATOM     22  C   UNL     1       2.206   6.997  20.119  0.00  0.00    +0.000 A 
ATOM     23  C   UNL     1       1.495   8.212  20.130  0.00  0.00    +0.000 A 
ATOM     24  C   UNL     1       1.551   9.076  19.037  0.00  0.00    +0.000 A 
ATOM     25  C   UNL     1       2.288   8.694  17.915  0.00  0.00    +0.000 A 
ATOM     26  C   UNL     1       2.989   7.491  17.897  0.00  0.00    +0.000 A 
BRANCH  21  27
ATOM     27  C   UNL     1       3.734   5.314  18.949  0.00  0.00    +0.000 C 
ATOM     28  C   UNL     1       3.105   4.270  19.881  0.00  0.00    +0.000 C 
BRANCH  27  32
ATOM     29  C   UNL     1       7.509   5.650  19.057  0.00  0.00    +0.000 C 
ATOM     30  C   UNL     1       6.169   5.338  18.445  0.00  0.00    +0.000 C 
ATOM     31  O   UNL     1       6.039   4.950  17.292  0.00  0.00    +0.000 OA
ATOM     32  N   UNL     1       5.124   5.558  19.307  0.00  0.00    +0.000 N 
ATOM     33  H   UNL     1       5.327   5.856  20.251  0.00  0.00    +0.000 HD
ENDBRANCH  27  32
ENDBRANCH  21  27
ENDBRANCH  20  24
ENDBRANCH   1  20
TORSDOF 5
ENDMDL
MODEL 6
REMARK VINA RESULT:      -7.5      2.577      3.178
REMARK  Name = 
REMARK  7 active torsions:
REMARK  status: ('A' for Active; 'I' for Inactive)
REMARK    1  A    between atoms: C_1  and  C_2
REMARK    2  A    between atoms: N_4  and  C_5
REMARK    3  A    between atoms: C_5  and  C_6
REMARK    4  A    between atoms: C_5  and  C_7
REMARK    5  A    between atoms: C_10  and  O_11
REMARK    6  A    between atoms: O_11  and  C_12
REMARK    7  A    between atoms: N_15  and  C_16
REMARK                            x       y       z     vdW  Elec       q    Type
REMARK                         _______ _______ _______ _____ _____    ______ ____
ROOT
ATOM      1  C   UNL     1      -0.984  10.186  19.180  0.00  0.00    +0.000 C 
ATOM      2  C   UNL     1      -0.414   9.907  20.567  0.00  0.00    +0.000 C 
ATOM      3  C   UNL     1       1.099   9.911  20.384  0.00  0.00    +0.000 C 
ATOM      4  N   UNL     1       1.329   9.449  19.015  0.00  0.00    +0.000 N 
ATOM      5  C   UNL     1       0.102   9.654  18.218  0.00  0.00    +0.000 C 
ENDROOT
BRANCH   4   6
ATOM      6  C   UNL     1       2.122   8.351  18.665  0.00  0.00    +0.000 A 
ATOM      7  C   UNL     1       2.864   8.340  17.479  0.00  0.00    +0.000 A 
ATOM      8  C   UNL     1       3.684   7.261  17.184  0.00  0.00    +0.000 A 
ATOM      9  N   UNL     1       3.845   6.184  17.979  0.00  0.00    +0.000 NA
ATOM     10  C   UNL     1       3.143   6.143  19.134  0.00  0.00    +0.000 A 
ATOM     11  N   UNL     1       3.345   5.040  19.985  0.00  0.00    +0.000 N 
ATOM     12  C   UNL     1       4.627   4.321  19.856  0.00  0.00    +0.000 C 
ATOM     13  C   UNL     1       4.290   2.939  19.311  0.00  0.00    +0.000 C 
ATOM     14  C   UNL     1       2.945   2.675  19.938  0.00  0.00    +0.000 C 
ATOM     15  F   UNL     1       2.263   1.729  19.264  0.00  0.00    +0.000 F 
ATOM     16  F   UNL     1       3.103   2.236  21.210  0.00  0.00    +0.000 F 
ATOM     17  C   UNL     1       2.249   4.037  19.908  0.00  0.00    +0.000 C 
ATOM     18  C   UNL     1       2.257   7.197  19.489  0.00  0.00    +0.000 A 
ATOM     19 CL   UNL     1       1.306   7.046  20.946  0.00  0.00    +0.000 Cl
ENDBRANCH   4   6
BRANCH   1  20
ATOM     20  O   UNL     1      -1.241  11.595  19.025  0.00  0.00    +0.000 OA
BRANCH  20  24
ATOM     21  C   UNL     1      -5.192  12.813  19.785  0.00  0.00    +0.000 A 
ATOM     22  C   UNL     1      -4.129  13.197  20.620  0.00  0.00    +0.000 A 
ATOM     23  C   UNL     1      -2.814  12.782  20.337  0.00  0.00    +0.000 A 
ATOM     24  C   UNL     1      -2.548  11.971  19.235  0.00  0.00    +0.000 A 
ATOM     25  C   UNL     1      -3.602  11.615  18.392  0.00  0.00    +0.000 A 
ATOM     26  C   UNL     1      -4.904  12.027  18.664  0.00  0.00    +0.000 A 
BRANCH  21  27
ATOM     27  C   UNL     1      -6.622  13.260  20.053  0.00  0.00    +0.000 C 
ATOM     28  C   UNL     1      -6.931  14.585  19.343  0.00  0.00    +0.000 C 
BRANCH  27  32
ATOM     29  C   UNL     1      -7.374  12.721  23.730  0.00  0.00    +0.000 C 
ATOM     30  C   UNL     1      -7.225  12.337  22.281  0.00  0.00    +0.000 C 
ATOM     31  O   UNL     1      -7.427  11.202  21.870  0.00  0.00    +0.000 OA
ATOM     32  N   UNL     1      -6.820  13.383  21.490  0.00  0.00    +0.000 N 
ATOM     33  H   UNL     1      -6.701  14.293  21.911  0.00  0.00    +0.000 HD
ENDBRANCH  27  32
ENDBRANCH  21  27
ENDBRANCH  20  24
ENDBRANCH   1  20
TORSDOF 5
ENDMDL
MODEL 7
REMARK VINA RESULT:      -7.5      5.290     11.387
REMARK  Name = 
REMARK  7 active torsions:
REMARK  status: ('A' for Active; 'I' for Inactive)
REMARK    1  A    between atoms: C_1  and  C_2
REMARK    2  A    between atoms: N_4  and  C_5
REMARK    3  A    between atoms: C_5  and  C_6
REMARK    4  A    between atoms: C_5  and  C_7
REMARK    5  A    between atoms: C_10  and  O_11
REMARK    6  A    between atoms: O_11  and  C_12
REMARK    7  A    between atoms: N_15  and  C_16
REMARK                            x       y       z     vdW  Elec       q    Type
REMARK                         _______ _______ _______ _____ _____    ______ ____
ROOT
ATOM      1  C   UNL     1      -0.202   9.885  19.557  0.00  0.00    +0.000 C 
ATOM      2  C   UNL     1      -0.686  10.440  18.220  0.00  0.00    +0.000 C 
ATOM      3  C   UNL     1      -0.954  11.918  18.476  0.00  0.00    +0.000 C 
ATOM      4  N   UNL     1      -1.348  12.008  19.882  0.00  0.00    +0.000 N 
ATOM      5  C   UNL     1      -0.857  10.815  20.603  0.00  0.00    +0.000 C 
ENDROOT
BRANCH   4   6
ATOM      6  C   UNL     1      -2.547  12.563  20.342  0.00  0.00    +0.000 A 
ATOM      7  C   UNL     1      -3.741  12.403  19.629  0.00  0.00    +0.000 A 
ATOM      8  C   UNL     1      -4.925  12.917  20.137  0.00  0.00    +0.000 A 
ATOM      9  N   UNL     1      -5.033  13.574  21.309  0.00  0.00    +0.000 NA
ATOM     10  C   UNL     1      -3.906  13.761  22.033  0.00  0.00    +0.000 A 
ATOM     11  N   UNL     1      -4.025  14.407  23.278  0.00  0.00    +0.000 N 
ATOM     12  C   UNL     1      -5.343  14.347  23.939  0.00  0.00    +0.000 C 
ATOM     13  C   UNL     1      -5.883  15.772  23.945  0.00  0.00    +0.000 C 
ATOM     14  C   UNL     1      -4.621  16.584  24.090  0.00  0.00    +0.000 C 
ATOM     15  F   UNL     1      -4.802  17.854  23.681  0.00  0.00    +0.000 F 
ATOM     16  F   UNL     1      -4.240  16.623  25.389  0.00  0.00    +0.000 F 
ATOM     17  C   UNL     1      -3.597  15.831  23.238  0.00  0.00    +0.000 C 
ATOM     18  C   UNL     1      -2.648  13.291  21.562  0.00  0.00    +0.000 A 
ATOM     19 CL   UNL     1      -1.213  13.644  22.492  0.00  0.00    +0.000 Cl
ENDBRANCH   4   6
BRANCH   1  20
ATOM     20  O   UNL     1       1.238   9.899  19.606  0.00  0.00    +0.000 OA
BRANCH  20  24
ATOM     21  C   UNL     1       3.034   6.172  18.857  0.00  0.00    +0.000 A 
ATOM     22  C   UNL     1       2.400   6.452  20.079  0.00  0.00    +0.000 A 
ATOM     23  C   UNL     1       1.798   7.705  20.300  0.00  0.00    +0.000 A 
ATOM     24  C   UNL     1       1.837   8.694  19.318  0.00  0.00    +0.000 A 
ATOM     25  C   UNL     1       2.443   8.403  18.094  0.00  0.00    +0.000 A 
ATOM     26  C   UNL     1       3.035   7.163  17.868  0.00  0.00    +0.000 A 
BRANCH  21  27
ATOM     27  C   UNL     1       3.677   4.821  18.580  0.00  0.00    +0.000 C 
ATOM     28  C   UNL     1       4.085   4.694  17.106  0.00  0.00    +0.000 C 
BRANCH  27  32
ATOM     29  C   UNL     1       0.761   2.418  18.890  0.00  0.00    +0.000 C 
ATOM     30  C   UNL     1       1.552   3.559  18.307  0.00  0.00    +0.000 C 
ATOM     31  O   UNL     1       1.168   4.211  17.345  0.00  0.00    +0.000 OA
ATOM     32  N   UNL     1       2.746   3.766  18.953  0.00  0.00    +0.000 N 
ATOM     33  H   UNL     1       2.970   3.195  19.755  0.00  0.00    +0.000 HD
ENDBRANCH  27  32
ENDBRANCH  21  27
ENDBRANCH  20  24
ENDBRANCH   1  20
TORSDOF 5
ENDMDL
MODEL 8
REMARK VINA RESULT:      -7.5      5.083     11.211
REMARK  Name = 
REMARK  7 active torsions:
REMARK  status: ('A' for Active; 'I' for Inactive)
REMARK    1  A    between atoms: C_1  and  C_2
REMARK    2  A    between atoms: N_4  and  C_5
REMARK    3  A    between atoms: C_5  and  C_6
REMARK    4  A    between atoms: C_5  and  C_7
REMARK    5  A    between atoms: C_10  and  O_11
REMARK    6  A    between atoms: O_11  and  C_12
REMARK    7  A    between atoms: N_15  and  C_16
REMARK                            x       y       z     vdW  Elec       q    Type
REMARK                         _______ _______ _______ _____ _____    ______ ____
ROOT
ATOM      1  C   UNL     1       0.369  10.403  19.181  0.00  0.00    +0.000 C 
ATOM      2  C   UNL     1      -1.097  10.484  18.768  0.00  0.00    +0.000 C 
ATOM      3  C   UNL     1      -1.294  11.913  18.278  0.00  0.00    +0.000 C 
ATOM      4  N   UNL     1      -0.348  12.725  19.044  0.00  0.00    +0.000 N 
ATOM      5  C   UNL     1       0.727  11.856  19.568  0.00  0.00    +0.000 C 
ENDROOT
BRANCH   4   6
ATOM      6  C   UNL     1      -0.695  13.827  19.832  0.00  0.00    +0.000 A 
ATOM      7  C   UNL     1      -0.480  15.135  19.384  0.00  0.00    +0.000 A 
ATOM      8  C   UNL     1      -0.885  16.210  20.163  0.00  0.00    +0.000 A 
ATOM      9  N   UNL     1      -1.503  16.099  21.355  0.00  0.00    +0.000 NA
ATOM     10  C   UNL     1      -1.727  14.855  21.836  0.00  0.00    +0.000 A 
ATOM     11  N   UNL     1      -2.413  14.739  23.060  0.00  0.00    +0.000 N 
ATOM     12  C   UNL     1      -3.283  15.865  23.449  0.00  0.00    +0.000 C 
ATOM     13  C   UNL     1      -2.642  16.496  24.679  0.00  0.00    +0.000 C 
ATOM     14  C   UNL     1      -2.029  15.298  25.360  0.00  0.00    +0.000 C 
ATOM     15  F   UNL     1      -1.053  15.663  26.214  0.00  0.00    +0.000 F 
ATOM     16  F   UNL     1      -2.972  14.638  26.076  0.00  0.00    +0.000 F 
ATOM     17  C   UNL     1      -1.512  14.440  24.205  0.00  0.00    +0.000 C 
ATOM     18  C   UNL     1      -1.312  13.705  21.110  0.00  0.00    +0.000 A 
ATOM     19 CL   UNL     1      -1.542  12.127  21.823  0.00  0.00    +0.000 Cl
ENDBRANCH   4   6
BRANCH   1  20
ATOM     20  O   UNL     1       1.163   9.892  18.093  0.00  0.00    +0.000 OA
BRANCH  20  24
ATOM     21  C   UNL     1       3.264   6.393  19.103  0.00  0.00    +0.000 A 
ATOM     22  C   UNL     1       2.335   6.974  19.981  0.00  0.00    +0.000 A 
ATOM     23  C   UNL     1       1.638   8.141  19.615  0.00  0.00    +0.000 A 
ATOM     24  C   UNL     1       1.871   8.748  18.381  0.00  0.00    +0.000 A 
ATOM     25  C   UNL     1       2.775   8.153  17.499  0.00  0.00    +0.000 A 
ATOM     26  C   UNL     1       3.462   6.995  17.855  0.00  0.00    +0.000 A 
BRANCH  21  27
ATOM     27  C   UNL     1       4.019   5.122  19.461  0.00  0.00    +0.000 C 
ATOM     28  C   UNL     1       5.532   5.306  19.279  0.00  0.00    +0.000 C 
BRANCH  27  32
ATOM     29  C   UNL     1       2.924   1.783  18.038  0.00  0.00    +0.000 C 
ATOM     30  C   UNL     1       3.449   2.732  19.083  0.00  0.00    +0.000 C 
ATOM     31  O   UNL     1       3.752   2.374  20.214  0.00  0.00    +0.000 OA
ATOM     32  N   UNL     1       3.527   4.028  18.637  0.00  0.00    +0.000 N 
ATOM     33  H   UNL     1       3.279   4.228  17.678  0.00  0.00    +0.000 HD
ENDBRANCH  27  32
ENDBRANCH  21  27
ENDBRANCH  20  24
ENDBRANCH   1  20
TORSDOF 5
ENDMDL
MODEL 9
REMARK VINA RESULT:      -7.4      2.068      2.968
REMARK  Name = 
REMARK  7 active torsions:
REMARK  status: ('A' for Active; 'I' for Inactive)
REMARK    1  A    between atoms: C_1  and  C_2
REMARK    2  A    between atoms: N_4  and  C_5
REMARK    3  A    between atoms: C_5  and  C_6
REMARK    4  A    between atoms: C_5  and  C_7
REMARK    5  A    between atoms: C_10  and  O_11
REMARK    6  A    between atoms: O_11  and  C_12
REMARK    7  A    between atoms: N_15  and  C_16
REMARK                            x       y       z     vdW  Elec       q    Type
REMARK                         _______ _______ _______ _____ _____    ______ ____
ROOT
ATOM      1  C   UNL     1      -0.113   9.708  19.933  0.00  0.00    +0.000 C 
ATOM      2  C   UNL     1      -0.255   8.947  21.248  0.00  0.00    +0.000 C 
ATOM      3  C   UNL     1       1.139   8.413  21.551  0.00  0.00    +0.000 C 
ATOM      4  N   UNL     1       1.769   8.197  20.247  0.00  0.00    +0.000 N 
ATOM      5  C   UNL     1       1.077   9.018  19.231  0.00  0.00    +0.000 C 
ENDROOT
BRANCH   4   6
ATOM      6  C   UNL     1       2.301   6.980  19.809  0.00  0.00    +0.000 A 
ATOM      7  C   UNL     1       2.059   5.791  20.504  0.00  0.00    +0.000 A 
ATOM      8  C   UNL     1       2.554   4.590  20.015  0.00  0.00    +0.000 A 
ATOM      9  N   UNL     1       3.265   4.463  18.877  0.00  0.00    +0.000 NA
ATOM     10  C   UNL     1       3.531   5.586  18.172  0.00  0.00    +0.000 A 
ATOM     11  N   UNL     1       4.235   5.448  16.961  0.00  0.00    +0.000 N 
ATOM     12  C   UNL     1       4.159   4.136  16.289  0.00  0.00    +0.000 C 
ATOM     13  C   UNL     1       5.561   3.542  16.352  0.00  0.00    +0.000 C 
ATOM     14  C   UNL     1       6.426   4.773  16.257  0.00  0.00    +0.000 C 
ATOM     15  F   UNL     1       7.666   4.541  16.729  0.00  0.00    +0.000 F 
ATOM     16  F   UNL     1       6.547   5.158  14.963  0.00  0.00    +0.000 F 
ATOM     17  C   UNL     1       5.670   5.820  17.075  0.00  0.00    +0.000 C 
ATOM     18  C   UNL     1       3.086   6.858  18.626  0.00  0.00    +0.000 A 
ATOM     19 CL   UNL     1       3.541   8.283  17.726  0.00  0.00    +0.000 Cl
ENDBRANCH   4   6
BRANCH   1  20
ATOM     20  O   UNL     1       0.113  11.107  20.192  0.00  0.00    +0.000 OA
BRANCH  20  24
ATOM     21  C   UNL     1      -2.926  12.990  22.406  0.00  0.00    +0.000 A 
ATOM     22  C   UNL     1      -3.042  12.783  21.021  0.00  0.00    +0.000 A 
ATOM     23  C   UNL     1      -2.014  12.142  20.306  0.00  0.00    +0.000 A 
ATOM     24  C   UNL     1      -0.856  11.717  20.956  0.00  0.00    +0.000 A 
ATOM     25  C   UNL     1      -0.755  11.899  22.336  0.00  0.00    +0.000 A 
ATOM     26  C   UNL     1      -1.772  12.527  23.050  0.00  0.00    +0.000 A 
BRANCH  21  27
ATOM     27  C   UNL     1      -4.027  13.662  23.211  0.00  0.00    +0.000 C 
ATOM     28  C   UNL     1      -3.545  14.013  24.625  0.00  0.00    +0.000 C 
BRANCH  27  32
ATOM     29  C   UNL     1      -7.485  12.130  23.480  0.00  0.00    +0.000 C 
ATOM     30  C   UNL     1      -6.466  13.238  23.447  0.00  0.00    +0.000 C 
ATOM     31  O   UNL     1      -6.765  14.420  23.554  0.00  0.00    +0.000 OA
ATOM     32  N   UNL     1      -5.185  12.781  23.262  0.00  0.00    +0.000 N 
ATOM     33  H   UNL     1      -5.028  11.785  23.209  0.00  0.00    +0.000 HD
ENDBRANCH  27  32
ENDBRANCH  21  27
ENDBRANCH  20  24
ENDBRANCH   1  20
TORSDOF 5
ENDMDL
