MODEL 1
REMARK VINA RESULT:      -9.1      0.000      0.000
REMARK  Name = 
REMARK  12 active torsions:
REMARK  status: ('A' for Active; 'I' for Inactive)
REMARK    1  A    between atoms: C_1  and  C_2
REMARK    2  A    between atoms: C_4  and  C_5
REMARK    3  A    between atoms: C_7  and  C_8
REMARK    4  A    between atoms: N_10  and  C_11
REMARK    5  A    between atoms: C_11  and  C_12
REMARK    6  A    between atoms: C_11  and  C_16
REMARK    7  A    between atoms: C_12  and  C_13
REMARK    8  A    between atoms: C_19  and  N_20
REMARK    9  A    between atoms: N_20  and  C_21
REMARK   10  A    between atoms: C_21  and  C_22
REMARK   11  A    between atoms: C_22  and  N_23
REMARK   12  A    between atoms: C_29  and  N_30
REMARK                            x       y       z     vdW  Elec       q    Type
REMARK                         _______ _______ _______ _____ _____    ______ ____
ROOT
ATOM      1  C   UNL     1       1.427   8.857  20.534  0.00  0.00    +0.000 C 
ENDROOT
BRANCH   1   2
ATOM      2  C   UNL     1       1.878   7.521  19.934  0.00  0.00    +0.000 A 
ATOM      3  C   UNL     1       2.510   7.436  18.693  0.00  0.00    +0.000 A 
ATOM      4  C   UNL     1       2.977   6.213  18.199  0.00  0.00    +0.000 A 
ATOM      5  C   UNL     1       2.816   5.006  18.891  0.00  0.00    +0.000 A 
ATOM      6  C   UNL     1       2.116   5.075  20.119  0.00  0.00    +0.000 A 
ATOM      7  C   UNL     1       1.645   6.315  20.616  0.00  0.00    +0.000 A 
BRANCH   6   8
ATOM      8  N   UNL     1       1.880   3.890  20.970  0.00  0.00    +0.000 N 
ATOM      9  O   UNL     1       2.512   3.775  22.030  0.00  0.00    +0.000 OA
ATOM     10  O   UNL     1       1.069   3.041  20.561  0.00  0.00    +0.000 OA
ENDBRANCH   6   8
BRANCH   5  11
ATOM     11  N   UNL     1       3.374   3.826  18.387  0.00  0.00    +0.000 N 
ATOM     12  H   UNL     1       2.750   3.339  17.742  0.00  0.00    +0.000 HD
BRANCH  11  13
ATOM     13  C   UNL     1       4.805   3.653  18.106  0.00  0.00    +0.000 C 
BRANCH  13  14
ATOM     14  C   UNL     1       5.653   4.656  18.929  0.00  0.00    +0.000 C 
BRANCH  14  15
ATOM     15  N   UNL     1       7.086   4.733  18.577  0.00  0.00    +0.000 NA
ATOM     16  C   UNL     1       7.719   6.043  18.844  0.00  0.00    +0.000 C 
ATOM     17  C   UNL     1       7.443   7.153  17.810  0.00  0.00    +0.000 C 
ATOM     18  O   UNL     1       7.653   6.714  16.462  0.00  0.00    +0.000 OA
ATOM     19  C   UNL     1       6.876   5.544  16.191  0.00  0.00    +0.000 C 
ATOM     20  C   UNL     1       7.283   4.407  17.141  0.00  0.00    +0.000 C 
ENDBRANCH  14  15
ENDBRANCH  13  14
ENDBRANCH  11  13
ENDBRANCH   5  11
ENDBRANCH   1   2
BRANCH   1  23
ATOM     21  C   UNL     1       0.130  10.306  18.968  0.00  0.00    +0.000 C 
ATOM     22  O   UNL     1       1.115  10.902  18.550  0.00  0.00    +0.000 OA
ATOM     23  N   UNL     1       0.188   9.308  19.909  0.00  0.00    +0.000 N 
ATOM     24  H   UNL     1      -0.657   9.073  20.421  0.00  0.00    +0.000 HD
BRANCH  21  31
ATOM     25  C   UNL     1      -3.370  10.267  15.392  0.00  0.00    +0.000 C 
ATOM     26  C   UNL     1      -2.930  10.663  16.770  0.00  0.00    +0.000 A 
ATOM     27  C   UNL     1      -3.756  11.455  17.584  0.00  0.00    +0.000 A 
ATOM     28  C   UNL     1      -3.347  11.836  18.867  0.00  0.00    +0.000 A 
ATOM     29  C   UNL     1      -4.217  12.692  19.741  0.00  0.00    +0.000 C 
ATOM     30  C   UNL     1      -2.095  11.422  19.335  0.00  0.00    +0.000 A 
ATOM     31  C   UNL     1      -1.244  10.664  18.519  0.00  0.00    +0.000 A 
ATOM     32  C   UNL     1      -1.677  10.260  17.251  0.00  0.00    +0.000 A 
ENDBRANCH  21  31
ENDBRANCH   1  23
BRANCH   1  33
ATOM     33  C   UNL     1       1.262   8.879  22.067  0.00  0.00    +0.000 C 
BRANCH  33  34
ATOM     34  C   UNL     1       0.236   9.891  22.541  0.00  0.00    +0.000 C 
ATOM     35  N   UNL     1      -0.748   9.372  23.332  0.00  0.00    +0.000 N 
ATOM     36  O   UNL     1       0.242  11.086  22.267  0.00  0.00    +0.000 OA
ATOM     37  H   UNL     1      -0.616   8.503  23.831  0.00  0.00    +0.000 HD
ATOM     38  H   UNL     1      -1.399  10.040  23.726  0.00  0.00    +0.000 HD
ENDBRANCH  33  34
ENDBRANCH   1  33
TORSDOF 10
ENDMDL
MODEL 2
REMARK VINA RESULT:      -8.7      1.919      8.983
REMARK  Name = 
REMARK  12 active torsions:
REMARK  status: ('A' for Active; 'I' for Inactive)
REMARK    1  A    between atoms: C_1  and  C_2
REMARK    2  A    between atoms: C_4  and  C_5
REMARK    3  A    between atoms: C_7  and  C_8
REMARK    4  A    between atoms: N_10  and  C_11
REMARK    5  A    between atoms: C_11  and  C_12
REMARK    6  A    between atoms: C_11  and  C_16
REMARK    7  A    between atoms: C_12  and  C_13
REMARK    8  A    between atoms: C_19  and  N_20
REMARK    9  A    between atoms: N_20  and  C_21
REMARK   10  A    between atoms: C_21  and  C_22
REMARK   11  A    between atoms: C_22  and  N_23
REMARK   12  A    between atoms: C_29  and  N_30
REMARK                            x       y       z     vdW  Elec       q    Type
REMARK                         _______ _______ _______ _____ _____    ______ ____
ROOT
ATOM      1  C   UNL     1       1.911   6.011  19.754  0.00  0.00    +0.000 C 
ENDROOT
BRANCH   1   2
ATOM      2  C   UNL     1       1.582   7.508  19.789  0.00  0.00    +0.000 A 
ATOM      3  C   UNL     1       1.807   8.346  18.697  0.00  0.00    +0.000 A 
ATOM      4  C   UNL     1       1.431   9.694  18.728  0.00  0.00    +0.000 A 
ATOM      5  C   UNL     1       0.842  10.291  19.850  0.00  0.00    +0.000 A 
ATOM      6  C   UNL     1       0.674   9.462  20.985  0.00  0.00    +0.000 A 
ATOM      7  C   UNL     1       1.054   8.098  20.950  0.00  0.00    +0.000 A 
BRANCH   6   8
ATOM      8  N   UNL     1       0.054   9.942  22.238  0.00  0.00    +0.000 N 
ATOM      9  O   UNL     1      -0.713   9.191  22.857  0.00  0.00    +0.000 OA
ATOM     10  O   UNL     1       0.313  11.103  22.598  0.00  0.00    +0.000 OA
ENDBRANCH   6   8
BRANCH   5  11
ATOM     11  N   UNL     1       0.414  11.621  19.796  0.00  0.00    +0.000 N 
ATOM     12  H   UNL     1       1.093  12.236  19.343  0.00  0.00    +0.000 HD
BRANCH  11  13
ATOM     13  C   UNL     1      -0.988  12.023  19.626  0.00  0.00    +0.000 C 
BRANCH  13  14
ATOM     14  C   UNL     1      -1.466  11.751  18.175  0.00  0.00    +0.000 C 
BRANCH  14  15
ATOM     15  N   UNL     1      -2.291  10.541  17.983  0.00  0.00    +0.000 NA
ATOM     16  C   UNL     1      -2.077   9.845  16.696  0.00  0.00    +0.000 C 
ATOM     17  C   UNL     1      -2.770  10.467  15.466  0.00  0.00    +0.000 C 
ATOM     18  O   UNL     1      -4.152  10.758  15.702  0.00  0.00    +0.000 OA
ATOM     19  C   UNL     1      -4.297  11.589  16.857  0.00  0.00    +0.000 C 
ATOM     20  C   UNL     1      -3.733  10.876  18.096  0.00  0.00    +0.000 C 
ENDBRANCH  14  15
ENDBRANCH  13  14
ENDBRANCH  11  13
ENDBRANCH   5  11
ENDBRANCH   1   2
BRANCH   1  23
ATOM     21  C   UNL     1       3.291   4.955  17.960  0.00  0.00    +0.000 C 
ATOM     22  O   UNL     1       2.351   4.348  17.461  0.00  0.00    +0.000 OA
ATOM     23  N   UNL     1       3.169   5.780  19.052  0.00  0.00    +0.000 N 
ATOM     24  H   UNL     1       4.003   6.003  19.587  0.00  0.00    +0.000 HD
BRANCH  21  31
ATOM     25  C   UNL     1       8.221   5.350  18.710  0.00  0.00    +0.000 C 
ATOM     26  C   UNL     1       7.071   5.015  17.808  0.00  0.00    +0.000 A 
ATOM     27  C   UNL     1       7.292   4.666  16.466  0.00  0.00    +0.000 A 
ATOM     28  C   UNL     1       6.222   4.362  15.617  0.00  0.00    +0.000 A 
ATOM     29  C   UNL     1       6.447   4.000  14.178  0.00  0.00    +0.000 C 
ATOM     30  C   UNL     1       4.917   4.414  16.119  0.00  0.00    +0.000 A 
ATOM     31  C   UNL     1       4.679   4.798  17.446  0.00  0.00    +0.000 A 
ATOM     32  C   UNL     1       5.758   5.066  18.295  0.00  0.00    +0.000 A 
ENDBRANCH  21  31
ENDBRANCH   1  23
BRANCH   1  33
ATOM     33  C   UNL     1       1.954   5.305  21.124  0.00  0.00    +0.000 C 
BRANCH  33  34
ATOM     34  C   UNL     1       1.564   3.841  21.052  0.00  0.00    +0.000 C 
ATOM     35  N   UNL     1       2.122   3.058  22.022  0.00  0.00    +0.000 N 
ATOM     36  O   UNL     1       0.816   3.349  20.215  0.00  0.00    +0.000 OA
ATOM     37  H   UNL     1       2.462   3.457  22.886  0.00  0.00    +0.000 HD
ATOM     38  H   UNL     1       1.815   2.094  22.044  0.00  0.00    +0.000 HD
ENDBRANCH  33  34
ENDBRANCH   1  33
TORSDOF 10
ENDMDL
MODEL 3
REMARK VINA RESULT:      -8.6      0.972      1.962
REMARK  Name = 
REMARK  12 active torsions:
REMARK  status: ('A' for Active; 'I' for Inactive)
REMARK    1  A    between atoms: C_1  and  C_2
REMARK    2  A    between atoms: C_4  and  C_5
REMARK    3  A    between atoms: C_7  and  C_8
REMARK    4  A    between atoms: N_10  and  C_11
REMARK    5  A    between atoms: C_11  and  C_12
REMARK    6  A    between atoms: C_11  and  C_16
REMARK    7  A    between atoms: C_12  and  C_13
REMARK    8  A    between atoms: C_19  and  N_20
REMARK    9  A    between atoms: N_20  and  C_21
REMARK   10  A    between atoms: C_21  and  C_22
REMARK   11  A    between atoms: C_22  and  N_23
REMARK   12  A    between atoms: C_29  and  N_30
REMARK                            x       y       z     vdW  Elec       q    Type
REMARK                         _______ _______ _______ _____ _____    ______ ____
ROOT
ATOM      1  C   UNL     1       1.476   8.878  20.524  0.00  0.00    +0.000 C 
ENDROOT
BRANCH   1   2
ATOM      2  C   UNL     1       1.873   7.518  19.940  0.00  0.00    +0.000 A 
ATOM      3  C   UNL     1       2.488   7.393  18.694  0.00  0.00    +0.000 A 
ATOM      4  C   UNL     1       2.907   6.147  18.213  0.00  0.00    +0.000 A 
ATOM      5  C   UNL     1       2.711   4.956  18.925  0.00  0.00    +0.000 A 
ATOM      6  C   UNL     1       2.026   5.068  20.158  0.00  0.00    +0.000 A 
ATOM      7  C   UNL     1       1.604   6.331  20.642  0.00  0.00    +0.000 A 
BRANCH   6   8
ATOM      8  N   UNL     1       1.758   3.904  21.030  0.00  0.00    +0.000 N 
ATOM      9  O   UNL     1       0.946   3.046  20.655  0.00  0.00    +0.000 OA
ATOM     10  O   UNL     1       2.347   3.858  22.123  0.00  0.00    +0.000 OA
ENDBRANCH   6   8
BRANCH   5  11
ATOM     11  N   UNL     1       3.222   3.750  18.433  0.00  0.00    +0.000 N 
ATOM     12  H   UNL     1       2.564   3.265  17.820  0.00  0.00    +0.000 HD
BRANCH  11  13
ATOM     13  C   UNL     1       4.637   3.532  18.111  0.00  0.00    +0.000 C 
BRANCH  13  14
ATOM     14  C   UNL     1       4.854   3.506  16.575  0.00  0.00    +0.000 C 
BRANCH  14  15
ATOM     15  N   UNL     1       6.122   4.090  16.092  0.00  0.00    +0.000 NA
ATOM     16  C   UNL     1       6.954   4.718  17.142  0.00  0.00    +0.000 C 
ATOM     17  C   UNL     1       6.521   6.127  17.596  0.00  0.00    +0.000 C 
ATOM     18  O   UNL     1       6.280   7.011  16.494  0.00  0.00    +0.000 OA
ATOM     19  C   UNL     1       5.327   6.438  15.594  0.00  0.00    +0.000 C 
ATOM     20  C   UNL     1       5.857   5.105  15.042  0.00  0.00    +0.000 C 
ENDBRANCH  14  15
ENDBRANCH  13  14
ENDBRANCH  11  13
ENDBRANCH   5  11
ENDBRANCH   1   2
BRANCH   1  23
ATOM     21  C   UNL     1       0.254  10.352  18.922  0.00  0.00    +0.000 C 
ATOM     22  O   UNL     1       1.267  10.888  18.492  0.00  0.00    +0.000 OA
ATOM     23  N   UNL     1       0.261   9.375  19.887  0.00  0.00    +0.000 N 
ATOM     24  H   UNL     1      -0.595   9.195  20.403  0.00  0.00    +0.000 HD
BRANCH  21  31
ATOM     25  C   UNL     1      -4.097  12.631  19.877  0.00  0.00    +0.000 C 
ATOM     26  C   UNL     1      -3.219  11.855  18.941  0.00  0.00    +0.000 A 
ATOM     27  C   UNL     1      -3.704  11.429  17.693  0.00  0.00    +0.000 A 
ATOM     28  C   UNL     1      -2.893  10.696  16.819  0.00  0.00    +0.000 A 
ATOM     29  C   UNL     1      -3.405  10.226  15.489  0.00  0.00    +0.000 C 
ATOM     30  C   UNL     1      -1.585  10.383  17.204  0.00  0.00    +0.000 A 
ATOM     31  C   UNL     1      -1.100  10.768  18.462  0.00  0.00    +0.000 A 
ATOM     32  C   UNL     1      -1.908  11.530  19.313  0.00  0.00    +0.000 A 
ENDBRANCH  21  31
ENDBRANCH   1  23
BRANCH   1  33
ATOM     33  C   UNL     1       1.301   8.921  22.056  0.00  0.00    +0.000 C 
BRANCH  33  34
ATOM     34  C   UNL     1      -0.153   8.927  22.490  0.00  0.00    +0.000 C 
ATOM     35  N   UNL     1      -0.459   9.867  23.431  0.00  0.00    +0.000 N 
ATOM     36  O   UNL     1      -1.021   8.173  22.064  0.00  0.00    +0.000 OA
ATOM     37  H   UNL     1       0.119  10.686  23.562  0.00  0.00    +0.000 HD
ATOM     38  H   UNL     1      -1.437   9.945  23.679  0.00  0.00    +0.000 HD
ENDBRANCH  33  34
ENDBRANCH   1  33
TORSDOF 10
ENDMDL
MODEL 4
REMARK VINA RESULT:      -8.4      2.036      8.755
REMARK  Name = 
REMARK  12 active torsions:
REMARK  status: ('A' for Active; 'I' for Inactive)
REMARK    1  A    between atoms: C_1  and  C_2
REMARK    2  A    between atoms: C_4  and  C_5
REMARK    3  A    between atoms: C_7  and  C_8
REMARK    4  A    between atoms: N_10  and  C_11
REMARK    5  A    between atoms: C_11  and  C_12
REMARK    6  A    between atoms: C_11  and  C_16
REMARK    7  A    between atoms: C_12  and  C_13
REMARK    8  A    between atoms: C_19  and  N_20
REMARK    9  A    between atoms: N_20  and  C_21
REMARK   10  A    between atoms: C_21  and  C_22
REMARK   11  A    between atoms: C_22  and  N_23
REMARK   12  A    between atoms: C_29  and  N_30
REMARK                            x       y       z     vdW  Elec       q    Type
REMARK                         _______ _______ _______ _____ _____    ______ ____
ROOT
ATOM      1  C   UNL     1       1.878   6.380  19.829  0.00  0.00    +0.000 C 
ENDROOT
BRANCH   1   2
ATOM      2  C   UNL     1       1.402   7.822  20.032  0.00  0.00    +0.000 A 
ATOM      3  C   UNL     1       1.404   8.760  18.999  0.00  0.00    +0.000 A 
ATOM      4  C   UNL     1       0.897  10.051  19.189  0.00  0.00    +0.000 A 
ATOM      5  C   UNL     1       0.390  10.491  20.418  0.00  0.00    +0.000 A 
ATOM      6  C   UNL     1       0.448   9.567  21.488  0.00  0.00    +0.000 A 
ATOM      7  C   UNL     1       0.961   8.261  21.292  0.00  0.00    +0.000 A 
BRANCH   6   8
ATOM      8  N   UNL     1      -0.062   9.879  22.841  0.00  0.00    +0.000 N 
ATOM      9  O   UNL     1       0.620   9.568  23.827  0.00  0.00    +0.000 OA
ATOM     10  O   UNL     1      -1.178  10.420  22.922  0.00  0.00    +0.000 OA
ENDBRANCH   6   8
BRANCH   5  11
ATOM     11  N   UNL     1      -0.178  11.765  20.529  0.00  0.00    +0.000 N 
ATOM     12  H   UNL     1       0.493  12.513  20.343  0.00  0.00    +0.000 HD
BRANCH  11  13
ATOM     13  C   UNL     1      -1.564  12.077  20.162  0.00  0.00    +0.000 C 
BRANCH  13  14
ATOM     14  C   UNL     1      -1.797  11.848  18.646  0.00  0.00    +0.000 C 
BRANCH  14  15
ATOM     15  N   UNL     1      -2.549  10.629  18.284  0.00  0.00    +0.000 NA
ATOM     16  C   UNL     1      -2.141  10.007  17.006  0.00  0.00    +0.000 C 
ATOM     17  C   UNL     1      -2.680  10.675  15.725  0.00  0.00    +0.000 C 
ATOM     18  O   UNL     1      -4.091  10.919  15.783  0.00  0.00    +0.000 OA
ATOM     19  C   UNL     1      -4.417  11.685  16.947  0.00  0.00    +0.000 C 
ATOM     20  C   UNL     1      -4.003  10.922  18.215  0.00  0.00    +0.000 C 
ENDBRANCH  14  15
ENDBRANCH  13  14
ENDBRANCH  11  13
ENDBRANCH   5  11
ENDBRANCH   1   2
BRANCH   1  23
ATOM     21  C   UNL     1       3.207   5.538  17.890  0.00  0.00    +0.000 C 
ATOM     22  O   UNL     1       2.331   4.778  17.496  0.00  0.00    +0.000 OA
ATOM     23  N   UNL     1       3.072   6.347  18.991  0.00  0.00    +0.000 N 
ATOM     24  H   UNL     1       3.912   6.712  19.431  0.00  0.00    +0.000 HD
BRANCH  21  31
ATOM     25  C   UNL     1       6.344   3.838  14.383  0.00  0.00    +0.000 C 
ATOM     26  C   UNL     1       6.064   4.756  15.535  0.00  0.00    +0.000 A 
ATOM     27  C   UNL     1       7.073   5.584  16.051  0.00  0.00    +0.000 A 
ATOM     28  C   UNL     1       6.821   6.437  17.132  0.00  0.00    +0.000 A 
ATOM     29  C   UNL     1       7.895   7.318  17.699  0.00  0.00    +0.000 C 
ATOM     30  C   UNL     1       5.543   6.453  17.704  0.00  0.00    +0.000 A 
ATOM     31  C   UNL     1       4.537   5.603  17.224  0.00  0.00    +0.000 A 
ATOM     32  C   UNL     1       4.791   4.780  16.121  0.00  0.00    +0.000 A 
ENDBRANCH  21  31
ENDBRANCH   1  23
BRANCH   1  33
ATOM     33  C   UNL     1       2.139   5.576  21.119  0.00  0.00    +0.000 C 
BRANCH  33  34
ATOM     34  C   UNL     1       2.145   4.076  20.895  0.00  0.00    +0.000 C 
ATOM     35  N   UNL     1       0.910   3.496  20.913  0.00  0.00    +0.000 N 
ATOM     36  O   UNL     1       3.146   3.392  20.710  0.00  0.00    +0.000 OA
ATOM     37  H   UNL     1       0.073   4.037  20.740  0.00  0.00    +0.000 HD
ATOM     38  H   UNL     1       0.879   2.509  20.687  0.00  0.00    +0.000 HD
ENDBRANCH  33  34
ENDBRANCH   1  33
TORSDOF 10
ENDMDL
MODEL 5
REMARK VINA RESULT:      -8.4      2.791      8.494
REMARK  Name = 
REMARK  12 active torsions:
REMARK  status: ('A' for Active; 'I' for Inactive)
REMARK    1  A    between atoms: C_1  and  C_2
REMARK    2  A    between atoms: C_4  and  C_5
REMARK    3  A    between atoms: C_7  and  C_8
REMARK    4  A    between atoms: N_10  and  C_11
REMARK    5  A    between atoms: C_11  and  C_12
REMARK    6  A    between atoms: C_11  and  C_16
REMARK    7  A    between atoms: C_12  and  C_13
REMARK    8  A    between atoms: C_19  and  N_20
REMARK    9  A    between atoms: N_20  and  C_21
REMARK   10  A    between atoms: C_21  and  C_22
REMARK   11  A    between atoms: C_22  and  N_23
REMARK   12  A    between atoms: C_29  and  N_30
REMARK                            x       y       z     vdW  Elec       q    Type
REMARK                         _______ _______ _______ _____ _____    ______ ____
ROOT
ATOM      1  C   UNL     1       1.969   6.228  19.960  0.00  0.00    +0.000 C 
ENDROOT
BRANCH   1   2
ATOM      2  C   UNL     1       1.528   7.680  20.177  0.00  0.00    +0.000 A 
ATOM      3  C   UNL     1       1.583   8.635  19.161  0.00  0.00    +0.000 A 
ATOM      4  C   UNL     1       1.107   9.936  19.363  0.00  0.00    +0.000 A 
ATOM      5  C   UNL     1       0.581  10.369  20.587  0.00  0.00    +0.000 A 
ATOM      6  C   UNL     1       0.585   9.424  21.640  0.00  0.00    +0.000 A 
ATOM      7  C   UNL     1       1.067   8.108  21.433  0.00  0.00    +0.000 A 
BRANCH   6   8
ATOM      8  N   UNL     1       0.049   9.726  22.985  0.00  0.00    +0.000 N 
ATOM      9  O   UNL     1       0.743   9.474  23.980  0.00  0.00    +0.000 OA
ATOM     10  O   UNL     1      -1.099  10.199  23.052  0.00  0.00    +0.000 OA
ENDBRANCH   6   8
BRANCH   5  11
ATOM     11  N   UNL     1       0.046  11.656  20.707  0.00  0.00    +0.000 N 
ATOM     12  H   UNL     1       0.340  12.126  21.565  0.00  0.00    +0.000 HD
BRANCH  11  13
ATOM     13  C   UNL     1      -0.198  12.550  19.568  0.00  0.00    +0.000 C 
BRANCH  13  14
ATOM     14  C   UNL     1       0.455  13.936  19.808  0.00  0.00    +0.000 C 
BRANCH  14  15
ATOM     15  N   UNL     1       1.873  13.919  20.224  0.00  0.00    +0.000 NA
ATOM     16  C   UNL     1       2.376  15.202  20.760  0.00  0.00    +0.000 C 
ATOM     17  C   UNL     1       2.734  16.279  19.716  0.00  0.00    +0.000 C 
ATOM     18  O   UNL     1       3.561  15.770  18.662  0.00  0.00    +0.000 OA
ATOM     19  C   UNL     1       2.945  14.634  18.049  0.00  0.00    +0.000 C 
ATOM     20  C   UNL     1       2.740  13.519  19.087  0.00  0.00    +0.000 C 
ENDBRANCH  14  15
ENDBRANCH  13  14
ENDBRANCH  11  13
ENDBRANCH   5  11
ENDBRANCH   1   2
BRANCH   1  23
ATOM     21  C   UNL     1       3.257   5.304  18.030  0.00  0.00    +0.000 C 
ATOM     22  O   UNL     1       2.387   4.505  17.708  0.00  0.00    +0.000 OA
ATOM     23  N   UNL     1       3.138   6.173  19.087  0.00  0.00    +0.000 N 
ATOM     24  H   UNL     1       3.982   6.579  19.479  0.00  0.00    +0.000 HD
BRANCH  21  31
ATOM     25  C   UNL     1       7.785   7.370  17.515  0.00  0.00    +0.000 C 
ATOM     26  C   UNL     1       6.752   6.383  17.059  0.00  0.00    +0.000 A 
ATOM     27  C   UNL     1       6.967   5.599  15.914  0.00  0.00    +0.000 A 
ATOM     28  C   UNL     1       6.003   4.683  15.478  0.00  0.00    +0.000 A 
ATOM     29  C   UNL     1       6.218   3.849  14.249  0.00  0.00    +0.000 C 
ATOM     30  C   UNL     1       4.809   4.556  16.197  0.00  0.00    +0.000 A 
ATOM     31  C   UNL     1       4.564   5.358  17.320  0.00  0.00    +0.000 A 
ATOM     32  C   UNL     1       5.549   6.247  17.766  0.00  0.00    +0.000 A 
ENDBRANCH  21  31
ENDBRANCH   1  23
BRANCH   1  33
ATOM     33  C   UNL     1       2.251   5.418  21.241  0.00  0.00    +0.000 C 
BRANCH  33  34
ATOM     34  C   UNL     1       1.714   4.000  21.179  0.00  0.00    +0.000 C 
ATOM     35  N   UNL     1       0.709   3.814  20.275  0.00  0.00    +0.000 N 
ATOM     36  O   UNL     1       2.112   3.063  21.862  0.00  0.00    +0.000 OA
ATOM     37  H   UNL     1       0.580   4.446  19.496  0.00  0.00    +0.000 HD
ATOM     38  H   UNL     1       0.388   2.861  20.157  0.00  0.00    +0.000 HD
ENDBRANCH  33  34
ENDBRANCH   1  33
TORSDOF 10
ENDMDL
MODEL 6
REMARK VINA RESULT:      -8.3      2.753      9.647
REMARK  Name = 
REMARK  12 active torsions:
REMARK  status: ('A' for Active; 'I' for Inactive)
REMARK    1  A    between atoms: C_1  and  C_2
REMARK    2  A    between atoms: C_4  and  C_5
REMARK    3  A    between atoms: C_7  and  C_8
REMARK    4  A    between atoms: N_10  and  C_11
REMARK    5  A    between atoms: C_11  and  C_12
REMARK    6  A    between atoms: C_11  and  C_16
REMARK    7  A    between atoms: C_12  and  C_13
REMARK    8  A    between atoms: C_19  and  N_20
REMARK    9  A    between atoms: N_20  and  C_21
REMARK   10  A    between atoms: C_21  and  C_22
REMARK   11  A    between atoms: C_22  and  N_23
REMARK   12  A    between atoms: C_29  and  N_30
REMARK                            x       y       z     vdW  Elec       q    Type
REMARK                         _______ _______ _______ _____ _____    ______ ____
ROOT
ATOM      1  C   UNL     1       2.034   5.769  19.911  0.00  0.00    +0.000 C 
ENDROOT
BRANCH   1   2
ATOM      2  C   UNL     1       1.562   7.190  20.234  0.00  0.00    +0.000 A 
ATOM      3  C   UNL     1       1.019   7.532  21.473  0.00  0.00    +0.000 A 
ATOM      4  C   UNL     1       0.661   8.853  21.769  0.00  0.00    +0.000 A 
ATOM      5  C   UNL     1       0.793   9.898  20.846  0.00  0.00    +0.000 A 
ATOM      6  C   UNL     1       1.279   9.545  19.564  0.00  0.00    +0.000 A 
ATOM      7  C   UNL     1       1.641   8.208  19.268  0.00  0.00    +0.000 A 
BRANCH   6   8
ATOM      8  N   UNL     1       1.487  10.539  18.489  0.00  0.00    +0.000 N 
ATOM      9  O   UNL     1       0.792  11.564  18.475  0.00  0.00    +0.000 OA
ATOM     10  O   UNL     1       2.342  10.278  17.625  0.00  0.00    +0.000 OA
ENDBRANCH   6   8
BRANCH   5  11
ATOM     11  N   UNL     1       0.496  11.211  21.223  0.00  0.00    +0.000 N 
ATOM     12  H   UNL     1       1.177  11.886  20.871  0.00  0.00    +0.000 HD
BRANCH  11  13
ATOM     13  C   UNL     1      -0.869  11.733  21.364  0.00  0.00    +0.000 C 
BRANCH  13  14
ATOM     14  C   UNL     1      -0.872  13.052  22.182  0.00  0.00    +0.000 C 
BRANCH  14  15
ATOM     15  N   UNL     1      -1.589  13.010  23.472  0.00  0.00    +0.000 NA
ATOM     16  C   UNL     1      -2.860  12.253  23.450  0.00  0.00    +0.000 C 
ATOM     17  C   UNL     1      -4.073  12.985  22.841  0.00  0.00    +0.000 C 
ATOM     18  O   UNL     1      -4.239  14.307  23.368  0.00  0.00    +0.000 OA
ATOM     19  C   UNL     1      -3.037  15.065  23.202  0.00  0.00    +0.000 C 
ATOM     20  C   UNL     1      -1.878  14.386  23.948  0.00  0.00    +0.000 C 
ENDBRANCH  14  15
ENDBRANCH  13  14
ENDBRANCH  11  13
ENDBRANCH   5  11
ENDBRANCH   1   2
BRANCH   1  23
ATOM     21  C   UNL     1       3.364   4.925  17.974  0.00  0.00    +0.000 C 
ATOM     22  O   UNL     1       2.566   4.042  17.686  0.00  0.00    +0.000 OA
ATOM     23  N   UNL     1       3.186   5.801  19.016  0.00  0.00    +0.000 N 
ATOM     24  H   UNL     1       3.996   6.293  19.381  0.00  0.00    +0.000 HD
BRANCH  21  31
ATOM     25  C   UNL     1       7.755   7.263  17.441  0.00  0.00    +0.000 C 
ATOM     26  C   UNL     1       6.767   6.240  16.967  0.00  0.00    +0.000 A 
ATOM     27  C   UNL     1       6.994   5.520  15.782  0.00  0.00    +0.000 A 
ATOM     28  C   UNL     1       6.071   4.571  15.330  0.00  0.00    +0.000 A 
ATOM     29  C   UNL     1       6.298   3.805  14.060  0.00  0.00    +0.000 C 
ATOM     30  C   UNL     1       4.906   4.345  16.071  0.00  0.00    +0.000 A 
ATOM     31  C   UNL     1       4.647   5.083  17.235  0.00  0.00    +0.000 A 
ATOM     32  C   UNL     1       5.593   6.005  17.696  0.00  0.00    +0.000 A 
ENDBRANCH  21  31
ENDBRANCH   1  23
BRANCH   1  33
ATOM     33  C   UNL     1       2.361   4.882  21.129  0.00  0.00    +0.000 C 
BRANCH  33  34
ATOM     34  C   UNL     1       1.567   3.590  21.157  0.00  0.00    +0.000 C 
ATOM     35  N   UNL     1       0.664   3.459  20.141  0.00  0.00    +0.000 N 
ATOM     36  O   UNL     1       1.685   2.704  21.996  0.00  0.00    +0.000 OA
ATOM     37  H   UNL     1       0.760   3.984  19.283  0.00  0.00    +0.000 HD
ATOM     38  H   UNL     1       0.178   2.572  20.091  0.00  0.00    +0.000 HD
ENDBRANCH  33  34
ENDBRANCH   1  33
TORSDOF 10
ENDMDL
MODEL 7
REMARK VINA RESULT:      -8.2      2.673      9.656
REMARK  Name = 
REMARK  12 active torsions:
REMARK  status: ('A' for Active; 'I' for Inactive)
REMARK    1  A    between atoms: C_1  and  C_2
REMARK    2  A    between atoms: C_4  and  C_5
REMARK    3  A    between atoms: C_7  and  C_8
REMARK    4  A    between atoms: N_10  and  C_11
REMARK    5  A    between atoms: C_11  and  C_12
REMARK    6  A    between atoms: C_11  and  C_16
REMARK    7  A    between atoms: C_12  and  C_13
REMARK    8  A    between atoms: C_19  and  N_20
REMARK    9  A    between atoms: N_20  and  C_21
REMARK   10  A    between atoms: C_21  and  C_22
REMARK   11  A    between atoms: C_22  and  N_23
REMARK   12  A    between atoms: C_29  and  N_30
REMARK                            x       y       z     vdW  Elec       q    Type
REMARK                         _______ _______ _______ _____ _____    ______ ____
ROOT
ATOM      1  C   UNL     1       1.978   5.832  20.009  0.00  0.00    +0.000 C 
ENDROOT
BRANCH   1   2
ATOM      2  C   UNL     1       1.478   7.254  20.288  0.00  0.00    +0.000 A 
ATOM      3  C   UNL     1       0.850   7.601  21.485  0.00  0.00    +0.000 A 
ATOM      4  C   UNL     1       0.467   8.922  21.746  0.00  0.00    +0.000 A 
ATOM      5  C   UNL     1       0.657   9.961  20.826  0.00  0.00    +0.000 A 
ATOM      6  C   UNL     1       1.232   9.602  19.584  0.00  0.00    +0.000 A 
ATOM      7  C   UNL     1       1.619   8.265  19.323  0.00  0.00    +0.000 A 
BRANCH   6   8
ATOM      8  N   UNL     1       1.510  10.589  18.519  0.00  0.00    +0.000 N 
ATOM      9  O   UNL     1       2.265  10.275  17.588  0.00  0.00    +0.000 OA
ATOM     10  O   UNL     1       0.986  11.712  18.626  0.00  0.00    +0.000 OA
ENDBRANCH   6   8
BRANCH   5  11
ATOM     11  N   UNL     1       0.329  11.276  21.173  0.00  0.00    +0.000 N 
ATOM     12  H   UNL     1       1.069  11.941  20.942  0.00  0.00    +0.000 HD
BRANCH  11  13
ATOM     13  C   UNL     1      -1.032  11.824  21.108  0.00  0.00    +0.000 C 
BRANCH  13  14
ATOM     14  C   UNL     1      -1.597  12.064  22.532  0.00  0.00    +0.000 C 
BRANCH  14  15
ATOM     15  N   UNL     1      -2.285  13.354  22.745  0.00  0.00    +0.000 NA
ATOM     16  C   UNL     1      -2.949  13.491  24.060  0.00  0.00    +0.000 C 
ATOM     17  C   UNL     1      -4.311  12.782  24.208  0.00  0.00    +0.000 C 
ATOM     18  O   UNL     1      -5.199  13.064  23.120  0.00  0.00    +0.000 OA
ATOM     19  C   UNL     1      -4.578  12.742  21.873  0.00  0.00    +0.000 C 
ATOM     20  C   UNL     1      -3.302  13.578  21.686  0.00  0.00    +0.000 C 
ENDBRANCH  14  15
ENDBRANCH  13  14
ENDBRANCH  11  13
ENDBRANCH   5  11
ENDBRANCH   1   2
BRANCH   1  23
ATOM     21  C   UNL     1       3.287   5.017  18.045  0.00  0.00    +0.000 C 
ATOM     22  O   UNL     1       2.460   4.172  17.723  0.00  0.00    +0.000 OA
ATOM     23  N   UNL     1       3.133   5.860  19.118  0.00  0.00    +0.000 N 
ATOM     24  H   UNL     1       3.958   6.311  19.503  0.00  0.00    +0.000 HD
BRANCH  21  31
ATOM     25  C   UNL     1       7.692   7.330  17.519  0.00  0.00    +0.000 C 
ATOM     26  C   UNL     1       6.703   6.305  17.050  0.00  0.00    +0.000 A 
ATOM     27  C   UNL     1       6.937   5.569  15.877  0.00  0.00    +0.000 A 
ATOM     28  C   UNL     1       6.014   4.617  15.429  0.00  0.00    +0.000 A 
ATOM     29  C   UNL     1       6.250   3.833  14.172  0.00  0.00    +0.000 C 
ATOM     30  C   UNL     1       4.842   4.406  16.164  0.00  0.00    +0.000 A 
ATOM     31  C   UNL     1       4.576   5.161  17.315  0.00  0.00    +0.000 A 
ATOM     32  C   UNL     1       5.522   6.085  17.772  0.00  0.00    +0.000 A 
ENDBRANCH  21  31
ENDBRANCH   1  23
BRANCH   1  33
ATOM     33  C   UNL     1       2.316   4.987  21.254  0.00  0.00    +0.000 C 
BRANCH  33  34
ATOM     34  C   UNL     1       1.670   3.615  21.236  0.00  0.00    +0.000 C 
ATOM     35  N   UNL     1       0.688   3.463  20.301  0.00  0.00    +0.000 N 
ATOM     36  O   UNL     1       1.966   2.684  21.978  0.00  0.00    +0.000 OA
ATOM     37  H   UNL     1       0.640   4.064  19.488  0.00  0.00    +0.000 HD
ATOM     38  H   UNL     1       0.297   2.534  20.214  0.00  0.00    +0.000 HD
ENDBRANCH  33  34
ENDBRANCH   1  33
TORSDOF 10
ENDMDL
MODEL 8
REMARK VINA RESULT:      -8.2      2.820      8.718
REMARK  Name = 
REMARK  12 active torsions:
REMARK  status: ('A' for Active; 'I' for Inactive)
REMARK    1  A    between atoms: C_1  and  C_2
REMARK    2  A    between atoms: C_4  and  C_5
REMARK    3  A    between atoms: C_7  and  C_8
REMARK    4  A    between atoms: N_10  and  C_11
REMARK    5  A    between atoms: C_11  and  C_12
REMARK    6  A    between atoms: C_11  and  C_16
REMARK    7  A    between atoms: C_12  and  C_13
REMARK    8  A    between atoms: C_19  and  N_20
REMARK    9  A    between atoms: N_20  and  C_21
REMARK   10  A    between atoms: C_21  and  C_22
REMARK   11  A    between atoms: C_22  and  N_23
REMARK   12  A    between atoms: C_29  and  N_30
REMARK                            x       y       z     vdW  Elec       q    Type
REMARK                         _______ _______ _______ _____ _____    ______ ____
ROOT
ATOM      1  C   UNL     1       1.885   5.996  19.866  0.00  0.00    +0.000 C 
ENDROOT
BRANCH   1   2
ATOM      2  C   UNL     1       1.589   7.497  19.962  0.00  0.00    +0.000 A 
ATOM      3  C   UNL     1       1.796   8.367  18.891  0.00  0.00    +0.000 A 
ATOM      4  C   UNL     1       1.451   9.720  18.979  0.00  0.00    +0.000 A 
ATOM      5  C   UNL     1       0.913  10.291  20.140  0.00  0.00    +0.000 A 
ATOM      6  C   UNL     1       0.765   9.428  21.252  0.00  0.00    +0.000 A 
ATOM      7  C   UNL     1       1.115   8.058  21.159  0.00  0.00    +0.000 A 
BRANCH   6   8
ATOM      8  N   UNL     1       0.199   9.879  22.541  0.00  0.00    +0.000 N 
ATOM      9  O   UNL     1       0.804   9.615  23.590  0.00  0.00    +0.000 OA
ATOM     10  O   UNL     1      -0.887  10.484  22.511  0.00  0.00    +0.000 OA
ENDBRANCH   6   8
BRANCH   5  11
ATOM     11  N   UNL     1       0.512  11.631  20.145  0.00  0.00    +0.000 N 
ATOM     12  H   UNL     1       1.071  12.207  20.777  0.00  0.00    +0.000 HD
BRANCH  11  13
ATOM     13  C   UNL     1      -0.001  12.336  18.963  0.00  0.00    +0.000 C 
BRANCH  13  14
ATOM     14  C   UNL     1       1.055  13.329  18.414  0.00  0.00    +0.000 C 
BRANCH  14  15
ATOM     15  N   UNL     1       1.758  14.149  19.422  0.00  0.00    +0.000 NA
ATOM     16  C   UNL     1       1.284  15.546  19.523  0.00  0.00    +0.000 C 
ATOM     17  C   UNL     1       1.792  16.515  18.436  0.00  0.00    +0.000 C 
ATOM     18  O   UNL     1       3.210  16.436  18.249  0.00  0.00    +0.000 OA
ATOM     19  C   UNL     1       3.603  15.088  17.971  0.00  0.00    +0.000 C 
ATOM     20  C   UNL     1       3.216  14.173  19.143  0.00  0.00    +0.000 C 
ENDBRANCH  14  15
ENDBRANCH  13  14
ENDBRANCH  11  13
ENDBRANCH   5  11
ENDBRANCH   1   2
BRANCH   1  23
ATOM     21  C   UNL     1       3.244   5.013  18.016  0.00  0.00    +0.000 C 
ATOM     22  O   UNL     1       2.288   4.479  17.468  0.00  0.00    +0.000 OA
ATOM     23  N   UNL     1       3.141   5.765  19.161  0.00  0.00    +0.000 N 
ATOM     24  H   UNL     1       3.977   5.918  19.718  0.00  0.00    +0.000 HD
BRANCH  21  31
ATOM     25  C   UNL     1       8.178   5.365  18.768  0.00  0.00    +0.000 C 
ATOM     26  C   UNL     1       7.025   5.035  17.867  0.00  0.00    +0.000 A 
ATOM     27  C   UNL     1       7.244   4.674  16.528  0.00  0.00    +0.000 A 
ATOM     28  C   UNL     1       6.171   4.374  15.680  0.00  0.00    +0.000 A 
ATOM     29  C   UNL     1       6.394   3.998  14.244  0.00  0.00    +0.000 C 
ATOM     30  C   UNL     1       4.867   4.442  16.180  0.00  0.00    +0.000 A 
ATOM     31  C   UNL     1       4.631   4.838  17.505  0.00  0.00    +0.000 A 
ATOM     32  C   UNL     1       5.712   5.103  18.352  0.00  0.00    +0.000 A 
ENDBRANCH  21  31
ENDBRANCH   1  23
BRANCH   1  33
ATOM     33  C   UNL     1       1.905   5.233  21.206  0.00  0.00    +0.000 C 
BRANCH  33  34
ATOM     34  C   UNL     1       1.575   3.760  21.058  0.00  0.00    +0.000 C 
ATOM     35  N   UNL     1       2.078   2.965  22.047  0.00  0.00    +0.000 N 
ATOM     36  O   UNL     1       0.918   3.271  20.146  0.00  0.00    +0.000 OA
ATOM     37  H   UNL     1       2.330   3.346  22.949  0.00  0.00    +0.000 HD
ATOM     38  H   UNL     1       1.805   1.990  22.015  0.00  0.00    +0.000 HD
ENDBRANCH  33  34
ENDBRANCH   1  33
TORSDOF 10
ENDMDL
MODEL 9
REMARK VINA RESULT:      -8.2      1.954      9.093
REMARK  Name = 
REMARK  12 active torsions:
REMARK  status: ('A' for Active; 'I' for Inactive)
REMARK    1  A    between atoms: C_1  and  C_2
REMARK    2  A    between atoms: C_4  and  C_5
REMARK    3  A    between atoms: C_7  and  C_8
REMARK    4  A    between atoms: N_10  and  C_11
REMARK    5  A    between atoms: C_11  and  C_12
REMARK    6  A    between atoms: C_11  and  C_16
REMARK    7  A    between atoms: C_12  and  C_13
REMARK    8  A    between atoms: C_19  and  N_20
REMARK    9  A    between atoms: N_20  and  C_21
REMARK   10  A    between atoms: C_21  and  C_22
REMARK   11  A    between atoms: C_22  and  N_23
REMARK   12  A    between atoms: C_29  and  N_30
REMARK                            x       y       z     vdW  Elec       q    Type
REMARK                         _______ _______ _______ _____ _____    ______ ____
ROOT
ATOM      1  C   UNL     1       2.068   5.741  19.957  0.00  0.00    +0.000 C 
ENDROOT
BRANCH   1   2
ATOM      2  C   UNL     1       1.550   7.158  20.220  0.00  0.00    +0.000 A 
ATOM      3  C   UNL     1       0.808   7.481  21.356  0.00  0.00    +0.000 A 
ATOM      4  C   UNL     1       0.406   8.798  21.611  0.00  0.00    +0.000 A 
ATOM      5  C   UNL     1       0.691   9.858  20.740  0.00  0.00    +0.000 A 
ATOM      6  C   UNL     1       1.384   9.525  19.552  0.00  0.00    +0.000 A 
ATOM      7  C   UNL     1       1.789   8.191  19.298  0.00  0.00    +0.000 A 
BRANCH   6   8
ATOM      8  N   UNL     1       1.769  10.535  18.543  0.00  0.00    +0.000 N 
ATOM      9  O   UNL     1       1.867  11.722  18.887  0.00  0.00    +0.000 OA
ATOM     10  O   UNL     1       1.949  10.142  17.378  0.00  0.00    +0.000 OA
ENDBRANCH   6   8
BRANCH   5  11
ATOM     11  N   UNL     1       0.335  11.166  21.084  0.00  0.00    +0.000 N 
ATOM     12  H   UNL     1       1.100  11.830  20.952  0.00  0.00    +0.000 HD
BRANCH  11  13
ATOM     13  C   UNL     1      -1.007  11.728  20.888  0.00  0.00    +0.000 C 
BRANCH  13  14
ATOM     14  C   UNL     1      -1.680  11.120  19.630  0.00  0.00    +0.000 C 
BRANCH  14  15
ATOM     15  N   UNL     1      -2.384  12.074  18.749  0.00  0.00    +0.000 NA
ATOM     16  C   UNL     1      -3.798  12.320  19.109  0.00  0.00    +0.000 C 
ATOM     17  C   UNL     1      -4.805  11.235  18.678  0.00  0.00    +0.000 C 
ATOM     18  O   UNL     1      -4.653  10.858  17.304  0.00  0.00    +0.000 OA
ATOM     19  C   UNL     1      -3.307  10.451  17.044  0.00  0.00    +0.000 C 
ATOM     20  C   UNL     1      -2.339  11.607  17.340  0.00  0.00    +0.000 C 
ENDBRANCH  14  15
ENDBRANCH  13  14
ENDBRANCH  11  13
ENDBRANCH   5  11
ENDBRANCH   1   2
BRANCH   1  23
ATOM     21  C   UNL     1       3.372   4.915  17.993  0.00  0.00    +0.000 C 
ATOM     22  O   UNL     1       2.557   4.052  17.693  0.00  0.00    +0.000 OA
ATOM     23  N   UNL     1       3.214   5.773  19.054  0.00  0.00    +0.000 N 
ATOM     24  H   UNL     1       4.035   6.243  19.424  0.00  0.00    +0.000 HD
BRANCH  21  31
ATOM     25  C   UNL     1       7.792   7.199  17.471  0.00  0.00    +0.000 C 
ATOM     26  C   UNL     1       6.786   6.198  16.986  0.00  0.00    +0.000 A 
ATOM     27  C   UNL     1       6.996   5.496  15.788  0.00  0.00    +0.000 A 
ATOM     28  C   UNL     1       6.056   4.567  15.326  0.00  0.00    +0.000 A 
ATOM     29  C   UNL     1       6.265   3.820  14.042  0.00  0.00    +0.000 C 
ATOM     30  C   UNL     1       4.893   4.346  16.071  0.00  0.00    +0.000 A 
ATOM     31  C   UNL     1       4.652   5.068  17.249  0.00  0.00    +0.000 A 
ATOM     32  C   UNL     1       5.614   5.969  17.719  0.00  0.00    +0.000 A 
ENDBRANCH  21  31
ENDBRANCH   1  23
BRANCH   1  33
ATOM     33  C   UNL     1       2.431   4.920  21.211  0.00  0.00    +0.000 C 
BRANCH  33  34
ATOM     34  C   UNL     1       1.711   3.586  21.278  0.00  0.00    +0.000 C 
ATOM     35  N   UNL     1       0.755   3.410  20.320  0.00  0.00    +0.000 N 
ATOM     36  O   UNL     1       1.930   2.705  22.103  0.00  0.00    +0.000 OA
ATOM     37  H   UNL     1       0.768   3.942  19.461  0.00  0.00    +0.000 HD
ATOM     38  H   UNL     1       0.316   2.497  20.294  0.00  0.00    +0.000 HD
ENDBRANCH  33  34
ENDBRANCH   1  33
TORSDOF 10
ENDMDL
