MODEL 1
REMARK VINA RESULT:      -9.0      0.000      0.000
REMARK  Name = 
REMARK  4 active torsions:
REMARK  status: ('A' for Active; 'I' for Inactive)
REMARK    1  A    between atoms: C_6  and  C_7
REMARK    2  A    between atoms: N_15  and  C_16
REMARK    3  A    between atoms: C_16  and  C_17
REMARK    4  A    between atoms: N_19  and  C_20
REMARK                            x       y       z     vdW  Elec       q    Type
REMARK                         _______ _______ _______ _____ _____    ______ ____
ROOT
ATOM      1  C   UNL     1       6.960   5.020  15.942  0.00  0.00    +0.000 A 
ATOM      2  N   UNL     1       7.735   5.128  14.877  0.00  0.00    +0.000 NA
ATOM      3  C   UNL     1       7.033   4.569  13.844  0.00  0.00    +0.000 A 
ATOM      4  C   UNL     1       7.442   4.358  12.518  0.00  0.00    +0.000 A 
ATOM      5  C   UNL     1       6.552   3.762  11.622  0.00  0.00    +0.000 A 
ATOM      6  C   UNL     1       5.281   3.374  12.044  0.00  0.00    +0.000 A 
ATOM      7  C   UNL     1       4.860   3.567  13.371  0.00  0.00    +0.000 A 
ATOM      8  C   UNL     1       5.760   4.182  14.257  0.00  0.00    +0.000 A 
ATOM      9  N   UNL     1       5.709   4.537  15.588  0.00  0.00    +0.000 N 
ENDROOT
BRANCH   1  15
ATOM     10  N   UNL     1       7.437   7.844  17.157  0.00  0.00    +0.000 N 
ATOM     11  C   UNL     1       7.650   6.695  17.823  0.00  0.00    +0.000 A 
ATOM     12  N   UNL     1       8.062   6.614  19.085  0.00  0.00    +0.000 NA
ATOM     13  O   UNL     1       8.131   5.255  19.360  0.00  0.00    +0.000 OA
ATOM     14  N   UNL     1       7.734   4.495  18.265  0.00  0.00    +0.000 NA
ATOM     15  C   UNL     1       7.439   5.389  17.317  0.00  0.00    +0.000 A 
ATOM     16  H   UNL     1       7.446   8.733  17.642  0.00  0.00    +0.000 HD
ATOM     17  H   UNL     1       7.021   7.836  16.228  0.00  0.00    +0.000 HD
ENDBRANCH   1  15
BRANCH   9  18
ATOM     18  C   UNL     1       4.580   4.413  16.503  0.00  0.00    +0.000 C 
BRANCH  18  19
ATOM     19  C   UNL     1       4.075   5.687  17.140  0.00  0.00    +0.000 C 
ATOM     20  O   UNL     1       4.400   6.784  16.693  0.00  0.00    +0.000 OA
ATOM     21  N   UNL     1       3.209   5.493  18.207  0.00  0.00    +0.000 N 
ATOM     22  H   UNL     1       3.306   4.629  18.728  0.00  0.00    +0.000 HD
BRANCH  21  23
ATOM     23  C   UNL     1       2.552   6.552  18.865  0.00  0.00    +0.000 A 
ATOM     24  C   UNL     1       2.114   6.336  20.175  0.00  0.00    +0.000 A 
ATOM     25  C   UNL     1       1.514   7.371  20.896  0.00  0.00    +0.000 A 
ATOM     26  C   UNL     1       1.294   8.607  20.288  0.00  0.00    +0.000 A 
ATOM     27  C   UNL     1       1.675   8.802  18.962  0.00  0.00    +0.000 A 
ATOM     28 CL   UNL     1       1.336  10.308  18.194  0.00  0.00    +0.000 Cl
ATOM     29  C   UNL     1       2.319   7.787  18.250  0.00  0.00    +0.000 A 
ENDBRANCH  21  23
ENDBRANCH  18  19
ENDBRANCH   9  18
TORSDOF 4
ENDMDL
MODEL 2
REMARK VINA RESULT:      -9.0      0.940      1.341
REMARK  Name = 
REMARK  4 active torsions:
REMARK  status: ('A' for Active; 'I' for Inactive)
REMARK    1  A    between atoms: C_6  and  C_7
REMARK    2  A    between atoms: N_15  and  C_16
REMARK    3  A    between atoms: C_16  and  C_17
REMARK    4  A    between atoms: N_19  and  C_20
REMARK                            x       y       z     vdW  Elec       q    Type
REMARK                         _______ _______ _______ _____ _____    ______ ____
ROOT
ATOM      1  C   UNL     1       6.939   5.052  16.053  0.00  0.00    +0.000 A 
ATOM      2  N   UNL     1       7.714   5.050  14.983  0.00  0.00    +0.000 NA
ATOM      3  C   UNL     1       6.956   4.526  13.971  0.00  0.00    +0.000 A 
ATOM      4  C   UNL     1       7.334   4.232  12.652  0.00  0.00    +0.000 A 
ATOM      5  C   UNL     1       6.386   3.693  11.780  0.00  0.00    +0.000 A 
ATOM      6  C   UNL     1       5.087   3.442  12.219  0.00  0.00    +0.000 A 
ATOM      7  C   UNL     1       4.695   3.719  13.540  0.00  0.00    +0.000 A 
ATOM      8  C   UNL     1       5.654   4.275  14.401  0.00  0.00    +0.000 A 
ATOM      9  N   UNL     1       5.646   4.678  15.719  0.00  0.00    +0.000 N 
ENDROOT
BRANCH   1  15
ATOM     10  N   UNL     1       7.478   7.875  17.245  0.00  0.00    +0.000 N 
ATOM     11  C   UNL     1       7.698   6.725  17.908  0.00  0.00    +0.000 A 
ATOM     12  N   UNL     1       8.144   6.644  19.159  0.00  0.00    +0.000 NA
ATOM     13  O   UNL     1       8.207   5.285  19.436  0.00  0.00    +0.000 OA
ATOM     14  N   UNL     1       7.772   4.526  18.356  0.00  0.00    +0.000 NA
ATOM     15  C   UNL     1       7.460   5.420  17.413  0.00  0.00    +0.000 A 
ATOM     16  H   UNL     1       7.508   8.764  17.727  0.00  0.00    +0.000 HD
ATOM     17  H   UNL     1       7.035   7.868  16.328  0.00  0.00    +0.000 HD
ENDBRANCH   1  15
BRANCH   9  18
ATOM     18  C   UNL     1       4.516   4.693  16.643  0.00  0.00    +0.000 C 
BRANCH  18  19
ATOM     19  C   UNL     1       4.048   6.045  17.127  0.00  0.00    +0.000 C 
ATOM     20  O   UNL     1       4.513   7.078  16.651  0.00  0.00    +0.000 OA
ATOM     21  N   UNL     1       3.051   5.998  18.090  0.00  0.00    +0.000 N 
ATOM     22  H   UNL     1       3.015   5.171  18.676  0.00  0.00    +0.000 HD
BRANCH  21  23
ATOM     23  C   UNL     1       2.412   7.150  18.592  0.00  0.00    +0.000 A 
ATOM     24  C   UNL     1       2.069   8.156  17.684  0.00  0.00    +0.000 A 
ATOM     25  C   UNL     1       1.379   9.290  18.117  0.00  0.00    +0.000 A 
ATOM     26  C   UNL     1       1.083   9.450  19.470  0.00  0.00    +0.000 A 
ATOM     27  C   UNL     1       1.480   8.477  20.385  0.00  0.00    +0.000 A 
ATOM     28 CL   UNL     1       1.175   8.715  22.064  0.00  0.00    +0.000 Cl
ATOM     29  C   UNL     1       2.128   7.317  19.952  0.00  0.00    +0.000 A 
ENDBRANCH  21  23
ENDBRANCH  18  19
ENDBRANCH   9  18
TORSDOF 4
ENDMDL
MODEL 3
REMARK VINA RESULT:      -9.0      1.763      2.179
REMARK  Name = 
REMARK  4 active torsions:
REMARK  status: ('A' for Active; 'I' for Inactive)
REMARK    1  A    between atoms: C_6  and  C_7
REMARK    2  A    between atoms: N_15  and  C_16
REMARK    3  A    between atoms: C_16  and  C_17
REMARK    4  A    between atoms: N_19  and  C_20
REMARK                            x       y       z     vdW  Elec       q    Type
REMARK                         _______ _______ _______ _____ _____    ______ ____
ROOT
ATOM      1  C   UNL     1       7.178   4.951  15.862  0.00  0.00    +0.000 A 
ATOM      2  N   UNL     1       7.714   5.611  14.852  0.00  0.00    +0.000 NA
ATOM      3  C   UNL     1       7.304   4.963  13.719  0.00  0.00    +0.000 A 
ATOM      4  C   UNL     1       7.661   5.215  12.385  0.00  0.00    +0.000 A 
ATOM      5  C   UNL     1       7.118   4.417  11.377  0.00  0.00    +0.000 A 
ATOM      6  C   UNL     1       6.242   3.380  11.694  0.00  0.00    +0.000 A 
ATOM      7  C   UNL     1       5.883   3.106  13.025  0.00  0.00    +0.000 A 
ATOM      8  C   UNL     1       6.425   3.927  14.028  0.00  0.00    +0.000 A 
ATOM      9  N   UNL     1       6.307   3.975  15.400  0.00  0.00    +0.000 N 
ENDROOT
BRANCH   1  15
ATOM     10  N   UNL     1       7.273   7.717  17.283  0.00  0.00    +0.000 N 
ATOM     11  C   UNL     1       7.554   6.551  17.891  0.00  0.00    +0.000 A 
ATOM     12  N   UNL     1       7.878   6.423  19.176  0.00  0.00    +0.000 NA
ATOM     13  O   UNL     1       8.066   5.061  19.371  0.00  0.00    +0.000 OA
ATOM     14  N   UNL     1       7.830   4.344  18.204  0.00  0.00    +0.000 NA
ATOM     15  C   UNL     1       7.515   5.268  17.292  0.00  0.00    +0.000 A 
ATOM     16  H   UNL     1       7.156   8.566  17.821  0.00  0.00    +0.000 HD
ATOM     17  H   UNL     1       6.929   7.733  16.324  0.00  0.00    +0.000 HD
ENDBRANCH   1  15
BRANCH   9  18
ATOM     18  C   UNL     1       5.461   3.149  16.254  0.00  0.00    +0.000 C 
BRANCH  18  19
ATOM     19  C   UNL     1       4.420   3.865  17.081  0.00  0.00    +0.000 C 
ATOM     20  O   UNL     1       4.001   4.970  16.744  0.00  0.00    +0.000 OA
ATOM     21  N   UNL     1       3.974   3.154  18.187  0.00  0.00    +0.000 N 
ATOM     22  H   UNL     1       4.615   2.479  18.590  0.00  0.00    +0.000 HD
BRANCH  21  23
ATOM     23  C   UNL     1       2.933   3.607  19.023  0.00  0.00    +0.000 A 
ATOM     24  C   UNL     1       1.961   2.683  19.415  0.00  0.00    +0.000 A 
ATOM     25  C   UNL     1       0.943   3.063  20.293  0.00  0.00    +0.000 A 
ATOM     26  C   UNL     1       0.860   4.384  20.733  0.00  0.00    +0.000 A 
ATOM     27  C   UNL     1       1.793   5.319  20.292  0.00  0.00    +0.000 A 
ATOM     28 CL   UNL     1       1.642   6.965  20.782  0.00  0.00    +0.000 Cl
ATOM     29  C   UNL     1       2.842   4.936  19.452  0.00  0.00    +0.000 A 
ENDBRANCH  21  23
ENDBRANCH  18  19
ENDBRANCH   9  18
TORSDOF 4
ENDMDL
MODEL 4
REMARK VINA RESULT:      -9.0      2.575      5.160
REMARK  Name = 
REMARK  4 active torsions:
REMARK  status: ('A' for Active; 'I' for Inactive)
REMARK    1  A    between atoms: C_6  and  C_7
REMARK    2  A    between atoms: N_15  and  C_16
REMARK    3  A    between atoms: C_16  and  C_17
REMARK    4  A    between atoms: N_19  and  C_20
REMARK                            x       y       z     vdW  Elec       q    Type
REMARK                         _______ _______ _______ _____ _____    ______ ____
ROOT
ATOM      1  C   UNL     1       4.692   4.771  18.385  0.00  0.00    +0.000 A 
ATOM      2  N   UNL     1       4.928   3.707  19.130  0.00  0.00    +0.000 NA
ATOM      3  C   UNL     1       3.784   3.490  19.849  0.00  0.00    +0.000 A 
ATOM      4  C   UNL     1       3.542   2.533  20.847  0.00  0.00    +0.000 A 
ATOM      5  C   UNL     1       2.286   2.494  21.456  0.00  0.00    +0.000 A 
ATOM      6  C   UNL     1       1.294   3.400  21.084  0.00  0.00    +0.000 A 
ATOM      7  C   UNL     1       1.523   4.372  20.095  0.00  0.00    +0.000 A 
ATOM      8  C   UNL     1       2.786   4.389  19.480  0.00  0.00    +0.000 A 
ATOM      9  N   UNL     1       3.366   5.160  18.496  0.00  0.00    +0.000 N 
ENDROOT
BRANCH   1  15
ATOM     10  N   UNL     1       6.242   3.621  15.944  0.00  0.00    +0.000 N 
ATOM     11  C   UNL     1       6.451   4.847  16.456  0.00  0.00    +0.000 A 
ATOM     12  N   UNL     1       7.319   5.733  15.974  0.00  0.00    +0.000 NA
ATOM     13  O   UNL     1       7.192   6.849  16.790  0.00  0.00    +0.000 OA
ATOM     14  N   UNL     1       6.221   6.657  17.766  0.00  0.00    +0.000 NA
ATOM     15  C   UNL     1       5.766   5.418  17.557  0.00  0.00    +0.000 A 
ATOM     16  H   UNL     1       6.647   3.355  15.056  0.00  0.00    +0.000 HD
ATOM     17  H   UNL     1       5.488   3.033  16.296  0.00  0.00    +0.000 HD
ENDBRANCH   1  15
BRANCH   9  18
ATOM     18  C   UNL     1       2.748   6.225  17.713  0.00  0.00    +0.000 C 
BRANCH  18  19
ATOM     19  C   UNL     1       2.345   7.474  18.459  0.00  0.00    +0.000 C 
ATOM     20  O   UNL     1       2.548   7.578  19.667  0.00  0.00    +0.000 OA
ATOM     21  N   UNL     1       1.787   8.465  17.664  0.00  0.00    +0.000 N 
ATOM     22  H   UNL     1       1.318   8.166  16.816  0.00  0.00    +0.000 HD
BRANCH  21  23
ATOM     23  C   UNL     1       1.442   9.741  18.155  0.00  0.00    +0.000 A 
ATOM     24  C   UNL     1       0.188   9.895  18.753  0.00  0.00    +0.000 A 
ATOM     25  C   UNL     1      -0.180  11.121  19.312  0.00  0.00    +0.000 A 
ATOM     26  C   UNL     1       0.681  12.214  19.219  0.00  0.00    +0.000 A 
ATOM     27  C   UNL     1       1.905  12.077  18.568  0.00  0.00    +0.000 A 
ATOM     28 CL   UNL     1       2.932  13.450  18.395  0.00  0.00    +0.000 Cl
ATOM     29  C   UNL     1       2.300  10.842  18.049  0.00  0.00    +0.000 A 
ENDBRANCH  21  23
ENDBRANCH  18  19
ENDBRANCH   9  18
TORSDOF 4
ENDMDL
MODEL 5
REMARK VINA RESULT:      -8.9      2.607      5.242
REMARK  Name = 
REMARK  4 active torsions:
REMARK  status: ('A' for Active; 'I' for Inactive)
REMARK    1  A    between atoms: C_6  and  C_7
REMARK    2  A    between atoms: N_15  and  C_16
REMARK    3  A    between atoms: C_16  and  C_17
REMARK    4  A    between atoms: N_19  and  C_20
REMARK                            x       y       z     vdW  Elec       q    Type
REMARK                         _______ _______ _______ _____ _____    ______ ____
ROOT
ATOM      1  C   UNL     1       4.608   4.830  18.347  0.00  0.00    +0.000 A 
ATOM      2  N   UNL     1       4.850   3.756  19.076  0.00  0.00    +0.000 NA
ATOM      3  C   UNL     1       3.711   3.528  19.800  0.00  0.00    +0.000 A 
ATOM      4  C   UNL     1       3.477   2.557  20.786  0.00  0.00    +0.000 A 
ATOM      5  C   UNL     1       2.225   2.508  21.402  0.00  0.00    +0.000 A 
ATOM      6  C   UNL     1       1.228   3.417  21.048  0.00  0.00    +0.000 A 
ATOM      7  C   UNL     1       1.450   4.402  20.071  0.00  0.00    +0.000 A 
ATOM      8  C   UNL     1       2.709   4.430  19.448  0.00  0.00    +0.000 A 
ATOM      9  N   UNL     1       3.281   5.215  18.471  0.00  0.00    +0.000 N 
ENDROOT
BRANCH   1  15
ATOM     10  N   UNL     1       6.276   3.650  16.000  0.00  0.00    +0.000 N 
ATOM     11  C   UNL     1       6.416   4.905  16.464  0.00  0.00    +0.000 A 
ATOM     12  N   UNL     1       7.257   5.808  15.968  0.00  0.00    +0.000 NA
ATOM     13  O   UNL     1       7.059   6.950  16.732  0.00  0.00    +0.000 OA
ATOM     14  N   UNL     1       6.069   6.755  17.688  0.00  0.00    +0.000 NA
ATOM     15  C   UNL     1       5.675   5.489  17.520  0.00  0.00    +0.000 A 
ATOM     16  H   UNL     1       6.717   3.366  15.134  0.00  0.00    +0.000 HD
ATOM     17  H   UNL     1       5.539   3.044  16.356  0.00  0.00    +0.000 HD
ENDBRANCH   1  15
BRANCH   9  18
ATOM     18  C   UNL     1       2.657   6.289  17.707  0.00  0.00    +0.000 C 
BRANCH  18  19
ATOM     19  C   UNL     1       2.276   7.537  18.468  0.00  0.00    +0.000 C 
ATOM     20  O   UNL     1       2.484   7.624  19.676  0.00  0.00    +0.000 OA
ATOM     21  N   UNL     1       1.733   8.546  17.685  0.00  0.00    +0.000 N 
ATOM     22  H   UNL     1       1.257   8.264  16.835  0.00  0.00    +0.000 HD
BRANCH  21  23
ATOM     23  C   UNL     1       1.411   9.822  18.191  0.00  0.00    +0.000 A 
ATOM     24  C   UNL     1       2.345  10.847  18.022  0.00  0.00    +0.000 A 
ATOM     25  C   UNL     1       2.051  12.145  18.448  0.00  0.00    +0.000 A 
ATOM     26  C   UNL     1       0.845  12.407  19.099  0.00  0.00    +0.000 A 
ATOM     27  C   UNL     1      -0.059  11.371  19.322  0.00  0.00    +0.000 A 
ATOM     28 CL   UNL     1      -1.514  11.687  20.191  0.00  0.00    +0.000 Cl
ATOM     29  C   UNL     1       0.208  10.081  18.857  0.00  0.00    +0.000 A 
ENDBRANCH  21  23
ENDBRANCH  18  19
ENDBRANCH   9  18
TORSDOF 4
ENDMDL
MODEL 6
REMARK VINA RESULT:      -8.9      2.185      2.597
REMARK  Name = 
REMARK  4 active torsions:
REMARK  status: ('A' for Active; 'I' for Inactive)
REMARK    1  A    between atoms: C_6  and  C_7
REMARK    2  A    between atoms: N_15  and  C_16
REMARK    3  A    between atoms: C_16  and  C_17
REMARK    4  A    between atoms: N_19  and  C_20
REMARK                            x       y       z     vdW  Elec       q    Type
REMARK                         _______ _______ _______ _____ _____    ______ ____
ROOT
ATOM      1  C   UNL     1       7.200   4.969  15.872  0.00  0.00    +0.000 A 
ATOM      2  N   UNL     1       7.682   5.687  14.874  0.00  0.00    +0.000 NA
ATOM      3  C   UNL     1       7.318   5.032  13.729  0.00  0.00    +0.000 A 
ATOM      4  C   UNL     1       7.651   5.336  12.400  0.00  0.00    +0.000 A 
ATOM      5  C   UNL     1       7.166   4.519  11.377  0.00  0.00    +0.000 A 
ATOM      6  C   UNL     1       6.370   3.413  11.675  0.00  0.00    +0.000 A 
ATOM      7  C   UNL     1       6.037   3.088  13.001  0.00  0.00    +0.000 A 
ATOM      8  C   UNL     1       6.519   3.927  14.019  0.00  0.00    +0.000 A 
ATOM      9  N   UNL     1       6.403   3.940  15.392  0.00  0.00    +0.000 N 
ENDROOT
BRANCH   1  15
ATOM     10  N   UNL     1       7.272   7.731  17.301  0.00  0.00    +0.000 N 
ATOM     11  C   UNL     1       7.546   6.564  17.910  0.00  0.00    +0.000 A 
ATOM     12  N   UNL     1       7.853   6.433  19.198  0.00  0.00    +0.000 NA
ATOM     13  O   UNL     1       8.040   5.071  19.392  0.00  0.00    +0.000 OA
ATOM     14  N   UNL     1       7.821   4.357  18.220  0.00  0.00    +0.000 NA
ATOM     15  C   UNL     1       7.517   5.283  17.306  0.00  0.00    +0.000 A 
ATOM     16  H   UNL     1       7.145   8.579  17.840  0.00  0.00    +0.000 HD
ATOM     17  H   UNL     1       6.940   7.749  16.338  0.00  0.00    +0.000 HD
ENDBRANCH   1  15
BRANCH   9  18
ATOM     18  C   UNL     1       5.624   3.037  16.231  0.00  0.00    +0.000 C 
BRANCH  18  19
ATOM     19  C   UNL     1       4.458   3.637  16.981  0.00  0.00    +0.000 C 
ATOM     20  O   UNL     1       3.408   3.905  16.400  0.00  0.00    +0.000 OA
ATOM     21  N   UNL     1       4.672   3.803  18.341  0.00  0.00    +0.000 N 
ATOM     22  H   UNL     1       5.631   3.927  18.645  0.00  0.00    +0.000 HD
BRANCH  21  23
ATOM     23  C   UNL     1       3.671   4.251  19.228  0.00  0.00    +0.000 A 
ATOM     24  C   UNL     1       3.410   5.623  19.280  0.00  0.00    +0.000 A 
ATOM     25  C   UNL     1       2.387   6.115  20.094  0.00  0.00    +0.000 A 
ATOM     26  C   UNL     1       1.662   5.241  20.904  0.00  0.00    +0.000 A 
ATOM     27  C   UNL     1       1.964   3.881  20.898  0.00  0.00    +0.000 A 
ATOM     28 CL   UNL     1       1.112   2.818  21.955  0.00  0.00    +0.000 Cl
ATOM     29  C   UNL     1       2.953   3.377  20.051  0.00  0.00    +0.000 A 
ENDBRANCH  21  23
ENDBRANCH  18  19
ENDBRANCH   9  18
TORSDOF 4
ENDMDL
MODEL 7
REMARK VINA RESULT:      -8.8      3.780      5.152
REMARK  Name = 
REMARK  4 active torsions:
REMARK  status: ('A' for Active; 'I' for Inactive)
REMARK    1  A    between atoms: C_6  and  C_7
REMARK    2  A    between atoms: N_15  and  C_16
REMARK    3  A    between atoms: C_16  and  C_17
REMARK    4  A    between atoms: N_19  and  C_20
REMARK                            x       y       z     vdW  Elec       q    Type
REMARK                         _______ _______ _______ _____ _____    ______ ____
ROOT
ATOM      1  C   UNL     1       4.249   4.575  19.160  0.00  0.00    +0.000 A 
ATOM      2  N   UNL     1       5.492   4.435  19.583  0.00  0.00    +0.000 NA
ATOM      3  C   UNL     1       6.222   5.391  18.931  0.00  0.00    +0.000 A 
ATOM      4  C   UNL     1       7.607   5.614  18.965  0.00  0.00    +0.000 A 
ATOM      5  C   UNL     1       8.142   6.659  18.209  0.00  0.00    +0.000 A 
ATOM      6  C   UNL     1       7.312   7.461  17.426  0.00  0.00    +0.000 A 
ATOM      7  C   UNL     1       5.925   7.244  17.372  0.00  0.00    +0.000 A 
ATOM      8  C   UNL     1       5.398   6.199  18.149  0.00  0.00    +0.000 A 
ATOM      9  N   UNL     1       4.131   5.701  18.359  0.00  0.00    +0.000 N 
ENDROOT
BRANCH   1  15
ATOM     10  N   UNL     1       2.070   4.835  21.366  0.00  0.00    +0.000 N 
ATOM     11  C   UNL     1       2.198   3.766  20.559  0.00  0.00    +0.000 A 
ATOM     12  N   UNL     1       1.400   2.701  20.578  0.00  0.00    +0.000 NA
ATOM     13  O   UNL     1       1.886   1.864  19.582  0.00  0.00    +0.000 OA
ATOM     14  N   UNL     1       2.975   2.431  18.929  0.00  0.00    +0.000 NA
ATOM     15  C   UNL     1       3.165   3.605  19.537  0.00  0.00    +0.000 A 
ATOM     16  H   UNL     1       1.251   4.947  21.950  0.00  0.00    +0.000 HD
ATOM     17  H   UNL     1       2.648   5.662  21.227  0.00  0.00    +0.000 HD
ENDBRANCH   1  15
BRANCH   9  18
ATOM     18  C   UNL     1       2.871   6.209  17.828  0.00  0.00    +0.000 C 
BRANCH  18  19
ATOM     19  C   UNL     1       2.298   7.440  18.489  0.00  0.00    +0.000 C 
ATOM     20  O   UNL     1       2.247   7.529  19.714  0.00  0.00    +0.000 OA
ATOM     21  N   UNL     1       1.896   8.433  17.608  0.00  0.00    +0.000 N 
ATOM     22  H   UNL     1       1.617   8.139  16.678  0.00  0.00    +0.000 HD
BRANCH  21  23
ATOM     23  C   UNL     1       1.433   9.696  18.032  0.00  0.00    +0.000 A 
ATOM     24  C   UNL     1       0.070   9.832  18.310  0.00  0.00    +0.000 A 
ATOM     25  C   UNL     1      -0.432  11.042  18.794  0.00  0.00    +0.000 A 
ATOM     26  C   UNL     1       0.417  12.139  18.942  0.00  0.00    +0.000 A 
ATOM     27  C   UNL     1       1.764  12.020  18.604  0.00  0.00    +0.000 A 
ATOM     28 CL   UNL     1       2.792  13.399  18.721  0.00  0.00    +0.000 Cl
ATOM     29  C   UNL     1       2.282  10.800  18.166  0.00  0.00    +0.000 A 
ENDBRANCH  21  23
ENDBRANCH  18  19
ENDBRANCH   9  18
TORSDOF 4
ENDMDL
MODEL 8
REMARK VINA RESULT:      -8.8      2.520      4.721
REMARK  Name = 
REMARK  4 active torsions:
REMARK  status: ('A' for Active; 'I' for Inactive)
REMARK    1  A    between atoms: C_6  and  C_7
REMARK    2  A    between atoms: N_15  and  C_16
REMARK    3  A    between atoms: C_16  and  C_17
REMARK    4  A    between atoms: N_19  and  C_20
REMARK                            x       y       z     vdW  Elec       q    Type
REMARK                         _______ _______ _______ _____ _____    ______ ____
ROOT
ATOM      1  C   UNL     1       4.218   4.404  17.142  0.00  0.00    +0.000 A 
ATOM      2  N   UNL     1       3.650   3.216  17.053  0.00  0.00    +0.000 NA
ATOM      3  C   UNL     1       2.683   3.188  18.020  0.00  0.00    +0.000 A 
ATOM      4  C   UNL     1       1.847   2.125  18.397  0.00  0.00    +0.000 A 
ATOM      5  C   UNL     1       0.923   2.323  19.425  0.00  0.00    +0.000 A 
ATOM      6  C   UNL     1       0.840   3.555  20.072  0.00  0.00    +0.000 A 
ATOM      7  C   UNL     1       1.677   4.626  19.715  0.00  0.00    +0.000 A 
ATOM      8  C   UNL     1       2.591   4.419  18.669  0.00  0.00    +0.000 A 
ATOM      9  N   UNL     1       3.539   5.204  18.049  0.00  0.00    +0.000 N 
ENDROOT
BRANCH   1  15
ATOM     10  N   UNL     1       7.218   4.249  17.952  0.00  0.00    +0.000 N 
ATOM     11  C   UNL     1       6.786   4.688  16.756  0.00  0.00    +0.000 A 
ATOM     12  N   UNL     1       7.576   5.083  15.761  0.00  0.00    +0.000 NA
ATOM     13  O   UNL     1       6.715   5.433  14.729  0.00  0.00    +0.000 OA
ATOM     14  N   UNL     1       5.387   5.227  15.084  0.00  0.00    +0.000 NA
ATOM     15  C   UNL     1       5.435   4.768  16.338  0.00  0.00    +0.000 A 
ATOM     16  H   UNL     1       8.200   4.060  18.110  0.00  0.00    +0.000 HD
ATOM     17  H   UNL     1       6.564   3.862  18.630  0.00  0.00    +0.000 HD
ENDBRANCH   1  15
BRANCH   9  18
ATOM     18  C   UNL     1       3.834   6.611  18.294  0.00  0.00    +0.000 C 
BRANCH  18  19
ATOM     19  C   UNL     1       2.656   7.519  18.555  0.00  0.00    +0.000 C 
ATOM     20  O   UNL     1       1.909   7.859  17.640  0.00  0.00    +0.000 OA
ATOM     21  N   UNL     1       2.488   7.878  19.885  0.00  0.00    +0.000 N 
ATOM     22  H   UNL     1       3.318   7.887  20.468  0.00  0.00    +0.000 HD
BRANCH  21  23
ATOM     23  C   UNL     1       1.390   8.634  20.345  0.00  0.00    +0.000 A 
ATOM     24  C   UNL     1       0.718   8.185  21.485  0.00  0.00    +0.000 A 
ATOM     25  C   UNL     1      -0.335   8.929  22.020  0.00  0.00    +0.000 A 
ATOM     26  C   UNL     1      -0.760  10.094  21.380  0.00  0.00    +0.000 A 
ATOM     27  C   UNL     1      -0.130  10.507  20.208  0.00  0.00    +0.000 A 
ATOM     28 CL   UNL     1      -0.707  11.907  19.384  0.00  0.00    +0.000 Cl
ATOM     29  C   UNL     1       0.955   9.794  19.695  0.00  0.00    +0.000 A 
ENDBRANCH  21  23
ENDBRANCH  18  19
ENDBRANCH   9  18
TORSDOF 4
ENDMDL
MODEL 9
REMARK VINA RESULT:      -8.8      2.682      5.043
REMARK  Name = 
REMARK  4 active torsions:
REMARK  status: ('A' for Active; 'I' for Inactive)
REMARK    1  A    between atoms: C_6  and  C_7
REMARK    2  A    between atoms: N_15  and  C_16
REMARK    3  A    between atoms: C_16  and  C_17
REMARK    4  A    between atoms: N_19  and  C_20
REMARK                            x       y       z     vdW  Elec       q    Type
REMARK                         _______ _______ _______ _____ _____    ______ ____
ROOT
ATOM      1  C   UNL     1       4.100   4.646  17.208  0.00  0.00    +0.000 A 
ATOM      2  N   UNL     1       3.527   3.464  17.072  0.00  0.00    +0.000 NA
ATOM      3  C   UNL     1       2.581   3.389  18.058  0.00  0.00    +0.000 A 
ATOM      4  C   UNL     1       1.752   2.310  18.399  0.00  0.00    +0.000 A 
ATOM      5  C   UNL     1       0.851   2.456  19.456  0.00  0.00    +0.000 A 
ATOM      6  C   UNL     1       0.786   3.654  20.166  0.00  0.00    +0.000 A 
ATOM      7  C   UNL     1       1.617   4.741  19.845  0.00  0.00    +0.000 A 
ATOM      8  C   UNL     1       2.507   4.585  18.770  0.00  0.00    +0.000 A 
ATOM      9  N   UNL     1       3.444   5.399  18.170  0.00  0.00    +0.000 N 
ENDROOT
BRANCH   1  15
ATOM     10  N   UNL     1       7.119   4.264  17.856  0.00  0.00    +0.000 N 
ATOM     11  C   UNL     1       6.661   4.860  16.740  0.00  0.00    +0.000 A 
ATOM     12  N   UNL     1       7.428   5.334  15.763  0.00  0.00    +0.000 NA
ATOM     13  O   UNL     1       6.545   5.841  14.819  0.00  0.00    +0.000 OA
ATOM     14  N   UNL     1       5.224   5.654  15.208  0.00  0.00    +0.000 NA
ATOM     15  C   UNL     1       5.300   5.048  16.397  0.00  0.00    +0.000 A 
ATOM     16  H   UNL     1       8.096   4.015  17.945  0.00  0.00    +0.000 HD
ATOM     17  H   UNL     1       6.475   3.829  18.514  0.00  0.00    +0.000 HD
ENDBRANCH   1  15
BRANCH   9  18
ATOM     18  C   UNL     1       3.747   6.792  18.480  0.00  0.00    +0.000 C 
BRANCH  18  19
ATOM     19  C   UNL     1       2.584   7.675  18.864  0.00  0.00    +0.000 C 
ATOM     20  O   UNL     1       2.110   7.631  19.997  0.00  0.00    +0.000 OA
ATOM     21  N   UNL     1       2.156   8.533  17.862  0.00  0.00    +0.000 N 
ATOM     22  H   UNL     1       2.321   8.242  16.904  0.00  0.00    +0.000 HD
BRANCH  21  23
ATOM     23  C   UNL     1       1.153   9.505  18.058  0.00  0.00    +0.000 A 
ATOM     24  C   UNL     1       1.536  10.743  18.581  0.00  0.00    +0.000 A 
ATOM     25  C   UNL     1       0.594  11.763  18.737  0.00  0.00    +0.000 A 
ATOM     26  C   UNL     1      -0.745  11.526  18.427  0.00  0.00    +0.000 A 
ATOM     27  C   UNL     1      -1.137  10.272  17.964  0.00  0.00    +0.000 A 
ATOM     28 CL   UNL     1      -2.804   9.965  17.650  0.00  0.00    +0.000 Cl
ATOM     29  C   UNL     1      -0.192   9.263  17.760  0.00  0.00    +0.000 A 
ENDBRANCH  21  23
ENDBRANCH  18  19
ENDBRANCH   9  18
TORSDOF 4
ENDMDL
