MODEL 1
REMARK VINA RESULT:      -8.9      0.000      0.000
REMARK  Name = 
REMARK  7 active torsions:
REMARK  status: ('A' for Active; 'I' for Inactive)
REMARK    1  A    between atoms: C_1  and  O_2
REMARK    2  A    between atoms: O_2  and  C_3
REMARK    3  A    between atoms: C_8  and  C_9
REMARK    4  A    between atoms: C_12  and  N_13
REMARK    5  A    between atoms: N_13  and  C_14
REMARK    6  A    between atoms: C_24  and  O_25
REMARK    7  A    between atoms: O_25  and  C_26
REMARK                            x       y       z     vdW  Elec       q    Type
REMARK                         _______ _______ _______ _____ _____    ______ ____
ROOT
ATOM      1  C   UNL     1       6.481   5.050  16.048  0.00  0.00    +0.000 A 
ATOM      2  C   UNL     1       5.569   4.012  16.268  0.00  0.00    +0.000 A 
ATOM      3  C   UNL     1       4.559   4.088  17.216  0.00  0.00    +0.000 A 
ATOM      4  N   UNL     1       3.795   3.001  17.366  0.00  0.00    +0.000 NA
ATOM      5  C   UNL     1       2.854   3.012  18.333  0.00  0.00    +0.000 A 
ATOM      6  C   UNL     1       2.571   4.099  19.148  0.00  0.00    +0.000 A 
ATOM      7  C   UNL     1       3.312   5.285  18.935  0.00  0.00    +0.000 A 
ATOM      8  C   UNL     1       4.403   5.254  17.990  0.00  0.00    +0.000 A 
ATOM      9  C   UNL     1       5.357   6.286  17.765  0.00  0.00    +0.000 A 
ATOM     10  C   UNL     1       6.332   6.229  16.764  0.00  0.00    +0.000 A 
ENDROOT
BRANCH   6  11
ATOM     11  C   UNL     1       1.517   3.871  20.173  0.00  0.00    +0.000 C 
ATOM     12  N   UNL     1       0.476   3.040  19.883  0.00  0.00    +0.000 N 
ATOM     13  O   UNL     1       1.562   4.423  21.270  0.00  0.00    +0.000 OA
ATOM     14  H   UNL     1       0.522   2.405  19.095  0.00  0.00    +0.000 HD
ATOM     15  H   UNL     1      -0.177   2.843  20.626  0.00  0.00    +0.000 HD
ENDBRANCH   6  11
BRANCH   1  17
ATOM     16  C   UNL     1       7.144   4.754  13.811  0.00  0.00    +0.000 C 
ATOM     17  O   UNL     1       7.529   4.931  15.174  0.00  0.00    +0.000 OA
ENDBRANCH   1  17
BRANCH   7  18
ATOM     18  N   UNL     1       3.021   6.442  19.736  0.00  0.00    +0.000 N 
ATOM     19  H   UNL     1       3.887   6.759  20.188  0.00  0.00    +0.000 HD
BRANCH  18  20
ATOM     20  C   UNL     1       2.229   7.567  19.385  0.00  0.00    +0.000 A 
ATOM     21  C   UNL     1       2.215   8.100  18.089  0.00  0.00    +0.000 A 
ATOM     22  C   UNL     1       1.601   9.334  17.847  0.00  0.00    +0.000 A 
ATOM     23  C   UNL     1       0.933   9.986  18.879  0.00  0.00    +0.000 A 
ATOM     24  F   UNL     1       0.397  11.192  18.656  0.00  0.00    +0.000 F 
ATOM     25  C   UNL     1       0.824   9.413  20.137  0.00  0.00    +0.000 A 
ATOM     26  C   UNL     1       1.462   8.203  20.376  0.00  0.00    +0.000 A 
ATOM     27  F   UNL     1       1.410   7.667  21.604  0.00  0.00    +0.000 F 
ENDBRANCH  18  20
ENDBRANCH   7  18
BRANCH  10  28
ATOM     28  O   UNL     1       7.087   7.366  16.657  0.00  0.00    +0.000 OA
ATOM     29  C   UNL     1       7.808   7.754  17.823  0.00  0.00    +0.000 C 
ENDBRANCH  10  28
TORSDOF 5
ENDMDL
MODEL 2
REMARK VINA RESULT:      -8.1      0.965      1.366
REMARK  Name = 
REMARK  7 active torsions:
REMARK  status: ('A' for Active; 'I' for Inactive)
REMARK    1  A    between atoms: C_1  and  O_2
REMARK    2  A    between atoms: O_2  and  C_3
REMARK    3  A    between atoms: C_8  and  C_9
REMARK    4  A    between atoms: C_12  and  N_13
REMARK    5  A    between atoms: N_13  and  C_14
REMARK    6  A    between atoms: C_24  and  O_25
REMARK    7  A    between atoms: O_25  and  C_26
REMARK                            x       y       z     vdW  Elec       q    Type
REMARK                         _______ _______ _______ _____ _____    ______ ____
ROOT
ATOM      1  C   UNL     1       6.314   5.184  15.825  0.00  0.00    +0.000 A 
ATOM      2  C   UNL     1       5.294   4.235  15.956  0.00  0.00    +0.000 A 
ATOM      3  C   UNL     1       4.323   4.309  16.944  0.00  0.00    +0.000 A 
ATOM      4  N   UNL     1       3.443   3.305  16.995  0.00  0.00    +0.000 NA
ATOM      5  C   UNL     1       2.533   3.304  17.992  0.00  0.00    +0.000 A 
ATOM      6  C   UNL     1       2.397   4.310  18.937  0.00  0.00    +0.000 A 
ATOM      7  C   UNL     1       3.264   5.423  18.837  0.00  0.00    +0.000 A 
ATOM      8  C   UNL     1       4.321   5.384  17.854  0.00  0.00    +0.000 A 
ATOM      9  C   UNL     1       5.383   6.323  17.716  0.00  0.00    +0.000 A 
ATOM     10  C   UNL     1       6.319   6.278  16.678  0.00  0.00    +0.000 A 
ENDROOT
BRANCH   6  11
ATOM     11  C   UNL     1       1.348   4.080  19.968  0.00  0.00    +0.000 C 
ATOM     12  N   UNL     1       0.272   3.303  19.659  0.00  0.00    +0.000 N 
ATOM     13  O   UNL     1       1.430   4.583  21.086  0.00  0.00    +0.000 OA
ATOM     14  H   UNL     1       0.283   2.700  18.845  0.00  0.00    +0.000 HD
ATOM     15  H   UNL     1      -0.378   3.099  20.403  0.00  0.00    +0.000 HD
ENDBRANCH   6  11
BRANCH   1  17
ATOM     16  C   UNL     1       6.907   4.511  13.651  0.00  0.00    +0.000 C 
ATOM     17  O   UNL     1       7.320   5.055  14.904  0.00  0.00    +0.000 OA
ENDBRANCH   1  17
BRANCH   7  18
ATOM     18  N   UNL     1       3.128   6.500  19.778  0.00  0.00    +0.000 N 
ATOM     19  H   UNL     1       4.064   6.801  20.076  0.00  0.00    +0.000 HD
BRANCH  18  20
ATOM     20  C   UNL     1       2.272   7.630  19.690  0.00  0.00    +0.000 A 
ATOM     21  C   UNL     1       1.497   8.070  20.773  0.00  0.00    +0.000 A 
ATOM     22  C   UNL     1       0.507   9.038  20.575  0.00  0.00    +0.000 A 
ATOM     23  C   UNL     1       0.353   9.621  19.321  0.00  0.00    +0.000 A 
ATOM     24  F   UNL     1      -0.634  10.505  19.124  0.00  0.00    +0.000 F 
ATOM     25  C   UNL     1       1.194   9.293  18.269  0.00  0.00    +0.000 A 
ATOM     26  C   UNL     1       2.154   8.309  18.467  0.00  0.00    +0.000 A 
ATOM     27  F   UNL     1       2.938   7.944  17.441  0.00  0.00    +0.000 F 
ENDBRANCH  18  20
ENDBRANCH   7  18
BRANCH  10  28
ATOM     28  O   UNL     1       7.198   7.328  16.677  0.00  0.00    +0.000 OA
ATOM     29  C   UNL     1       7.824   7.626  17.921  0.00  0.00    +0.000 C 
ENDBRANCH  10  28
TORSDOF 5
ENDMDL
MODEL 3
REMARK VINA RESULT:      -7.8      3.028      5.986
REMARK  Name = 
REMARK  7 active torsions:
REMARK  status: ('A' for Active; 'I' for Inactive)
REMARK    1  A    between atoms: C_1  and  O_2
REMARK    2  A    between atoms: O_2  and  C_3
REMARK    3  A    between atoms: C_8  and  C_9
REMARK    4  A    between atoms: C_12  and  N_13
REMARK    5  A    between atoms: N_13  and  C_14
REMARK    6  A    between atoms: C_24  and  O_25
REMARK    7  A    between atoms: O_25  and  C_26
REMARK                            x       y       z     vdW  Elec       q    Type
REMARK                         _______ _______ _______ _____ _____    ______ ____
ROOT
ATOM      1  C   UNL     1       1.159   7.711  20.590  0.00  0.00    +0.000 A 
ATOM      2  C   UNL     1       1.196   6.434  21.162  0.00  0.00    +0.000 A 
ATOM      3  C   UNL     1       1.992   5.413  20.667  0.00  0.00    +0.000 A 
ATOM      4  N   UNL     1       1.887   4.224  21.270  0.00  0.00    +0.000 NA
ATOM      5  C   UNL     1       2.589   3.189  20.765  0.00  0.00    +0.000 A 
ATOM      6  C   UNL     1       3.472   3.278  19.698  0.00  0.00    +0.000 A 
ATOM      7  C   UNL     1       3.661   4.551  19.111  0.00  0.00    +0.000 A 
ATOM      8  C   UNL     1       2.829   5.644  19.557  0.00  0.00    +0.000 A 
ATOM      9  C   UNL     1       2.756   6.942  18.978  0.00  0.00    +0.000 A 
ATOM     10  C   UNL     1       2.000   7.986  19.522  0.00  0.00    +0.000 A 
ENDROOT
BRANCH   6  11
ATOM     11  C   UNL     1       4.107   1.996  19.287  0.00  0.00    +0.000 C 
ATOM     12  N   UNL     1       5.120   1.485  20.041  0.00  0.00    +0.000 N 
ATOM     13  O   UNL     1       3.743   1.398  18.277  0.00  0.00    +0.000 OA
ATOM     14  H   UNL     1       5.291   1.823  20.981  0.00  0.00    +0.000 HD
ATOM     15  H   UNL     1       5.474   0.577  19.782  0.00  0.00    +0.000 HD
ENDBRANCH   6  11
BRANCH   1  17
ATOM     16  C   UNL     1       0.782   9.433  22.146  0.00  0.00    +0.000 C 
ATOM     17  O   UNL     1       0.302   8.685  21.030  0.00  0.00    +0.000 OA
ENDBRANCH   1  17
BRANCH   7  18
ATOM     18  N   UNL     1       4.594   4.688  18.027  0.00  0.00    +0.000 N 
ATOM     19  H   UNL     1       4.071   4.790  17.150  0.00  0.00    +0.000 HD
BRANCH  18  20
ATOM     20  C   UNL     1       5.762   5.494  17.982  0.00  0.00    +0.000 A 
ATOM     21  C   UNL     1       6.865   5.266  18.817  0.00  0.00    +0.000 A 
ATOM     22  C   UNL     1       7.890   6.214  18.895  0.00  0.00    +0.000 A 
ATOM     23  C   UNL     1       7.851   7.341  18.080  0.00  0.00    +0.000 A 
ATOM     24  F   UNL     1       8.805   8.273  18.200  0.00  0.00    +0.000 F 
ATOM     25  C   UNL     1       6.835   7.522  17.154  0.00  0.00    +0.000 A 
ATOM     26  C   UNL     1       5.806   6.590  17.104  0.00  0.00    +0.000 A 
ATOM     27  F   UNL     1       4.789   6.783  16.251  0.00  0.00    +0.000 F 
ENDBRANCH  18  20
ENDBRANCH   7  18
BRANCH  10  28
ATOM     28  O   UNL     1       2.142   9.178  18.863  0.00  0.00    +0.000 OA
ATOM     29  C   UNL     1       1.166   9.466  17.867  0.00  0.00    +0.000 C 
ENDBRANCH  10  28
TORSDOF 5
ENDMDL
MODEL 4
REMARK VINA RESULT:      -7.1      3.533      5.157
REMARK  Name = 
REMARK  7 active torsions:
REMARK  status: ('A' for Active; 'I' for Inactive)
REMARK    1  A    between atoms: C_1  and  O_2
REMARK    2  A    between atoms: O_2  and  C_3
REMARK    3  A    between atoms: C_8  and  C_9
REMARK    4  A    between atoms: C_12  and  N_13
REMARK    5  A    between atoms: N_13  and  C_14
REMARK    6  A    between atoms: C_24  and  O_25
REMARK    7  A    between atoms: O_25  and  C_26
REMARK                            x       y       z     vdW  Elec       q    Type
REMARK                         _______ _______ _______ _____ _____    ______ ____
ROOT
ATOM      1  C   UNL     1       7.068   4.662  12.805  0.00  0.00    +0.000 A 
ATOM      2  C   UNL     1       7.490   5.463  13.873  0.00  0.00    +0.000 A 
ATOM      3  C   UNL     1       7.037   5.281  15.171  0.00  0.00    +0.000 A 
ATOM      4  N   UNL     1       7.473   6.154  16.085  0.00  0.00    +0.000 NA
ATOM      5  C   UNL     1       6.992   6.055  17.342  0.00  0.00    +0.000 A 
ATOM      6  C   UNL     1       6.122   5.066  17.779  0.00  0.00    +0.000 A 
ATOM      7  C   UNL     1       5.727   4.083  16.842  0.00  0.00    +0.000 A 
ATOM      8  C   UNL     1       6.133   4.242  15.466  0.00  0.00    +0.000 A 
ATOM      9  C   UNL     1       5.700   3.458  14.360  0.00  0.00    +0.000 A 
ATOM     10  C   UNL     1       6.209   3.604  13.065  0.00  0.00    +0.000 A 
ENDROOT
BRANCH   6  11
ATOM     11  C   UNL     1       5.693   5.177  19.200  0.00  0.00    +0.000 C 
ATOM     12  N   UNL     1       4.552   5.860  19.498  0.00  0.00    +0.000 N 
ATOM     13  O   UNL     1       6.351   4.673  20.107  0.00  0.00    +0.000 OA
ATOM     14  H   UNL     1       3.879   6.088  18.776  0.00  0.00    +0.000 HD
ATOM     15  H   UNL     1       4.245   5.847  20.459  0.00  0.00    +0.000 HD
ENDBRANCH   6  11
BRANCH   1  17
ATOM     16  C   UNL     1       7.889   6.241  11.268  0.00  0.00    +0.000 C 
ATOM     17  O   UNL     1       7.450   4.906  11.512  0.00  0.00    +0.000 OA
ENDBRANCH   1  17
BRANCH   7  18
ATOM     18  N   UNL     1       4.854   3.024  17.269  0.00  0.00    +0.000 N 
ATOM     19  H   UNL     1       5.414   2.300  17.735  0.00  0.00    +0.000 HD
BRANCH  18  20
ATOM     20  C   UNL     1       3.595   3.141  17.914  0.00  0.00    +0.000 A 
ATOM     21  C   UNL     1       2.545   3.902  17.380  0.00  0.00    +0.000 A 
ATOM     22  C   UNL     1       1.412   4.171  18.154  0.00  0.00    +0.000 A 
ATOM     23  C   UNL     1       1.295   3.610  19.422  0.00  0.00    +0.000 A 
ATOM     24  F   UNL     1       0.235   3.917  20.181  0.00  0.00    +0.000 F 
ATOM     25  C   UNL     1       2.262   2.750  19.918  0.00  0.00    +0.000 A 
ATOM     26  C   UNL     1       3.397   2.513  19.155  0.00  0.00    +0.000 A 
ATOM     27  F   UNL     1       4.365   1.726  19.647  0.00  0.00    +0.000 F 
ENDBRANCH  18  20
ENDBRANCH   7  18
BRANCH  10  28
ATOM     28  O   UNL     1       5.725   2.688  12.170  0.00  0.00    +0.000 OA
ATOM     29  C   UNL     1       4.517   3.039  11.501  0.00  0.00    +0.000 C 
ENDBRANCH  10  28
TORSDOF 5
ENDMDL
MODEL 5
REMARK VINA RESULT:      -7.1      2.825      7.025
REMARK  Name = 
REMARK  7 active torsions:
REMARK  status: ('A' for Active; 'I' for Inactive)
REMARK    1  A    between atoms: C_1  and  O_2
REMARK    2  A    between atoms: O_2  and  C_3
REMARK    3  A    between atoms: C_8  and  C_9
REMARK    4  A    between atoms: C_12  and  N_13
REMARK    5  A    between atoms: N_13  and  C_14
REMARK    6  A    between atoms: C_24  and  O_25
REMARK    7  A    between atoms: O_25  and  C_26
REMARK                            x       y       z     vdW  Elec       q    Type
REMARK                         _______ _______ _______ _____ _____    ______ ____
ROOT
ATOM      1  C   UNL     1      -0.105  10.025  20.166  0.00  0.00    +0.000 A 
ATOM      2  C   UNL     1       0.608   9.973  18.962  0.00  0.00    +0.000 A 
ATOM      3  C   UNL     1       1.566   9.006  18.698  0.00  0.00    +0.000 A 
ATOM      4  N   UNL     1       2.215   9.108  17.534  0.00  0.00    +0.000 NA
ATOM      5  C   UNL     1       3.208   8.230  17.279  0.00  0.00    +0.000 A 
ATOM      6  C   UNL     1       3.565   7.179  18.110  0.00  0.00    +0.000 A 
ATOM      7  C   UNL     1       2.824   7.006  19.301  0.00  0.00    +0.000 A 
ATOM      8  C   UNL     1       1.841   8.005  19.651  0.00  0.00    +0.000 A 
ATOM      9  C   UNL     1       1.122   8.093  20.876  0.00  0.00    +0.000 A 
ATOM     10  C   UNL     1       0.111   9.031  21.110  0.00  0.00    +0.000 A 
ENDROOT
BRANCH   6  11
ATOM     11  C   UNL     1       4.718   6.360  17.644  0.00  0.00    +0.000 C 
ATOM     12  N   UNL     1       4.698   5.844  16.383  0.00  0.00    +0.000 N 
ATOM     13  O   UNL     1       5.679   6.134  18.375  0.00  0.00    +0.000 OA
ATOM     14  H   UNL     1       4.045   6.188  15.689  0.00  0.00    +0.000 HD
ATOM     15  H   UNL     1       5.528   5.363  16.069  0.00  0.00    +0.000 HD
ENDBRANCH   6  11
BRANCH   1  17
ATOM     16  C   UNL     1      -1.694  11.539  19.324  0.00  0.00    +0.000 C 
ATOM     17  O   UNL     1      -0.983  11.036  20.454  0.00  0.00    +0.000 OA
ENDBRANCH   1  17
BRANCH   7  18
ATOM     18  N   UNL     1       3.143   5.907  20.170  0.00  0.00    +0.000 N 
ATOM     19  H   UNL     1       3.005   6.201  21.144  0.00  0.00    +0.000 HD
BRANCH  18  20
ATOM     20  C   UNL     1       2.764   4.546  20.026  0.00  0.00    +0.000 A 
ATOM     21  C   UNL     1       3.665   3.555  19.611  0.00  0.00    +0.000 A 
ATOM     22  C   UNL     1       3.195   2.283  19.268  0.00  0.00    +0.000 A 
ATOM     23  C   UNL     1       1.845   1.982  19.420  0.00  0.00    +0.000 A 
ATOM     24  F   UNL     1       1.392   0.782  19.036  0.00  0.00    +0.000 F 
ATOM     25  C   UNL     1       0.959   2.907  19.951  0.00  0.00    +0.000 A 
ATOM     26  C   UNL     1       1.429   4.177  20.261  0.00  0.00    +0.000 A 
ATOM     27  F   UNL     1       0.570   5.098  20.723  0.00  0.00    +0.000 F 
ENDBRANCH  18  20
ENDBRANCH   7  18
BRANCH  10  28
ATOM     28  O   UNL     1      -0.517   8.883  22.318  0.00  0.00    +0.000 OA
ATOM     29  C   UNL     1       0.067   9.573  23.419  0.00  0.00    +0.000 C 
ENDBRANCH  10  28
TORSDOF 5
ENDMDL
MODEL 6
REMARK VINA RESULT:      -6.9      2.976      7.147
REMARK  Name = 
REMARK  7 active torsions:
REMARK  status: ('A' for Active; 'I' for Inactive)
REMARK    1  A    between atoms: C_1  and  O_2
REMARK    2  A    between atoms: O_2  and  C_3
REMARK    3  A    between atoms: C_8  and  C_9
REMARK    4  A    between atoms: C_12  and  N_13
REMARK    5  A    between atoms: N_13  and  C_14
REMARK    6  A    between atoms: C_24  and  O_25
REMARK    7  A    between atoms: O_25  and  C_26
REMARK                            x       y       z     vdW  Elec       q    Type
REMARK                         _______ _______ _______ _____ _____    ______ ____
ROOT
ATOM      1  C   UNL     1      -0.049   9.916  20.165  0.00  0.00    +0.000 A 
ATOM      2  C   UNL     1       0.690   9.841  18.978  0.00  0.00    +0.000 A 
ATOM      3  C   UNL     1       1.608   8.832  18.729  0.00  0.00    +0.000 A 
ATOM      4  N   UNL     1       2.289   8.912  17.582  0.00  0.00    +0.000 NA
ATOM      5  C   UNL     1       3.245   7.990  17.342  0.00  0.00    +0.000 A 
ATOM      6  C   UNL     1       3.532   6.916  18.172  0.00  0.00    +0.000 A 
ATOM      7  C   UNL     1       2.754   6.769  19.343  0.00  0.00    +0.000 A 
ATOM      8  C   UNL     1       1.811   7.811  19.678  0.00  0.00    +0.000 A 
ATOM      9  C   UNL     1       1.067   7.923  20.886  0.00  0.00    +0.000 A 
ATOM     10  C   UNL     1       0.097   8.906  21.104  0.00  0.00    +0.000 A 
ENDROOT
BRANCH   6  11
ATOM     11  C   UNL     1       4.656   6.047  17.725  0.00  0.00    +0.000 C 
ATOM     12  N   UNL     1       4.490   5.259  16.626  0.00  0.00    +0.000 N 
ATOM     13  O   UNL     1       5.723   6.021  18.333  0.00  0.00    +0.000 OA
ATOM     14  H   UNL     1       3.724   5.419  15.982  0.00  0.00    +0.000 HD
ATOM     15  H   UNL     1       5.295   4.745  16.302  0.00  0.00    +0.000 HD
ENDBRANCH   6  11
BRANCH   1  17
ATOM     16  C   UNL     1      -0.335  12.250  20.153  0.00  0.00    +0.000 C 
ATOM     17  O   UNL     1      -0.885  10.966  20.441  0.00  0.00    +0.000 OA
ENDBRANCH   1  17
BRANCH   7  18
ATOM     18  N   UNL     1       3.000   5.649  20.208  0.00  0.00    +0.000 N 
ATOM     19  H   UNL     1       2.384   5.719  21.027  0.00  0.00    +0.000 HD
BRANCH  18  20
ATOM     20  C   UNL     1       3.151   4.284  19.843  0.00  0.00    +0.000 A 
ATOM     21  C   UNL     1       4.244   3.512  20.262  0.00  0.00    +0.000 A 
ATOM     22  C   UNL     1       4.466   2.252  19.697  0.00  0.00    +0.000 A 
ATOM     23  C   UNL     1       3.553   1.735  18.782  0.00  0.00    +0.000 A 
ATOM     24  F   UNL     1       3.800   0.554  18.202  0.00  0.00    +0.000 F 
ATOM     25  C   UNL     1       2.398   2.428  18.453  0.00  0.00    +0.000 A 
ATOM     26  C   UNL     1       2.201   3.691  18.996  0.00  0.00    +0.000 A 
ATOM     27  F   UNL     1       1.115   4.393  18.641  0.00  0.00    +0.000 F 
ENDBRANCH  18  20
ENDBRANCH   7  18
BRANCH  10  28
ATOM     28  O   UNL     1      -0.567   8.778  22.295  0.00  0.00    +0.000 OA
ATOM     29  C   UNL     1      -0.160   9.656  23.340  0.00  0.00    +0.000 C 
ENDBRANCH  10  28
TORSDOF 5
ENDMDL
MODEL 7
REMARK VINA RESULT:      -6.7      1.242      1.301
REMARK  Name = 
REMARK  7 active torsions:
REMARK  status: ('A' for Active; 'I' for Inactive)
REMARK    1  A    between atoms: C_1  and  O_2
REMARK    2  A    between atoms: O_2  and  C_3
REMARK    3  A    between atoms: C_8  and  C_9
REMARK    4  A    between atoms: C_12  and  N_13
REMARK    5  A    between atoms: N_13  and  C_14
REMARK    6  A    between atoms: C_24  and  O_25
REMARK    7  A    between atoms: O_25  and  C_26
REMARK                            x       y       z     vdW  Elec       q    Type
REMARK                         _______ _______ _______ _____ _____    ______ ____
ROOT
ATOM      1  C   UNL     1       5.621   3.887  15.820  0.00  0.00    +0.000 A 
ATOM      2  C   UNL     1       4.857   2.884  16.428  0.00  0.00    +0.000 A 
ATOM      3  C   UNL     1       4.110   3.101  17.577  0.00  0.00    +0.000 A 
ATOM      4  N   UNL     1       3.476   2.042  18.088  0.00  0.00    +0.000 NA
ATOM      5  C   UNL     1       2.803   2.199  19.247  0.00  0.00    +0.000 A 
ATOM      6  C   UNL     1       2.663   3.404  19.921  0.00  0.00    +0.000 A 
ATOM      7  C   UNL     1       3.253   4.550  19.340  0.00  0.00    +0.000 A 
ATOM      8  C   UNL     1       4.077   4.380  18.167  0.00  0.00    +0.000 A 
ATOM      9  C   UNL     1       4.881   5.377  17.545  0.00  0.00    +0.000 A 
ATOM     10  C   UNL     1       5.580   5.168  16.351  0.00  0.00    +0.000 A 
ENDROOT
BRANCH   6  11
ATOM     11  C   UNL     1       1.910   3.334  21.203  0.00  0.00    +0.000 C 
ATOM     12  N   UNL     1       0.673   2.763  21.217  0.00  0.00    +0.000 N 
ATOM     13  O   UNL     1       2.378   3.788  22.245  0.00  0.00    +0.000 OA
ATOM     14  H   UNL     1       0.356   2.188  20.445  0.00  0.00    +0.000 HD
ATOM     15  H   UNL     1       0.224   2.658  22.114  0.00  0.00    +0.000 HD
ENDBRANCH   6  11
BRANCH   1  17
ATOM     16  C   UNL     1       5.786   3.807  13.476  0.00  0.00    +0.000 C 
ATOM     17  O   UNL     1       6.426   3.641  14.740  0.00  0.00    +0.000 OA
ENDBRANCH   1  17
BRANCH   7  18
ATOM     18  N   UNL     1       3.098   5.821  19.992  0.00  0.00    +0.000 N 
ATOM     19  H   UNL     1       4.005   6.111  20.375  0.00  0.00    +0.000 HD
BRANCH  18  20
ATOM     20  C   UNL     1       2.394   6.961  19.520  0.00  0.00    +0.000 A 
ATOM     21  C   UNL     1       2.455   7.380  18.183  0.00  0.00    +0.000 A 
ATOM     22  C   UNL     1       1.935   8.626  17.817  0.00  0.00    +0.000 A 
ATOM     23  C   UNL     1       1.283   9.407  18.767  0.00  0.00    +0.000 A 
ATOM     24  F   UNL     1       0.837  10.623  18.425  0.00  0.00    +0.000 F 
ATOM     25  C   UNL     1       1.098   8.954  20.064  0.00  0.00    +0.000 A 
ATOM     26  C   UNL     1       1.645   7.729  20.426  0.00  0.00    +0.000 A 
ATOM     27  F   UNL     1       1.520   7.306  21.692  0.00  0.00    +0.000 F 
ENDBRANCH  18  20
ENDBRANCH   7  18
BRANCH  10  28
ATOM     28  O   UNL     1       6.214   6.285  15.876  0.00  0.00    +0.000 OA
ATOM     29  C   UNL     1       5.376   7.301  15.332  0.00  0.00    +0.000 C 
ENDBRANCH  10  28
TORSDOF 5
ENDMDL
MODEL 8
REMARK VINA RESULT:      -6.6      3.173      7.292
REMARK  Name = 
REMARK  7 active torsions:
REMARK  status: ('A' for Active; 'I' for Inactive)
REMARK    1  A    between atoms: C_1  and  O_2
REMARK    2  A    between atoms: O_2  and  C_3
REMARK    3  A    between atoms: C_8  and  C_9
REMARK    4  A    between atoms: C_12  and  N_13
REMARK    5  A    between atoms: N_13  and  C_14
REMARK    6  A    between atoms: C_24  and  O_25
REMARK    7  A    between atoms: O_25  and  C_26
REMARK                            x       y       z     vdW  Elec       q    Type
REMARK                         _______ _______ _______ _____ _____    ______ ____
ROOT
ATOM      1  C   UNL     1      -0.218  10.153  20.403  0.00  0.00    +0.000 A 
ATOM      2  C   UNL     1       0.442  10.199  19.170  0.00  0.00    +0.000 A 
ATOM      3  C   UNL     1       1.383   9.255  18.787  0.00  0.00    +0.000 A 
ATOM      4  N   UNL     1       1.983   9.451  17.609  0.00  0.00    +0.000 NA
ATOM      5  C   UNL     1       2.959   8.595  17.240  0.00  0.00    +0.000 A 
ATOM      6  C   UNL     1       3.346   7.478  17.967  0.00  0.00    +0.000 A 
ATOM      7  C   UNL     1       2.655   7.210  19.171  0.00  0.00    +0.000 A 
ATOM      8  C   UNL     1       1.693   8.179  19.642  0.00  0.00    +0.000 A 
ATOM      9  C   UNL     1       1.027   8.168  20.900  0.00  0.00    +0.000 A 
ATOM     10  C   UNL     1       0.032   9.086  21.253  0.00  0.00    +0.000 A 
ENDROOT
BRANCH   6  11
ATOM     11  C   UNL     1       4.473   6.698  17.386  0.00  0.00    +0.000 C 
ATOM     12  N   UNL     1       5.733   7.217  17.432  0.00  0.00    +0.000 N 
ATOM     13  O   UNL     1       4.288   5.603  16.860  0.00  0.00    +0.000 OA
ATOM     14  H   UNL     1       5.954   7.993  18.044  0.00  0.00    +0.000 HD
ATOM     15  H   UNL     1       6.485   6.630  17.104  0.00  0.00    +0.000 HD
ENDBRANCH   6  11
BRANCH   1  17
ATOM     16  C   UNL     1      -0.477  12.425  20.954  0.00  0.00    +0.000 C 
ATOM     17  O   UNL     1      -1.078  11.139  20.809  0.00  0.00    +0.000 OA
ENDBRANCH   1  17
BRANCH   7  18
ATOM     18  N   UNL     1       3.005   6.043  19.932  0.00  0.00    +0.000 N 
ATOM     19  H   UNL     1       2.927   6.262  20.932  0.00  0.00    +0.000 HD
BRANCH  18  20
ATOM     20  C   UNL     1       2.595   4.702  19.706  0.00  0.00    +0.000 A 
ATOM     21  C   UNL     1       1.245   4.324  19.676  0.00  0.00    +0.000 A 
ATOM     22  C   UNL     1       0.898   2.969  19.678  0.00  0.00    +0.000 A 
ATOM     23  C   UNL     1       1.897   2.002  19.624  0.00  0.00    +0.000 A 
ATOM     24  F   UNL     1       1.562   0.706  19.683  0.00  0.00    +0.000 F 
ATOM     25  C   UNL     1       3.234   2.356  19.522  0.00  0.00    +0.000 A 
ATOM     26  C   UNL     1       3.570   3.703  19.551  0.00  0.00    +0.000 A 
ATOM     27  F   UNL     1       4.864   4.056  19.509  0.00  0.00    +0.000 F 
ENDBRANCH  18  20
ENDBRANCH   7  18
BRANCH  10  28
ATOM     28  O   UNL     1      -0.545   8.840  22.470  0.00  0.00    +0.000 OA
ATOM     29  C   UNL     1      -0.006   9.557  23.577  0.00  0.00    +0.000 C 
ENDBRANCH  10  28
TORSDOF 5
ENDMDL
MODEL 9
REMARK VINA RESULT:      -6.6      2.861      6.123
REMARK  Name = 
REMARK  7 active torsions:
REMARK  status: ('A' for Active; 'I' for Inactive)
REMARK    1  A    between atoms: C_1  and  O_2
REMARK    2  A    between atoms: O_2  and  C_3
REMARK    3  A    between atoms: C_8  and  C_9
REMARK    4  A    between atoms: C_12  and  N_13
REMARK    5  A    between atoms: N_13  and  C_14
REMARK    6  A    between atoms: C_24  and  O_25
REMARK    7  A    between atoms: O_25  and  C_26
REMARK                            x       y       z     vdW  Elec       q    Type
REMARK                         _______ _______ _______ _____ _____    ______ ____
ROOT
ATOM      1  C   UNL     1       2.226   4.825  19.484  0.00  0.00    +0.000 A 
ATOM      2  C   UNL     1       2.821   3.814  18.720  0.00  0.00    +0.000 A 
ATOM      3  C   UNL     1       3.816   4.065  17.787  0.00  0.00    +0.000 A 
ATOM      4  N   UNL     1       4.255   3.017  17.083  0.00  0.00    +0.000 NA
ATOM      5  C   UNL     1       5.167   3.238  16.113  0.00  0.00    +0.000 A 
ATOM      6  C   UNL     1       5.740   4.470  15.833  0.00  0.00    +0.000 A 
ATOM      7  C   UNL     1       5.351   5.568  16.635  0.00  0.00    +0.000 A 
ATOM      8  C   UNL     1       4.289   5.378  17.594  0.00  0.00    +0.000 A 
ATOM      9  C   UNL     1       3.652   6.391  18.365  0.00  0.00    +0.000 A 
ATOM     10  C   UNL     1       2.695   6.123  19.349  0.00  0.00    +0.000 A 
ENDROOT
BRANCH   6  11
ATOM     11  C   UNL     1       6.696   4.485  14.692  0.00  0.00    +0.000 C 
ATOM     12  N   UNL     1       6.480   3.654  13.634  0.00  0.00    +0.000 N 
ATOM     13  O   UNL     1       7.678   5.224  14.692  0.00  0.00    +0.000 OA
ATOM     14  H   UNL     1       5.581   3.207  13.498  0.00  0.00    +0.000 HD
ATOM     15  H   UNL     1       7.099   3.746  12.843  0.00  0.00    +0.000 HD
ENDBRANCH   6  11
BRANCH   1  17
ATOM     16  C   UNL     1       1.224   3.302  20.970  0.00  0.00    +0.000 C 
ATOM     17  O   UNL     1       1.182   4.580  20.336  0.00  0.00    +0.000 OA
ENDBRANCH   1  17
BRANCH   7  18
ATOM     18  N   UNL     1       5.950   6.853  16.397  0.00  0.00    +0.000 N 
ATOM     19  H   UNL     1       5.246   7.477  15.985  0.00  0.00    +0.000 HD
BRANCH  18  20
ATOM     20  C   UNL     1       6.792   7.594  17.267  0.00  0.00    +0.000 A 
ATOM     21  C   UNL     1       6.853   8.995  17.239  0.00  0.00    +0.000 A 
ATOM     22  C   UNL     1       7.854   9.665  17.950  0.00  0.00    +0.000 A 
ATOM     23  C   UNL     1       8.735   8.942  18.748  0.00  0.00    +0.000 A 
ATOM     24  F   UNL     1       9.727   9.582  19.381  0.00  0.00    +0.000 F 
ATOM     25  C   UNL     1       8.611   7.568  18.891  0.00  0.00    +0.000 A 
ATOM     26  C   UNL     1       7.633   6.908  18.159  0.00  0.00    +0.000 A 
ATOM     27  F   UNL     1       7.540   5.573  18.246  0.00  0.00    +0.000 F 
ENDBRANCH  18  20
ENDBRANCH   7  18
BRANCH  10  28
ATOM     28  O   UNL     1       2.279   7.232  20.036  0.00  0.00    +0.000 OA
ATOM     29  C   UNL     1       1.809   8.321  19.248  0.00  0.00    +0.000 C 
ENDBRANCH  10  28
TORSDOF 5
ENDMDL
