MODEL 1
REMARK VINA RESULT:      -8.7      0.000      0.000
REMARK  Name = 
REMARK  6 active torsions:
REMARK  status: ('A' for Active; 'I' for Inactive)
REMARK    1  A    between atoms: C_1  and  N_2
REMARK    2  A    between atoms: C_5  and  C_6
REMARK    3  A    between atoms: C_13  and  C_14
REMARK    4  A    between atoms: C_19  and  O_20
REMARK    5  A    between atoms: O_20  and  C_21
REMARK    6  A    between atoms: C_21  and  C_22
REMARK                            x       y       z     vdW  Elec       q    Type
REMARK                         _______ _______ _______ _____ _____    ______ ____
ROOT
ATOM      1  C   UNL     1       4.089   4.060  17.986  0.00  0.00    +0.000 A 
ATOM      2  C   UNL     1       4.079   2.753  18.521  0.00  0.00    +0.000 A 
ATOM      3  N   UNL     1       3.368   2.651  19.650  0.00  0.00    +0.000 NA
ATOM      4  N   UNL     1       2.907   3.916  19.853  0.00  0.00    +0.000 N 
ATOM      5  C   UNL     1       2.096   4.283  20.945  0.00  0.00    +0.000 A 
ATOM      6  O   UNL     1       1.744   3.483  21.800  0.00  0.00    +0.000 OA
ATOM      7  C   UNL     1       1.700   5.721  20.957  0.00  0.00    +0.000 A 
ATOM      8  C   UNL     1       2.131   6.528  19.970  0.00  0.00    +0.000 A 
ATOM      9  N   UNL     1       2.931   6.082  18.940  0.00  0.00    +0.000 N 
ATOM     10  C   UNL     1       3.323   4.787  18.864  0.00  0.00    +0.000 A 
ATOM     11  H   UNL     1       3.238   6.755  18.233  0.00  0.00    +0.000 HD
ENDROOT
BRANCH   8  12
ATOM     12  C   UNL     1       1.738   7.942  19.956  0.00  0.00    +0.000 A 
ATOM     13  C   UNL     1       1.731   8.660  18.755  0.00  0.00    +0.000 A 
ATOM     14  C   UNL     1       1.305   9.988  18.738  0.00  0.00    +0.000 A 
ATOM     15  C   UNL     1       0.903  10.608  19.924  0.00  0.00    +0.000 A 
ATOM     16 CL   UNL     1       0.362  12.246  19.842  0.00  0.00    +0.000 Cl
ATOM     17  C   UNL     1       0.949   9.913  21.142  0.00  0.00    +0.000 A 
ATOM     18  C   UNL     1       1.347   8.572  21.148  0.00  0.00    +0.000 A 
BRANCH  17  19
ATOM     19  O   UNL     1       0.548  10.585  22.266  0.00  0.00    +0.000 OA
BRANCH  19  20
ATOM     20  C   UNL     1      -0.761  10.278  22.765  0.00  0.00    +0.000 C 
BRANCH  20  21
ATOM     21  C   UNL     1      -1.619  11.536  22.882  0.00  0.00    +0.000 C 
ATOM     22  F   UNL     1      -2.656  11.396  23.734  0.00  0.00    +0.000 F 
ATOM     23  F   UNL     1      -0.880  12.585  23.312  0.00  0.00    +0.000 F 
ATOM     24  F   UNL     1      -2.131  11.878  21.675  0.00  0.00    +0.000 F 
ENDBRANCH  20  21
ENDBRANCH  19  20
ENDBRANCH  17  19
ENDBRANCH   8  12
BRANCH   1  29
ATOM     25  C   UNL     1       6.304   3.904  13.692  0.00  0.00    +0.000 C 
ATOM     26  N   UNL     1       5.750   4.467  14.900  0.00  0.00    +0.000 N 
ATOM     27  C   UNL     1       5.672   5.790  15.219  0.00  0.00    +0.000 A 
ATOM     28  C   UNL     1       5.029   5.847  16.434  0.00  0.00    +0.000 A 
ATOM     29  C   UNL     1       4.768   4.501  16.773  0.00  0.00    +0.000 A 
ATOM     30  N   UNL     1       5.219   3.654  15.835  0.00  0.00    +0.000 NA
ENDBRANCH   1  29
TORSDOF 5
ENDMDL
MODEL 2
REMARK VINA RESULT:      -8.7      5.150      8.170
REMARK  Name = 
REMARK  6 active torsions:
REMARK  status: ('A' for Active; 'I' for Inactive)
REMARK    1  A    between atoms: C_1  and  N_2
REMARK    2  A    between atoms: C_5  and  C_6
REMARK    3  A    between atoms: C_13  and  C_14
REMARK    4  A    between atoms: C_19  and  O_20
REMARK    5  A    between atoms: O_20  and  C_21
REMARK    6  A    between atoms: C_21  and  C_22
REMARK                            x       y       z     vdW  Elec       q    Type
REMARK                         _______ _______ _______ _____ _____    ______ ____
ROOT
ATOM      1  C   UNL     1      -2.304  11.431  18.885  0.00  0.00    +0.000 A 
ATOM      2  C   UNL     1      -2.744  12.298  19.909  0.00  0.00    +0.000 A 
ATOM      3  N   UNL     1      -1.972  12.258  21.002  0.00  0.00    +0.000 NA
ATOM      4  N   UNL     1      -1.013  11.346  20.682  0.00  0.00    +0.000 N 
ATOM      5  C   UNL     1       0.033  10.979  21.551  0.00  0.00    +0.000 A 
ATOM      6  O   UNL     1       0.157  11.459  22.669  0.00  0.00    +0.000 OA
ATOM      7  C   UNL     1       0.974   9.971  20.984  0.00  0.00    +0.000 A 
ATOM      8  C   UNL     1       0.763   9.503  19.741  0.00  0.00    +0.000 A 
ATOM      9  N   UNL     1      -0.297   9.915  18.961  0.00  0.00    +0.000 N 
ATOM     10  C   UNL     1      -1.186  10.832  19.411  0.00  0.00    +0.000 A 
ATOM     11  H   UNL     1      -0.408   9.502  18.031  0.00  0.00    +0.000 HD
ENDROOT
BRANCH   8  12
ATOM     12  C   UNL     1       1.687   8.522  19.161  0.00  0.00    +0.000 A 
ATOM     13  C   UNL     1       2.243   8.739  17.895  0.00  0.00    +0.000 A 
ATOM     14  C   UNL     1       3.163   7.832  17.371  0.00  0.00    +0.000 A 
ATOM     15  C   UNL     1       3.517   6.695  18.102  0.00  0.00    +0.000 A 
ATOM     16 CL   UNL     1       4.680   5.616  17.417  0.00  0.00    +0.000 Cl
ATOM     17  C   UNL     1       2.933   6.441  19.352  0.00  0.00    +0.000 A 
ATOM     18  C   UNL     1       2.034   7.371  19.887  0.00  0.00    +0.000 A 
BRANCH  17  19
ATOM     19  O   UNL     1       3.320   5.304  20.010  0.00  0.00    +0.000 OA
BRANCH  19  20
ATOM     20  C   UNL     1       2.651   4.090  19.641  0.00  0.00    +0.000 C 
BRANCH  20  21
ATOM     21  C   UNL     1       1.612   3.690  20.687  0.00  0.00    +0.000 C 
ATOM     22  F   UNL     1       0.437   4.338  20.546  0.00  0.00    +0.000 F 
ATOM     23  F   UNL     1       1.354   2.362  20.625  0.00  0.00    +0.000 F 
ATOM     24  F   UNL     1       2.069   3.948  21.936  0.00  0.00    +0.000 F 
ENDBRANCH  20  21
ENDBRANCH  19  20
ENDBRANCH  17  19
ENDBRANCH   8  12
BRANCH   1  29
ATOM     25  C   UNL     1      -2.911  10.073  14.286  0.00  0.00    +0.000 C 
ATOM     26  N   UNL     1      -3.217  10.671  15.563  0.00  0.00    +0.000 N 
ATOM     27  C   UNL     1      -4.394  11.257  15.926  0.00  0.00    +0.000 A 
ATOM     28  C   UNL     1      -4.237  11.634  17.240  0.00  0.00    +0.000 A 
ATOM     29  C   UNL     1      -2.923  11.241  17.578  0.00  0.00    +0.000 A 
ATOM     30  N   UNL     1      -2.295  10.658  16.546  0.00  0.00    +0.000 NA
ENDBRANCH   1  29
TORSDOF 5
ENDMDL
MODEL 3
REMARK VINA RESULT:      -8.5      1.424      1.779
REMARK  Name = 
REMARK  6 active torsions:
REMARK  status: ('A' for Active; 'I' for Inactive)
REMARK    1  A    between atoms: C_1  and  N_2
REMARK    2  A    between atoms: C_5  and  C_6
REMARK    3  A    between atoms: C_13  and  C_14
REMARK    4  A    between atoms: C_19  and  O_20
REMARK    5  A    between atoms: O_20  and  C_21
REMARK    6  A    between atoms: C_21  and  C_22
REMARK                            x       y       z     vdW  Elec       q    Type
REMARK                         _______ _______ _______ _____ _____    ______ ____
ROOT
ATOM      1  C   UNL     1       4.681   4.450  18.894  0.00  0.00    +0.000 A 
ATOM      2  C   UNL     1       4.502   3.078  19.179  0.00  0.00    +0.000 A 
ATOM      3  N   UNL     1       3.399   2.828  19.894  0.00  0.00    +0.000 NA
ATOM      4  N   UNL     1       2.852   4.061  20.079  0.00  0.00    +0.000 N 
ATOM      5  C   UNL     1       1.657   4.284  20.791  0.00  0.00    +0.000 A 
ATOM      6  O   UNL     1       1.017   3.375  21.301  0.00  0.00    +0.000 OA
ATOM      7  C   UNL     1       1.240   5.714  20.856  0.00  0.00    +0.000 A 
ATOM      8  C   UNL     1       2.005   6.647  20.259  0.00  0.00    +0.000 A 
ATOM      9  N   UNL     1       3.168   6.338  19.588  0.00  0.00    +0.000 N 
ATOM     10  C   UNL     1       3.602   5.059  19.485  0.00  0.00    +0.000 A 
ATOM     11  H   UNL     1       3.711   7.100  19.174  0.00  0.00    +0.000 HD
ENDROOT
BRANCH   8  12
ATOM     12  C   UNL     1       1.603   8.058  20.300  0.00  0.00    +0.000 A 
ATOM     13  C   UNL     1       1.604   8.825  19.129  0.00  0.00    +0.000 A 
ATOM     14  C   UNL     1       1.169  10.149  19.161  0.00  0.00    +0.000 A 
ATOM     15  C   UNL     1       0.749  10.717  20.366  0.00  0.00    +0.000 A 
ATOM     16 CL   UNL     1       0.197  12.355  20.346  0.00  0.00    +0.000 Cl
ATOM     17  C   UNL     1       0.787   9.974  21.556  0.00  0.00    +0.000 A 
ATOM     18  C   UNL     1       1.194   8.636  21.512  0.00  0.00    +0.000 A 
BRANCH  17  19
ATOM     19  O   UNL     1       0.368  10.597  22.702  0.00  0.00    +0.000 OA
BRANCH  19  20
ATOM     20  C   UNL     1      -0.980  10.340  23.116  0.00  0.00    +0.000 C 
BRANCH  20  21
ATOM     21  C   UNL     1      -1.824  11.613  23.078  0.00  0.00    +0.000 C 
ATOM     22  F   UNL     1      -1.144  12.714  23.458  0.00  0.00    +0.000 F 
ATOM     23  F   UNL     1      -2.298  11.839  21.830  0.00  0.00    +0.000 F 
ATOM     24  F   UNL     1      -2.898  11.498  23.896  0.00  0.00    +0.000 F 
ENDBRANCH  20  21
ENDBRANCH  19  20
ENDBRANCH  17  19
ENDBRANCH   8  12
BRANCH   1  29
ATOM     25  C   UNL     1       7.888   7.710  17.326  0.00  0.00    +0.000 C 
ATOM     26  N   UNL     1       7.186   6.453  17.423  0.00  0.00    +0.000 N 
ATOM     27  C   UNL     1       7.475   5.305  16.745  0.00  0.00    +0.000 A 
ATOM     28  C   UNL     1       6.577   4.366  17.196  0.00  0.00    +0.000 A 
ATOM     29  C   UNL     1       5.777   5.047  18.140  0.00  0.00    +0.000 A 
ATOM     30  N   UNL     1       6.146   6.330  18.272  0.00  0.00    +0.000 NA
ENDBRANCH   1  29
TORSDOF 5
ENDMDL
MODEL 4
REMARK VINA RESULT:      -8.4      0.845      1.126
REMARK  Name = 
REMARK  6 active torsions:
REMARK  status: ('A' for Active; 'I' for Inactive)
REMARK    1  A    between atoms: C_1  and  N_2
REMARK    2  A    between atoms: C_5  and  C_6
REMARK    3  A    between atoms: C_13  and  C_14
REMARK    4  A    between atoms: C_19  and  O_20
REMARK    5  A    between atoms: O_20  and  C_21
REMARK    6  A    between atoms: C_21  and  C_22
REMARK                            x       y       z     vdW  Elec       q    Type
REMARK                         _______ _______ _______ _____ _____    ______ ____
ROOT
ATOM      1  C   UNL     1       4.613   3.727  18.400  0.00  0.00    +0.000 A 
ATOM      2  C   UNL     1       4.512   2.488  19.072  0.00  0.00    +0.000 A 
ATOM      3  N   UNL     1       3.620   2.501  20.070  0.00  0.00    +0.000 NA
ATOM      4  N   UNL     1       3.134   3.772  20.047  0.00  0.00    +0.000 N 
ATOM      5  C   UNL     1       2.152   4.246  20.939  0.00  0.00    +0.000 A 
ATOM      6  O   UNL     1       1.659   3.540  21.808  0.00  0.00    +0.000 OA
ATOM      7  C   UNL     1       1.761   5.668  20.721  0.00  0.00    +0.000 A 
ATOM      8  C   UNL     1       2.353   6.367  19.735  0.00  0.00    +0.000 A 
ATOM      9  N   UNL     1       3.315   5.822  18.911  0.00  0.00    +0.000 N 
ATOM     10  C   UNL     1       3.712   4.534  19.050  0.00  0.00    +0.000 A 
ATOM     11  H   UNL     1       3.738   6.417  18.194  0.00  0.00    +0.000 HD
ENDROOT
BRANCH   8  12
ATOM     12  C   UNL     1       1.971   7.763  19.495  0.00  0.00    +0.000 A 
ATOM     13  C   UNL     1       2.116   8.325  18.222  0.00  0.00    +0.000 A 
ATOM     14  C   UNL     1       1.701   9.635  17.985  0.00  0.00    +0.000 A 
ATOM     15  C   UNL     1       1.156  10.394  19.024  0.00  0.00    +0.000 A 
ATOM     16 CL   UNL     1       0.635  12.003  18.671  0.00  0.00    +0.000 Cl
ATOM     17  C   UNL     1       1.047   9.858  20.317  0.00  0.00    +0.000 A 
ATOM     18  C   UNL     1       1.436   8.533  20.541  0.00  0.00    +0.000 A 
BRANCH  17  19
ATOM     19  O   UNL     1       0.512  10.660  21.289  0.00  0.00    +0.000 OA
BRANCH  19  20
ATOM     20  C   UNL     1      -0.894  10.521  21.534  0.00  0.00    +0.000 C 
BRANCH  20  21
ATOM     21  C   UNL     1      -1.421  11.658  22.407  0.00  0.00    +0.000 C 
ATOM     22  F   UNL     1      -0.474  12.564  22.730  0.00  0.00    +0.000 F 
ATOM     23  F   UNL     1      -2.422  12.321  21.782  0.00  0.00    +0.000 F 
ATOM     24  F   UNL     1      -1.928  11.173  23.566  0.00  0.00    +0.000 F 
ENDBRANCH  20  21
ENDBRANCH  19  20
ENDBRANCH  17  19
ENDBRANCH   8  12
BRANCH   1  29
ATOM     25  C   UNL     1       6.274   4.051  13.872  0.00  0.00    +0.000 C 
ATOM     26  N   UNL     1       6.249   4.189  15.308  0.00  0.00    +0.000 N 
ATOM     27  C   UNL     1       7.187   4.805  16.083  0.00  0.00    +0.000 A 
ATOM     28  C   UNL     1       6.716   4.732  17.374  0.00  0.00    +0.000 A 
ATOM     29  C   UNL     1       5.488   4.040  17.276  0.00  0.00    +0.000 A 
ATOM     30  N   UNL     1       5.207   3.700  16.010  0.00  0.00    +0.000 NA
ENDBRANCH   1  29
TORSDOF 5
ENDMDL
MODEL 5
REMARK VINA RESULT:      -8.4      1.197      1.330
REMARK  Name = 
REMARK  6 active torsions:
REMARK  status: ('A' for Active; 'I' for Inactive)
REMARK    1  A    between atoms: C_1  and  N_2
REMARK    2  A    between atoms: C_5  and  C_6
REMARK    3  A    between atoms: C_13  and  C_14
REMARK    4  A    between atoms: C_19  and  O_20
REMARK    5  A    between atoms: O_20  and  C_21
REMARK    6  A    between atoms: C_21  and  C_22
REMARK                            x       y       z     vdW  Elec       q    Type
REMARK                         _______ _______ _______ _____ _____    ______ ____
ROOT
ATOM      1  C   UNL     1       4.399   4.057  17.631  0.00  0.00    +0.000 A 
ATOM      2  C   UNL     1       4.422   2.815  18.304  0.00  0.00    +0.000 A 
ATOM      3  N   UNL     1       3.709   2.815  19.436  0.00  0.00    +0.000 NA
ATOM      4  N   UNL     1       3.213   4.081  19.502  0.00  0.00    +0.000 N 
ATOM      5  C   UNL     1       2.389   4.542  20.547  0.00  0.00    +0.000 A 
ATOM      6  O   UNL     1       2.054   3.828  21.482  0.00  0.00    +0.000 OA
ATOM      7  C   UNL     1       1.954   5.961  20.404  0.00  0.00    +0.000 A 
ATOM      8  C   UNL     1       2.367   6.669  19.336  0.00  0.00    +0.000 A 
ATOM      9  N   UNL     1       3.184   6.137  18.361  0.00  0.00    +0.000 N 
ATOM     10  C   UNL     1       3.610   4.853  18.426  0.00  0.00    +0.000 A 
ATOM     11  H   UNL     1       3.475   6.738  17.587  0.00  0.00    +0.000 HD
ENDROOT
BRANCH   8  12
ATOM     12  C   UNL     1       1.937   8.062  19.171  0.00  0.00    +0.000 A 
ATOM     13  C   UNL     1       2.385   8.812  18.078  0.00  0.00    +0.000 A 
ATOM     14  C   UNL     1       1.931  10.118  17.895  0.00  0.00    +0.000 A 
ATOM     15  C   UNL     1       1.043  10.685  18.813  0.00  0.00    +0.000 A 
ATOM     16 CL   UNL     1       0.493  12.297  18.525  0.00  0.00    +0.000 Cl
ATOM     17  C   UNL     1       0.622   9.959  19.938  0.00  0.00    +0.000 A 
ATOM     18  C   UNL     1       1.056   8.639  20.100  0.00  0.00    +0.000 A 
BRANCH  17  19
ATOM     19  O   UNL     1      -0.242  10.579  20.801  0.00  0.00    +0.000 OA
BRANCH  19  20
ATOM     20  C   UNL     1       0.210  10.747  22.152  0.00  0.00    +0.000 C 
BRANCH  20  21
ATOM     21  C   UNL     1      -0.551   9.832  23.109  0.00  0.00    +0.000 C 
ATOM     22  F   UNL     1       0.192   9.424  24.158  0.00  0.00    +0.000 F 
ATOM     23  F   UNL     1      -1.645  10.458  23.605  0.00  0.00    +0.000 F 
ATOM     24  F   UNL     1      -0.985   8.723  22.465  0.00  0.00    +0.000 F 
ENDBRANCH  20  21
ENDBRANCH  19  20
ENDBRANCH  17  19
ENDBRANCH   8  12
BRANCH   1  29
ATOM     25  C   UNL     1       6.217   3.579  13.178  0.00  0.00    +0.000 C 
ATOM     26  N   UNL     1       5.888   4.205  14.436  0.00  0.00    +0.000 N 
ATOM     27  C   UNL     1       6.125   5.501  14.787  0.00  0.00    +0.000 A 
ATOM     28  C   UNL     1       5.597   5.651  16.048  0.00  0.00    +0.000 A 
ATOM     29  C   UNL     1       5.071   4.383  16.379  0.00  0.00    +0.000 A 
ATOM     30  N   UNL     1       5.257   3.494  15.392  0.00  0.00    +0.000 NA
ENDBRANCH   1  29
TORSDOF 5
ENDMDL
MODEL 6
REMARK VINA RESULT:      -8.2      5.091      8.133
REMARK  Name = 
REMARK  6 active torsions:
REMARK  status: ('A' for Active; 'I' for Inactive)
REMARK    1  A    between atoms: C_1  and  N_2
REMARK    2  A    between atoms: C_5  and  C_6
REMARK    3  A    between atoms: C_13  and  C_14
REMARK    4  A    between atoms: C_19  and  O_20
REMARK    5  A    between atoms: O_20  and  C_21
REMARK    6  A    between atoms: C_21  and  C_22
REMARK                            x       y       z     vdW  Elec       q    Type
REMARK                         _______ _______ _______ _____ _____    ______ ____
ROOT
ATOM      1  C   UNL     1      -1.447  10.728  19.819  0.00  0.00    +0.000 A 
ATOM      2  C   UNL     1      -1.775  11.431  21.000  0.00  0.00    +0.000 A 
ATOM      3  N   UNL     1      -1.005  11.098  22.043  0.00  0.00    +0.000 NA
ATOM      4  N   UNL     1      -0.162  10.160  21.531  0.00  0.00    +0.000 N 
ATOM      5  C   UNL     1       0.840   9.519  22.286  0.00  0.00    +0.000 A 
ATOM      6  O   UNL     1       1.027   9.762  23.469  0.00  0.00    +0.000 OA
ATOM      7  C   UNL     1       1.653   8.536  21.514  0.00  0.00    +0.000 A 
ATOM      8  C   UNL     1       1.380   8.338  20.211  0.00  0.00    +0.000 A 
ATOM      9  N   UNL     1       0.370   9.008  19.553  0.00  0.00    +0.000 N 
ATOM     10  C   UNL     1      -0.402   9.918  20.192  0.00  0.00    +0.000 A 
ATOM     11  H   UNL     1       0.205   8.793  18.566  0.00  0.00    +0.000 HD
ENDROOT
BRANCH   8  12
ATOM     12  C   UNL     1       2.179   7.385  19.432  0.00  0.00    +0.000 A 
ATOM     13  C   UNL     1       2.800   7.792  18.246  0.00  0.00    +0.000 A 
ATOM     14  C   UNL     1       3.604   6.899  17.537  0.00  0.00    +0.000 A 
ATOM     15  C   UNL     1       3.775   5.593  18.001  0.00  0.00    +0.000 A 
ATOM     16 CL   UNL     1       4.800   4.535  17.098  0.00  0.00    +0.000 Cl
ATOM     17  C   UNL     1       3.121   5.159  19.165  0.00  0.00    +0.000 A 
ATOM     18  C   UNL     1       2.341   6.068  19.889  0.00  0.00    +0.000 A 
BRANCH  17  19
ATOM     19  O   UNL     1       3.327   3.863  19.558  0.00  0.00    +0.000 OA
BRANCH  19  20
ATOM     20  C   UNL     1       2.156   3.057  19.751  0.00  0.00    +0.000 C 
BRANCH  20  21
ATOM     21  C   UNL     1       1.504   2.696  18.418  0.00  0.00    +0.000 C 
ATOM     22  F   UNL     1       2.372   2.179  17.524  0.00  0.00    +0.000 F 
ATOM     23  F   UNL     1       0.515   1.789  18.596  0.00  0.00    +0.000 F 
ATOM     24  F   UNL     1       0.942   3.790  17.851  0.00  0.00    +0.000 F 
ENDBRANCH  20  21
ENDBRANCH  19  20
ENDBRANCH  17  19
ENDBRANCH   8  12
BRANCH   1  29
ATOM     25  C   UNL     1      -2.565   9.925  15.186  0.00  0.00    +0.000 C 
ATOM     26  N   UNL     1      -2.598  10.543  16.489  0.00  0.00    +0.000 N 
ATOM     27  C   UNL     1      -3.433  11.541  16.895  0.00  0.00    +0.000 A 
ATOM     28  C   UNL     1      -3.132  11.768  18.219  0.00  0.00    +0.000 A 
ATOM     29  C   UNL     1      -2.092  10.860  18.518  0.00  0.00    +0.000 A 
ATOM     30  N   UNL     1      -1.759  10.115  17.454  0.00  0.00    +0.000 NA
ENDBRANCH   1  29
TORSDOF 5
ENDMDL
MODEL 7
REMARK VINA RESULT:      -8.1      4.991      8.007
REMARK  Name = 
REMARK  6 active torsions:
REMARK  status: ('A' for Active; 'I' for Inactive)
REMARK    1  A    between atoms: C_1  and  N_2
REMARK    2  A    between atoms: C_5  and  C_6
REMARK    3  A    between atoms: C_13  and  C_14
REMARK    4  A    between atoms: C_19  and  O_20
REMARK    5  A    between atoms: O_20  and  C_21
REMARK    6  A    between atoms: C_21  and  C_22
REMARK                            x       y       z     vdW  Elec       q    Type
REMARK                         _______ _______ _______ _____ _____    ______ ____
ROOT
ATOM      1  C   UNL     1      -1.508  10.777  19.636  0.00  0.00    +0.000 A 
ATOM      2  C   UNL     1      -1.821  11.473  20.825  0.00  0.00    +0.000 A 
ATOM      3  N   UNL     1      -1.016  11.159  21.847  0.00  0.00    +0.000 NA
ATOM      4  N   UNL     1      -0.165  10.240  21.313  0.00  0.00    +0.000 N 
ATOM      5  C   UNL     1       0.871   9.624  22.041  0.00  0.00    +0.000 A 
ATOM      6  O   UNL     1       1.084   9.872  23.219  0.00  0.00    +0.000 OA
ATOM      7  C   UNL     1       1.686   8.659  21.248  0.00  0.00    +0.000 A 
ATOM      8  C   UNL     1       1.382   8.453  19.953  0.00  0.00    +0.000 A 
ATOM      9  N   UNL     1       0.340   9.098  19.322  0.00  0.00    +0.000 N 
ATOM     10  C   UNL     1      -0.436   9.991  19.981  0.00  0.00    +0.000 A 
ATOM     11  H   UNL     1       0.153   8.879  18.340  0.00  0.00    +0.000 HD
ENDROOT
BRANCH   8  12
ATOM     12  C   UNL     1       2.182   7.518  19.153  0.00  0.00    +0.000 A 
ATOM     13  C   UNL     1       2.878   7.971  18.027  0.00  0.00    +0.000 A 
ATOM     14  C   UNL     1       3.680   7.092  17.301  0.00  0.00    +0.000 A 
ATOM     15  C   UNL     1       3.777   5.753  17.688  0.00  0.00    +0.000 A 
ATOM     16 CL   UNL     1       4.804   4.712  16.769  0.00  0.00    +0.000 Cl
ATOM     17  C   UNL     1       3.049   5.275  18.788  0.00  0.00    +0.000 A 
ATOM     18  C   UNL     1       2.270   6.169  19.531  0.00  0.00    +0.000 A 
BRANCH  17  19
ATOM     19  O   UNL     1       3.184   3.950  19.106  0.00  0.00    +0.000 OA
BRANCH  19  20
ATOM     20  C   UNL     1       2.846   3.574  20.448  0.00  0.00    +0.000 C 
BRANCH  20  21
ATOM     21  C   UNL     1       1.537   2.787  20.491  0.00  0.00    +0.000 C 
ATOM     22  F   UNL     1       0.470   3.506  20.085  0.00  0.00    +0.000 F 
ATOM     23  F   UNL     1       1.610   1.689  19.703  0.00  0.00    +0.000 F 
ATOM     24  F   UNL     1       1.281   2.357  21.750  0.00  0.00    +0.000 F 
ENDBRANCH  20  21
ENDBRANCH  19  20
ENDBRANCH  17  19
ENDBRANCH   8  12
BRANCH   1  29
ATOM     25  C   UNL     1      -2.639  10.042  14.994  0.00  0.00    +0.000 C 
ATOM     26  N   UNL     1      -2.706  10.603  16.322  0.00  0.00    +0.000 N 
ATOM     27  C   UNL     1      -3.629  11.495  16.783  0.00  0.00    +0.000 A 
ATOM     28  C   UNL     1      -3.325  11.699  18.109  0.00  0.00    +0.000 A 
ATOM     29  C   UNL     1      -2.192  10.892  18.353  0.00  0.00    +0.000 A 
ATOM     30  N   UNL     1      -1.807  10.227  17.254  0.00  0.00    +0.000 NA
ENDBRANCH   1  29
TORSDOF 5
ENDMDL
MODEL 8
REMARK VINA RESULT:      -8.0      2.545      3.192
REMARK  Name = 
REMARK  6 active torsions:
REMARK  status: ('A' for Active; 'I' for Inactive)
REMARK    1  A    between atoms: C_1  and  N_2
REMARK    2  A    between atoms: C_5  and  C_6
REMARK    3  A    between atoms: C_13  and  C_14
REMARK    4  A    between atoms: C_19  and  O_20
REMARK    5  A    between atoms: O_20  and  C_21
REMARK    6  A    between atoms: C_21  and  C_22
REMARK                            x       y       z     vdW  Elec       q    Type
REMARK                         _______ _______ _______ _____ _____    ______ ____
ROOT
ATOM      1  C   UNL     1       4.603   4.523  18.703  0.00  0.00    +0.000 A 
ATOM      2  C   UNL     1       4.478   3.125  18.870  0.00  0.00    +0.000 A 
ATOM      3  N   UNL     1       3.417   2.775  19.606  0.00  0.00    +0.000 NA
ATOM      4  N   UNL     1       2.842   3.967  19.925  0.00  0.00    +0.000 N 
ATOM      5  C   UNL     1       1.675   4.084  20.704  0.00  0.00    +0.000 A 
ATOM      6  O   UNL     1       1.086   3.112  21.156  0.00  0.00    +0.000 OA
ATOM      7  C   UNL     1       1.218   5.488  20.915  0.00  0.00    +0.000 A 
ATOM      8  C   UNL     1       1.926   6.496  20.374  0.00  0.00    +0.000 A 
ATOM      9  N   UNL     1       3.067   6.288  19.628  0.00  0.00    +0.000 N 
ATOM     10  C   UNL     1       3.533   5.039  19.393  0.00  0.00    +0.000 A 
ATOM     11  H   UNL     1       3.567   7.102  19.263  0.00  0.00    +0.000 HD
ENDROOT
BRANCH   8  12
ATOM     12  C   UNL     1       1.484   7.883  20.559  0.00  0.00    +0.000 A 
ATOM     13  C   UNL     1       1.475   8.456  21.836  0.00  0.00    +0.000 A 
ATOM     14  C   UNL     1       1.106   9.791  22.000  0.00  0.00    +0.000 A 
ATOM     15  C   UNL     1       0.728  10.552  20.892  0.00  0.00    +0.000 A 
ATOM     16 CL   UNL     1       0.304  12.208  21.148  0.00  0.00    +0.000 Cl
ATOM     17  C   UNL     1       0.688   9.978  19.612  0.00  0.00    +0.000 A 
ATOM     18  C   UNL     1       1.089   8.647  19.449  0.00  0.00    +0.000 A 
BRANCH  17  19
ATOM     19  O   UNL     1       0.300  10.780  18.572  0.00  0.00    +0.000 OA
BRANCH  19  20
ATOM     20  C   UNL     1      -1.107  11.029  18.444  0.00  0.00    +0.000 C 
BRANCH  20  21
ATOM     21  C   UNL     1      -1.731  10.144  17.366  0.00  0.00    +0.000 C 
ATOM     22  F   UNL     1      -0.879   9.218  16.879  0.00  0.00    +0.000 F 
ATOM     23  F   UNL     1      -2.812   9.488  17.849  0.00  0.00    +0.000 F 
ATOM     24  F   UNL     1      -2.155  10.893  16.321  0.00  0.00    +0.000 F 
ENDBRANCH  20  21
ENDBRANCH  19  20
ENDBRANCH  17  19
ENDBRANCH   8  12
BRANCH   1  29
ATOM     25  C   UNL     1       7.784   7.933  17.433  0.00  0.00    +0.000 C 
ATOM     26  N   UNL     1       7.039   6.699  17.370  0.00  0.00    +0.000 N 
ATOM     27  C   UNL     1       7.206   5.693  16.465  0.00  0.00    +0.000 A 
ATOM     28  C   UNL     1       6.315   4.709  16.827  0.00  0.00    +0.000 A 
ATOM     29  C   UNL     1       5.645   5.222  17.961  0.00  0.00    +0.000 A 
ATOM     30  N   UNL     1       6.084   6.446  18.287  0.00  0.00    +0.000 NA
ENDBRANCH   1  29
TORSDOF 5
ENDMDL
MODEL 9
REMARK VINA RESULT:      -8.0      4.942      8.099
REMARK  Name = 
REMARK  6 active torsions:
REMARK  status: ('A' for Active; 'I' for Inactive)
REMARK    1  A    between atoms: C_1  and  N_2
REMARK    2  A    between atoms: C_5  and  C_6
REMARK    3  A    between atoms: C_13  and  C_14
REMARK    4  A    between atoms: C_19  and  O_20
REMARK    5  A    between atoms: O_20  and  C_21
REMARK    6  A    between atoms: C_21  and  C_22
REMARK                            x       y       z     vdW  Elec       q    Type
REMARK                         _______ _______ _______ _____ _____    ______ ____
ROOT
ATOM      1  C   UNL     1       0.662  12.787  20.917  0.00  0.00    +0.000 A 
ATOM      2  C   UNL     1      -0.168  13.118  22.011  0.00  0.00    +0.000 A 
ATOM      3  N   UNL     1      -0.617  12.047  22.676  0.00  0.00    +0.000 NA
ATOM      4  N   UNL     1      -0.069  10.999  22.001  0.00  0.00    +0.000 N 
ATOM      5  C   UNL     1      -0.273   9.652  22.356  0.00  0.00    +0.000 A 
ATOM      6  O   UNL     1      -0.966   9.322  23.308  0.00  0.00    +0.000 OA
ATOM      7  C   UNL     1       0.435   8.674  21.482  0.00  0.00    +0.000 A 
ATOM      8  C   UNL     1       1.182   9.130  20.459  0.00  0.00    +0.000 A 
ATOM      9  N   UNL     1       1.320  10.473  20.179  0.00  0.00    +0.000 N 
ATOM     10  C   UNL     1       0.709  11.415  20.937  0.00  0.00    +0.000 A 
ATOM     11  H   UNL     1       1.888  10.748  19.374  0.00  0.00    +0.000 HD
ENDROOT
BRANCH   8  12
ATOM     12  C   UNL     1       1.899   8.183  19.597  0.00  0.00    +0.000 A 
ATOM     13  C   UNL     1       2.248   8.544  18.291  0.00  0.00    +0.000 A 
ATOM     14  C   UNL     1       2.976   7.662  17.494  0.00  0.00    +0.000 A 
ATOM     15  C   UNL     1       3.344   6.410  17.992  0.00  0.00    +0.000 A 
ATOM     16 CL   UNL     1       4.267   5.365  16.972  0.00  0.00    +0.000 Cl
ATOM     17  C   UNL     1       2.961   6.017  19.284  0.00  0.00    +0.000 A 
ATOM     18  C   UNL     1       2.257   6.918  20.091  0.00  0.00    +0.000 A 
BRANCH  17  19
ATOM     19  O   UNL     1       3.348   4.773  19.706  0.00  0.00    +0.000 OA
BRANCH  19  20
ATOM     20  C   UNL     1       2.429   3.699  19.465  0.00  0.00    +0.000 C 
BRANCH  20  21
ATOM     21  C   UNL     1       1.502   3.484  20.660  0.00  0.00    +0.000 C 
ATOM     22  F   UNL     1       1.333   2.183  20.976  0.00  0.00    +0.000 F 
ATOM     23  F   UNL     1       1.981   4.111  21.760  0.00  0.00    +0.000 F 
ATOM     24  F   UNL     1       0.275   4.002  20.409  0.00  0.00    +0.000 F 
ENDBRANCH  20  21
ENDBRANCH  19  20
ENDBRANCH  17  19
ENDBRANCH   8  12
BRANCH   1  29
ATOM     25  C   UNL     1       3.998  14.774  18.038  0.00  0.00    +0.000 C 
ATOM     26  N   UNL     1       2.747  14.620  18.739  0.00  0.00    +0.000 N 
ATOM     27  C   UNL     1       1.655  15.432  18.643  0.00  0.00    +0.000 A 
ATOM     28  C   UNL     1       0.693  14.867  19.448  0.00  0.00    +0.000 A 
ATOM     29  C   UNL     1       1.305  13.718  19.997  0.00  0.00    +0.000 A 
ATOM     30  N   UNL     1       2.568  13.572  19.569  0.00  0.00    +0.000 NA
ENDBRANCH   1  29
TORSDOF 5
ENDMDL
