MODEL 1
REMARK VINA RESULT:      -8.5      0.000      0.000
REMARK  Name = 
REMARK  13 active torsions:
REMARK  status: ('A' for Active; 'I' for Inactive)
REMARK    1  A    between atoms: C_1  and  C_2
REMARK    2  A    between atoms: C_2  and  C_3
REMARK    3  A    between atoms: C_3  and  N_4
REMARK    4  A    between atoms: C_9  and  C_10
REMARK    5  A    between atoms: C_13  and  O_14
REMARK    6  A    between atoms: O_14  and  C_15
REMARK    7  A    between atoms: C_15  and  C_16
REMARK    8  A    between atoms: C_15  and  C_17
REMARK    9  A    between atoms: C_15  and  C_18
REMARK   10  A    between atoms: N_20  and  C_21
REMARK   11  A    between atoms: N_31  and  C_32
REMARK   12  A    between atoms: C_32  and  C_33
REMARK   13  A    between atoms: C_33  and  C_34
REMARK                            x       y       z     vdW  Elec       q    Type
REMARK                         _______ _______ _______ _____ _____    ______ ____
ROOT
ATOM      1  C   UNL     1       0.860   9.267  20.735  0.00  0.00    +0.000 A 
ATOM      2  C   UNL     1       1.209  10.547  20.296  0.00  0.00    +0.000 A 
ATOM      3  C   UNL     1       0.630  11.686  20.885  0.00  0.00    +0.000 A 
ATOM      4  C   UNL     1      -0.305  11.573  21.919  0.00  0.00    +0.000 A 
ATOM      5  C   UNL     1      -0.581  10.308  22.417  0.00  0.00    +0.000 A 
ATOM      6  C   UNL     1      -0.036   9.170  21.808  0.00  0.00    +0.000 A 
ENDROOT
BRANCH   1  12
ATOM      7  N   UNL     1       4.353   5.059  18.327  0.00  0.00    +0.000 N 
ATOM      8  C   UNL     1       3.841   6.331  18.045  0.00  0.00    +0.000 A 
ATOM      9  O   UNL     1       4.219   7.049  17.124  0.00  0.00    +0.000 OA
ATOM     10  C   UNL     1       2.840   6.757  18.968  0.00  0.00    +0.000 A 
ATOM     11  N   UNL     1       2.234   7.984  19.047  0.00  0.00    +0.000 N 
ATOM     12  C   UNL     1       1.433   8.034  20.175  0.00  0.00    +0.000 A 
ATOM     13  C   UNL     1       1.410   6.739  20.686  0.00  0.00    +0.000 A 
ATOM     14  C   UNL     1       2.366   5.979  19.982  0.00  0.00    +0.000 A 
ATOM     15  N   UNL     1       2.874   4.707  20.193  0.00  0.00    +0.000 N 
ATOM     16  C   UNL     1       3.969   4.267  19.430  0.00  0.00    +0.000 A 
ATOM     17  O   UNL     1       4.575   3.233  19.724  0.00  0.00    +0.000 OA
ATOM     18  H   UNL     1       2.452   8.764  18.440  0.00  0.00    +0.000 HD
BRANCH   7  19
ATOM     19  C   UNL     1       5.494   4.599  17.536  0.00  0.00    +0.000 C 
BRANCH  19  21
ATOM     20  C   UNL     1       5.603   4.553  14.980  0.00  0.00    +0.000 C 
ATOM     21  C   UNL     1       5.135   3.851  16.243  0.00  0.00    +0.000 C 
ENDBRANCH  19  21
ENDBRANCH   7  19
BRANCH  15  22
ATOM     22  C   UNL     1       2.394   3.860  21.287  0.00  0.00    +0.000 C 
BRANCH  22  23
ATOM     23  C   UNL     1       1.614   2.637  20.799  0.00  0.00    +0.000 C 
ATOM     24  C   UNL     1       0.638   3.010  19.691  0.00  0.00    +0.000 C 
ENDBRANCH  22  23
ENDBRANCH  15  22
ENDBRANCH   1  12
BRANCH   4  25
ATOM     25  O   UNL     1      -0.844  12.750  22.355  0.00  0.00    +0.000 OA
BRANCH  25  26
ATOM     26  C   UNL     1      -2.090  13.265  21.840  0.00  0.00    +0.000 C 
ATOM     27  C   UNL     1      -3.367  12.585  22.381  0.00  0.00    +0.000 C 
ATOM     28  C   UNL     1      -2.134  14.791  21.982  0.00  0.00    +0.000 C 
BRANCH  26  29
ATOM     29  C   UNL     1      -2.114  12.983  20.304  0.00  0.00    +0.000 C 
ATOM     30  O   UNL     1      -1.504  13.716  19.529  0.00  0.00    +0.000 OA
ATOM     31  N   UNL     1      -2.811  11.845  19.928  0.00  0.00    +0.000 N 
ATOM     32  H   UNL     1      -3.390  11.427  20.650  0.00  0.00    +0.000 HD
BRANCH  31  33
ATOM     33  C   UNL     1      -2.958  11.366  18.604  0.00  0.00    +0.000 A 
ATOM     34  C   UNL     1      -4.051  11.683  17.792  0.00  0.00    +0.000 A 
ATOM     35  C   UNL     1      -4.172  11.151  16.505  0.00  0.00    +0.000 A 
ATOM     36  C   UNL     1      -3.193  10.297  16.011  0.00  0.00    +0.000 A 
ATOM     37  C   UNL     1      -2.083   9.987  16.803  0.00  0.00    +0.000 A 
ATOM     38  C   UNL     1      -1.963  10.529  18.086  0.00  0.00    +0.000 A 
ENDBRANCH  31  33
ENDBRANCH  26  29
ENDBRANCH  25  26
ENDBRANCH   4  25
TORSDOF 9
ENDMDL
MODEL 2
REMARK VINA RESULT:      -8.3      2.327      9.996
REMARK  Name = 
REMARK  13 active torsions:
REMARK  status: ('A' for Active; 'I' for Inactive)
REMARK    1  A    between atoms: C_1  and  C_2
REMARK    2  A    between atoms: C_2  and  C_3
REMARK    3  A    between atoms: C_3  and  N_4
REMARK    4  A    between atoms: C_9  and  C_10
REMARK    5  A    between atoms: C_13  and  O_14
REMARK    6  A    between atoms: O_14  and  C_15
REMARK    7  A    between atoms: C_15  and  C_16
REMARK    8  A    between atoms: C_15  and  C_17
REMARK    9  A    between atoms: C_15  and  C_18
REMARK   10  A    between atoms: N_20  and  C_21
REMARK   11  A    between atoms: N_31  and  C_32
REMARK   12  A    between atoms: C_32  and  C_33
REMARK   13  A    between atoms: C_33  and  C_34
REMARK                            x       y       z     vdW  Elec       q    Type
REMARK                         _______ _______ _______ _____ _____    ______ ____
ROOT
ATOM      1  C   UNL     1       2.140   8.425  18.345  0.00  0.00    +0.000 A 
ATOM      2  C   UNL     1       3.010   8.259  17.263  0.00  0.00    +0.000 A 
ATOM      3  C   UNL     1       3.983   7.244  17.280  0.00  0.00    +0.000 A 
ATOM      4  C   UNL     1       4.110   6.377  18.370  0.00  0.00    +0.000 A 
ATOM      5  C   UNL     1       3.189   6.483  19.402  0.00  0.00    +0.000 A 
ATOM      6  C   UNL     1       2.243   7.516  19.407  0.00  0.00    +0.000 A 
ENDROOT
BRANCH   1  12
ATOM      7  N   UNL     1      -2.969  11.521  18.204  0.00  0.00    +0.000 N 
ATOM      8  C   UNL     1      -2.169  10.717  17.384  0.00  0.00    +0.000 A 
ATOM      9  O   UNL     1      -2.513  10.265  16.295  0.00  0.00    +0.000 OA
ATOM     10  C   UNL     1      -0.893  10.423  17.950  0.00  0.00    +0.000 A 
ATOM     11  N   UNL     1       0.068   9.572  17.466  0.00  0.00    +0.000 N 
ATOM     12  C   UNL     1       1.091   9.454  18.391  0.00  0.00    +0.000 A 
ATOM     13  C   UNL     1       0.830  10.406  19.374  0.00  0.00    +0.000 A 
ATOM     14  C   UNL     1      -0.456  10.931  19.136  0.00  0.00    +0.000 A 
ATOM     15  N   UNL     1      -1.270  11.759  19.892  0.00  0.00    +0.000 N 
ATOM     16  C   UNL     1      -2.598  11.976  19.486  0.00  0.00    +0.000 A 
ATOM     17  O   UNL     1      -3.408  12.535  20.232  0.00  0.00    +0.000 OA
ATOM     18  H   UNL     1      -0.034   9.023  16.622  0.00  0.00    +0.000 HD
BRANCH   7  19
ATOM     19  C   UNL     1      -4.352  11.747  17.786  0.00  0.00    +0.000 C 
BRANCH  19  21
ATOM     20  C   UNL     1      -6.744  11.166  18.487  0.00  0.00    +0.000 C 
ATOM     21  C   UNL     1      -5.346  10.649  18.192  0.00  0.00    +0.000 C 
ENDBRANCH  19  21
ENDBRANCH   7  19
BRANCH  15  22
ATOM     22  C   UNL     1      -0.831  12.303  21.179  0.00  0.00    +0.000 C 
BRANCH  22  23
ATOM     23  C   UNL     1      -0.881  11.276  22.312  0.00  0.00    +0.000 C 
ATOM     24  C   UNL     1      -2.015  11.579  23.282  0.00  0.00    +0.000 C 
ENDBRANCH  22  23
ENDBRANCH  15  22
ENDBRANCH   1  12
BRANCH   4  25
ATOM     25  O   UNL     1       5.140   5.483  18.293  0.00  0.00    +0.000 OA
BRANCH  25  26
ATOM     26  C   UNL     1       6.503   5.894  18.054  0.00  0.00    +0.000 C 
ATOM     27  C   UNL     1       6.702   7.391  17.733  0.00  0.00    +0.000 C 
ATOM     28  C   UNL     1       7.411   5.413  19.192  0.00  0.00    +0.000 C 
BRANCH  26  29
ATOM     29  C   UNL     1       6.999   5.147  16.774  0.00  0.00    +0.000 C 
ATOM     30  O   UNL     1       7.905   4.321  16.850  0.00  0.00    +0.000 OA
ATOM     31  N   UNL     1       6.307   5.455  15.613  0.00  0.00    +0.000 N 
ATOM     32  H   UNL     1       5.693   6.261  15.667  0.00  0.00    +0.000 HD
BRANCH  31  33
ATOM     33  C   UNL     1       6.551   4.897  14.335  0.00  0.00    +0.000 A 
ATOM     34  C   UNL     1       7.594   5.315  13.502  0.00  0.00    +0.000 A 
ATOM     35  C   UNL     1       7.768   4.762  12.231  0.00  0.00    +0.000 A 
ATOM     36  C   UNL     1       6.901   3.775  11.777  0.00  0.00    +0.000 A 
ATOM     37  C   UNL     1       5.866   3.330  12.606  0.00  0.00    +0.000 A 
ATOM     38  C   UNL     1       5.701   3.881  13.880  0.00  0.00    +0.000 A 
ENDBRANCH  31  33
ENDBRANCH  26  29
ENDBRANCH  25  26
ENDBRANCH   4  25
TORSDOF 9
ENDMDL
MODEL 3
REMARK VINA RESULT:      -8.3      2.133     10.284
REMARK  Name = 
REMARK  13 active torsions:
REMARK  status: ('A' for Active; 'I' for Inactive)
REMARK    1  A    between atoms: C_1  and  C_2
REMARK    2  A    between atoms: C_2  and  C_3
REMARK    3  A    between atoms: C_3  and  N_4
REMARK    4  A    between atoms: C_9  and  C_10
REMARK    5  A    between atoms: C_13  and  O_14
REMARK    6  A    between atoms: O_14  and  C_15
REMARK    7  A    between atoms: C_15  and  C_16
REMARK    8  A    between atoms: C_15  and  C_17
REMARK    9  A    between atoms: C_15  and  C_18
REMARK   10  A    between atoms: N_20  and  C_21
REMARK   11  A    between atoms: N_31  and  C_32
REMARK   12  A    between atoms: C_32  and  C_33
REMARK   13  A    between atoms: C_33  and  C_34
REMARK                            x       y       z     vdW  Elec       q    Type
REMARK                         _______ _______ _______ _____ _____    ______ ____
ROOT
ATOM      1  C   UNL     1       1.882   8.046  19.227  0.00  0.00    +0.000 A 
ATOM      2  C   UNL     1       2.425   7.024  20.011  0.00  0.00    +0.000 A 
ATOM      3  C   UNL     1       3.452   6.206  19.506  0.00  0.00    +0.000 A 
ATOM      4  C   UNL     1       3.958   6.389  18.215  0.00  0.00    +0.000 A 
ATOM      5  C   UNL     1       3.484   7.461  17.472  0.00  0.00    +0.000 A 
ATOM      6  C   UNL     1       2.435   8.253  17.956  0.00  0.00    +0.000 A 
ENDROOT
BRANCH   1  12
ATOM      7  N   UNL     1      -1.440  12.158  22.013  0.00  0.00    +0.000 N 
ATOM      8  C   UNL     1      -0.698  11.002  22.284  0.00  0.00    +0.000 A 
ATOM      9  O   UNL     1      -0.387  10.617  23.408  0.00  0.00    +0.000 OA
ATOM     10  C   UNL     1      -0.284  10.306  21.110  0.00  0.00    +0.000 A 
ATOM     11  N   UNL     1       0.550   9.221  21.023  0.00  0.00    +0.000 N 
ATOM     12  C   UNL     1       0.817   8.946  19.693  0.00  0.00    +0.000 A 
ATOM     13  C   UNL     1      -0.029   9.770  18.955  0.00  0.00    +0.000 A 
ATOM     14  C   UNL     1      -0.635  10.677  19.847  0.00  0.00    +0.000 A 
ATOM     15  N   UNL     1      -1.410  11.806  19.632  0.00  0.00    +0.000 N 
ATOM     16  C   UNL     1      -1.732  12.637  20.719  0.00  0.00    +0.000 A 
ATOM     17  O   UNL     1      -2.240  13.748  20.541  0.00  0.00    +0.000 OA
ATOM     18  H   UNL     1       0.996   8.784  21.820  0.00  0.00    +0.000 HD
BRANCH   7  19
ATOM     19  C   UNL     1      -1.775  13.026  23.141  0.00  0.00    +0.000 C 
BRANCH  19  21
ATOM     20  C   UNL     1      -3.899  14.099  24.082  0.00  0.00    +0.000 C 
ATOM     21  C   UNL     1      -3.171  12.809  23.742  0.00  0.00    +0.000 C 
ENDBRANCH  19  21
ENDBRANCH   7  19
BRANCH  15  22
ATOM     22  C   UNL     1      -1.785  12.235  18.283  0.00  0.00    +0.000 C 
BRANCH  22  23
ATOM     23  C   UNL     1      -2.865  11.354  17.653  0.00  0.00    +0.000 C 
ATOM     24  C   UNL     1      -4.223  11.596  18.300  0.00  0.00    +0.000 C 
ENDBRANCH  22  23
ENDBRANCH  15  22
ENDBRANCH   1  12
BRANCH   4  25
ATOM     25  O   UNL     1       4.902   5.485  17.821  0.00  0.00    +0.000 OA
BRANCH  25  26
ATOM     26  C   UNL     1       6.304   5.817  17.741  0.00  0.00    +0.000 C 
ATOM     27  C   UNL     1       6.625   7.313  17.533  0.00  0.00    +0.000 C 
ATOM     28  C   UNL     1       7.062   5.215  18.930  0.00  0.00    +0.000 C 
BRANCH  26  29
ATOM     29  C   UNL     1       6.881   5.110  16.472  0.00  0.00    +0.000 C 
ATOM     30  O   UNL     1       7.868   4.385  16.561  0.00  0.00    +0.000 OA
ATOM     31  N   UNL     1       6.165   5.328  15.305  0.00  0.00    +0.000 N 
ATOM     32  H   UNL     1       5.469   6.067  15.348  0.00  0.00    +0.000 HD
BRANCH  31  33
ATOM     33  C   UNL     1       6.471   4.783  14.035  0.00  0.00    +0.000 A 
ATOM     34  C   UNL     1       7.518   5.248  13.234  0.00  0.00    +0.000 A 
ATOM     35  C   UNL     1       7.755   4.704  11.968  0.00  0.00    +0.000 A 
ATOM     36  C   UNL     1       6.946   3.680  11.489  0.00  0.00    +0.000 A 
ATOM     37  C   UNL     1       5.907   3.189  12.287  0.00  0.00    +0.000 A 
ATOM     38  C   UNL     1       5.681   3.732  13.556  0.00  0.00    +0.000 A 
ENDBRANCH  31  33
ENDBRANCH  26  29
ENDBRANCH  25  26
ENDBRANCH   4  25
TORSDOF 9
ENDMDL
MODEL 4
REMARK VINA RESULT:      -8.2      0.730      1.257
REMARK  Name = 
REMARK  13 active torsions:
REMARK  status: ('A' for Active; 'I' for Inactive)
REMARK    1  A    between atoms: C_1  and  C_2
REMARK    2  A    between atoms: C_2  and  C_3
REMARK    3  A    between atoms: C_3  and  N_4
REMARK    4  A    between atoms: C_9  and  C_10
REMARK    5  A    between atoms: C_13  and  O_14
REMARK    6  A    between atoms: O_14  and  C_15
REMARK    7  A    between atoms: C_15  and  C_16
REMARK    8  A    between atoms: C_15  and  C_17
REMARK    9  A    between atoms: C_15  and  C_18
REMARK   10  A    between atoms: N_20  and  C_21
REMARK   11  A    between atoms: N_31  and  C_32
REMARK   12  A    between atoms: C_32  and  C_33
REMARK   13  A    between atoms: C_33  and  C_34
REMARK                            x       y       z     vdW  Elec       q    Type
REMARK                         _______ _______ _______ _____ _____    ______ ____
ROOT
ATOM      1  C   UNL     1       0.790   9.289  20.862  0.00  0.00    +0.000 A 
ATOM      2  C   UNL     1      -0.000   9.235  22.013  0.00  0.00    +0.000 A 
ATOM      3  C   UNL     1      -0.525  10.413  22.574  0.00  0.00    +0.000 A 
ATOM      4  C   UNL     1      -0.274  11.665  22.002  0.00  0.00    +0.000 A 
ATOM      5  C   UNL     1       0.432  11.709  20.809  0.00  0.00    +0.000 A 
ATOM      6  C   UNL     1       0.989  10.543  20.268  0.00  0.00    +0.000 A 
ENDROOT
BRANCH   1  12
ATOM      7  N   UNL     1       4.240   5.285  18.074  0.00  0.00    +0.000 N 
ATOM      8  C   UNL     1       3.688   6.556  17.882  0.00  0.00    +0.000 A 
ATOM      9  O   UNL     1       4.002   7.327  16.978  0.00  0.00    +0.000 OA
ATOM     10  C   UNL     1       2.728   6.914  18.874  0.00  0.00    +0.000 A 
ATOM     11  N   UNL     1       2.101   8.122  19.045  0.00  0.00    +0.000 N 
ATOM     12  C   UNL     1       1.360   8.099  20.214  0.00  0.00    +0.000 A 
ATOM     13  C   UNL     1       1.391   6.780  20.661  0.00  0.00    +0.000 A 
ATOM     14  C   UNL     1       2.324   6.078  19.872  0.00  0.00    +0.000 A 
ATOM     15  N   UNL     1       2.870   4.810  19.995  0.00  0.00    +0.000 N 
ATOM     16  C   UNL     1       3.932   4.433  19.155  0.00  0.00    +0.000 A 
ATOM     17  O   UNL     1       4.574   3.400  19.367  0.00  0.00    +0.000 OA
ATOM     18  H   UNL     1       2.270   8.934  18.466  0.00  0.00    +0.000 HD
BRANCH   7  19
ATOM     19  C   UNL     1       5.348   4.890  17.204  0.00  0.00    +0.000 C 
BRANCH  19  21
ATOM     20  C   UNL     1       7.794   4.613  17.902  0.00  0.00    +0.000 C 
ATOM     21  C   UNL     1       6.689   5.576  17.501  0.00  0.00    +0.000 C 
ENDBRANCH  19  21
ENDBRANCH   7  19
BRANCH  15  22
ATOM     22  C   UNL     1       2.466   3.900  21.069  0.00  0.00    +0.000 C 
BRANCH  22  23
ATOM     23  C   UNL     1       1.077   3.296  20.852  0.00  0.00    +0.000 C 
ATOM     24  C   UNL     1       0.952   2.686  19.462  0.00  0.00    +0.000 C 
ENDBRANCH  22  23
ENDBRANCH  15  22
ENDBRANCH   1  12
BRANCH   4  25
ATOM     25  O   UNL     1      -0.781  12.734  22.683  0.00  0.00    +0.000 OA
BRANCH  25  26
ATOM     26  C   UNL     1      -2.122  13.222  22.468  0.00  0.00    +0.000 C 
ATOM     27  C   UNL     1      -3.252  12.349  23.056  0.00  0.00    +0.000 C 
ATOM     28  C   UNL     1      -2.231  14.689  22.900  0.00  0.00    +0.000 C 
BRANCH  26  29
ATOM     29  C   UNL     1      -2.381  13.215  20.927  0.00  0.00    +0.000 C 
ATOM     30  O   UNL     1      -1.933  14.113  20.219  0.00  0.00    +0.000 OA
ATOM     31  N   UNL     1      -3.082  12.116  20.456  0.00  0.00    +0.000 N 
ATOM     32  H   UNL     1      -3.521  11.538  21.166  0.00  0.00    +0.000 HD
BRANCH  31  33
ATOM     33  C   UNL     1      -3.420  11.870  19.104  0.00  0.00    +0.000 A 
ATOM     34  C   UNL     1      -4.711  12.040  18.593  0.00  0.00    +0.000 A 
ATOM     35  C   UNL     1      -5.004  11.744  17.260  0.00  0.00    +0.000 A 
ATOM     36  C   UNL     1      -4.004  11.277  16.415  0.00  0.00    +0.000 A 
ATOM     37  C   UNL     1      -2.703  11.121  16.904  0.00  0.00    +0.000 A 
ATOM     38  C   UNL     1      -2.414  11.427  18.238  0.00  0.00    +0.000 A 
ENDBRANCH  31  33
ENDBRANCH  26  29
ENDBRANCH  25  26
ENDBRANCH   4  25
TORSDOF 9
ENDMDL
MODEL 5
REMARK VINA RESULT:      -8.2      2.121      9.946
REMARK  Name = 
REMARK  13 active torsions:
REMARK  status: ('A' for Active; 'I' for Inactive)
REMARK    1  A    between atoms: C_1  and  C_2
REMARK    2  A    between atoms: C_2  and  C_3
REMARK    3  A    between atoms: C_3  and  N_4
REMARK    4  A    between atoms: C_9  and  C_10
REMARK    5  A    between atoms: C_13  and  O_14
REMARK    6  A    between atoms: O_14  and  C_15
REMARK    7  A    between atoms: C_15  and  C_16
REMARK    8  A    between atoms: C_15  and  C_17
REMARK    9  A    between atoms: C_15  and  C_18
REMARK   10  A    between atoms: N_20  and  C_21
REMARK   11  A    between atoms: N_31  and  C_32
REMARK   12  A    between atoms: C_32  and  C_33
REMARK   13  A    between atoms: C_33  and  C_34
REMARK                            x       y       z     vdW  Elec       q    Type
REMARK                         _______ _______ _______ _____ _____    ______ ____
ROOT
ATOM      1  C   UNL     1       1.575   8.762  18.766  0.00  0.00    +0.000 A 
ATOM      2  C   UNL     1       2.435   8.584  17.678  0.00  0.00    +0.000 A 
ATOM      3  C   UNL     1       3.412   7.572  17.700  0.00  0.00    +0.000 A 
ATOM      4  C   UNL     1       3.552   6.720  18.801  0.00  0.00    +0.000 A 
ATOM      5  C   UNL     1       2.639   6.838  19.839  0.00  0.00    +0.000 A 
ATOM      6  C   UNL     1       1.690   7.868  19.839  0.00  0.00    +0.000 A 
ENDROOT
BRANCH   1  12
ATOM      7  N   UNL     1      -3.541  11.846  18.599  0.00  0.00    +0.000 N 
ATOM      8  C   UNL     1      -2.734  11.045  17.782  0.00  0.00    +0.000 A 
ATOM      9  O   UNL     1      -3.070  10.595  16.691  0.00  0.00    +0.000 OA
ATOM     10  C   UNL     1      -1.460  10.753  18.356  0.00  0.00    +0.000 A 
ATOM     11  N   UNL     1      -0.494   9.906  17.876  0.00  0.00    +0.000 N 
ATOM     12  C   UNL     1       0.523   9.789  18.807  0.00  0.00    +0.000 A 
ATOM     13  C   UNL     1       0.254  10.737  19.790  0.00  0.00    +0.000 A 
ATOM     14  C   UNL     1      -1.032  11.260  19.546  0.00  0.00    +0.000 A 
ATOM     15  N   UNL     1      -1.853  12.085  20.299  0.00  0.00    +0.000 N 
ATOM     16  C   UNL     1      -3.179  12.299  19.885  0.00  0.00    +0.000 A 
ATOM     17  O   UNL     1      -3.995  12.855  20.627  0.00  0.00    +0.000 OA
ATOM     18  H   UNL     1      -0.590   9.358  17.031  0.00  0.00    +0.000 HD
BRANCH   7  19
ATOM     19  C   UNL     1      -4.922  12.069  18.173  0.00  0.00    +0.000 C 
BRANCH  19  21
ATOM     20  C   UNL     1      -6.987  11.157  19.378  0.00  0.00    +0.000 C 
ATOM     21  C   UNL     1      -5.872  10.881  18.384  0.00  0.00    +0.000 C 
ENDBRANCH  19  21
ENDBRANCH   7  19
BRANCH  15  22
ATOM     22  C   UNL     1      -1.423  12.626  21.589  0.00  0.00    +0.000 C 
BRANCH  22  23
ATOM     23  C   UNL     1      -1.929  11.811  22.780  0.00  0.00    +0.000 C 
ATOM     24  C   UNL     1      -1.034  10.608  23.047  0.00  0.00    +0.000 C 
ENDBRANCH  22  23
ENDBRANCH  15  22
ENDBRANCH   1  12
BRANCH   4  25
ATOM     25  O   UNL     1       4.583   5.829  18.726  0.00  0.00    +0.000 OA
BRANCH  25  26
ATOM     26  C   UNL     1       4.437   4.527  18.120  0.00  0.00    +0.000 C 
ATOM     27  C   UNL     1       4.768   3.325  19.031  0.00  0.00    +0.000 C 
ATOM     28  C   UNL     1       3.058   4.400  17.460  0.00  0.00    +0.000 C 
BRANCH  26  29
ATOM     29  C   UNL     1       5.473   4.435  16.954  0.00  0.00    +0.000 C 
ATOM     30  O   UNL     1       6.674   4.347  17.198  0.00  0.00    +0.000 OA
ATOM     31  N   UNL     1       4.923   4.406  15.682  0.00  0.00    +0.000 N 
ATOM     32  H   UNL     1       3.937   4.642  15.625  0.00  0.00    +0.000 HD
BRANCH  31  33
ATOM     33  C   UNL     1       5.648   4.304  14.471  0.00  0.00    +0.000 A 
ATOM     34  C   UNL     1       5.252   3.485  13.408  0.00  0.00    +0.000 A 
ATOM     35  C   UNL     1       6.023   3.386  12.248  0.00  0.00    +0.000 A 
ATOM     36  C   UNL     1       7.203   4.112  12.133  0.00  0.00    +0.000 A 
ATOM     37  C   UNL     1       7.602   4.951  13.178  0.00  0.00    +0.000 A 
ATOM     38  C   UNL     1       6.822   5.053  14.333  0.00  0.00    +0.000 A 
ENDBRANCH  31  33
ENDBRANCH  26  29
ENDBRANCH  25  26
ENDBRANCH   4  25
TORSDOF 9
ENDMDL
MODEL 6
REMARK VINA RESULT:      -8.1      1.317      1.614
REMARK  Name = 
REMARK  13 active torsions:
REMARK  status: ('A' for Active; 'I' for Inactive)
REMARK    1  A    between atoms: C_1  and  C_2
REMARK    2  A    between atoms: C_2  and  C_3
REMARK    3  A    between atoms: C_3  and  N_4
REMARK    4  A    between atoms: C_9  and  C_10
REMARK    5  A    between atoms: C_13  and  O_14
REMARK    6  A    between atoms: O_14  and  C_15
REMARK    7  A    between atoms: C_15  and  C_16
REMARK    8  A    between atoms: C_15  and  C_17
REMARK    9  A    between atoms: C_15  and  C_18
REMARK   10  A    between atoms: N_20  and  C_21
REMARK   11  A    between atoms: N_31  and  C_32
REMARK   12  A    between atoms: C_32  and  C_33
REMARK   13  A    between atoms: C_33  and  C_34
REMARK                            x       y       z     vdW  Elec       q    Type
REMARK                         _______ _______ _______ _____ _____    ______ ____
ROOT
ATOM      1  C   UNL     1       1.798   9.064  19.269  0.00  0.00    +0.000 A 
ATOM      2  C   UNL     1       1.905  10.368  18.778  0.00  0.00    +0.000 A 
ATOM      3  C   UNL     1       1.457  11.458  19.545  0.00  0.00    +0.000 A 
ATOM      4  C   UNL     1       0.895  11.273  20.813  0.00  0.00    +0.000 A 
ATOM      5  C   UNL     1       0.874   9.989  21.338  0.00  0.00    +0.000 A 
ATOM      6  C   UNL     1       1.283   8.896  20.562  0.00  0.00    +0.000 A 
ENDROOT
BRANCH   1  12
ATOM      7  N   UNL     1       4.945   4.719  16.638  0.00  0.00    +0.000 N 
ATOM      8  C   UNL     1       4.801   6.112  16.622  0.00  0.00    +0.000 A 
ATOM      9  O   UNL     1       5.568   6.889  16.060  0.00  0.00    +0.000 OA
ATOM     10  C   UNL     1       3.677   6.573  17.368  0.00  0.00    +0.000 A 
ATOM     11  N   UNL     1       3.328   7.869  17.653  0.00  0.00    +0.000 N 
ATOM     12  C   UNL     1       2.257   7.879  18.529  0.00  0.00    +0.000 A 
ATOM     13  C   UNL     1       1.829   6.557  18.626  0.00  0.00    +0.000 A 
ATOM     14  C   UNL     1       2.781   5.746  17.976  0.00  0.00    +0.000 A 
ATOM     15  N   UNL     1       2.943   4.370  17.926  0.00  0.00    +0.000 N 
ATOM     16  C   UNL     1       4.105   3.835  17.345  0.00  0.00    +0.000 A 
ATOM     17  O   UNL     1       4.381   2.637  17.463  0.00  0.00    +0.000 OA
ATOM     18  H   UNL     1       3.865   8.676  17.363  0.00  0.00    +0.000 HD
BRANCH   7  19
ATOM     19  C   UNL     1       6.155   4.158  16.036  0.00  0.00    +0.000 C 
BRANCH  19  21
ATOM     20  C   UNL     1       7.015   4.688  13.686  0.00  0.00    +0.000 C 
ATOM     21  C   UNL     1       6.062   3.863  14.532  0.00  0.00    +0.000 C 
ENDBRANCH  19  21
ENDBRANCH   7  19
BRANCH  15  22
ATOM     22  C   UNL     1       2.004   3.462  18.587  0.00  0.00    +0.000 C 
BRANCH  22  23
ATOM     23  C   UNL     1       2.379   3.166  20.041  0.00  0.00    +0.000 C 
ATOM     24  C   UNL     1       1.149   3.159  20.938  0.00  0.00    +0.000 C 
ENDBRANCH  22  23
ENDBRANCH  15  22
ENDBRANCH   1  12
BRANCH   4  25
ATOM     25  O   UNL     1       0.435  12.405  21.422  0.00  0.00    +0.000 OA
BRANCH  25  26
ATOM     26  C   UNL     1      -0.955  12.791  21.384  0.00  0.00    +0.000 C 
ATOM     27  C   UNL     1      -1.924  11.877  22.165  0.00  0.00    +0.000 C 
ATOM     28  C   UNL     1      -1.107  14.268  21.767  0.00  0.00    +0.000 C 
BRANCH  26  29
ATOM     29  C   UNL     1      -1.428  12.690  19.899  0.00  0.00    +0.000 C 
ATOM     30  O   UNL     1      -1.124  13.563  19.090  0.00  0.00    +0.000 OA
ATOM     31  N   UNL     1      -2.142  11.542  19.589  0.00  0.00    +0.000 N 
ATOM     32  H   UNL     1      -2.450  10.989  20.382  0.00  0.00    +0.000 HD
BRANCH  31  33
ATOM     33  C   UNL     1      -2.656  11.209  18.313  0.00  0.00    +0.000 A 
ATOM     34  C   UNL     1      -3.912  11.625  17.861  0.00  0.00    +0.000 A 
ATOM     35  C   UNL     1      -4.394  11.235  16.608  0.00  0.00    +0.000 A 
ATOM     36  C   UNL     1      -3.619  10.426  15.787  0.00  0.00    +0.000 A 
ATOM     37  C   UNL     1      -2.351  10.018  16.215  0.00  0.00    +0.000 A 
ATOM     38  C   UNL     1      -1.871  10.418  17.466  0.00  0.00    +0.000 A 
ENDBRANCH  31  33
ENDBRANCH  26  29
ENDBRANCH  25  26
ENDBRANCH   4  25
TORSDOF 9
ENDMDL
MODEL 7
REMARK VINA RESULT:      -8.1      2.117     10.184
REMARK  Name = 
REMARK  13 active torsions:
REMARK  status: ('A' for Active; 'I' for Inactive)
REMARK    1  A    between atoms: C_1  and  C_2
REMARK    2  A    between atoms: C_2  and  C_3
REMARK    3  A    between atoms: C_3  and  N_4
REMARK    4  A    between atoms: C_9  and  C_10
REMARK    5  A    between atoms: C_13  and  O_14
REMARK    6  A    between atoms: O_14  and  C_15
REMARK    7  A    between atoms: C_15  and  C_16
REMARK    8  A    between atoms: C_15  and  C_17
REMARK    9  A    between atoms: C_15  and  C_18
REMARK   10  A    between atoms: N_20  and  C_21
REMARK   11  A    between atoms: N_31  and  C_32
REMARK   12  A    between atoms: C_32  and  C_33
REMARK   13  A    between atoms: C_33  and  C_34
REMARK                            x       y       z     vdW  Elec       q    Type
REMARK                         _______ _______ _______ _____ _____    ______ ____
ROOT
ATOM      1  C   UNL     1       1.930   7.968  19.283  0.00  0.00    +0.000 A 
ATOM      2  C   UNL     1       2.403   6.901  20.052  0.00  0.00    +0.000 A 
ATOM      3  C   UNL     1       3.462   6.101  19.586  0.00  0.00    +0.000 A 
ATOM      4  C   UNL     1       4.068   6.346  18.350  0.00  0.00    +0.000 A 
ATOM      5  C   UNL     1       3.660   7.459  17.629  0.00  0.00    +0.000 A 
ATOM      6  C   UNL     1       2.581   8.236  18.072  0.00  0.00    +0.000 A 
ENDROOT
BRANCH   1  12
ATOM      7  N   UNL     1      -1.513  12.108  21.876  0.00  0.00    +0.000 N 
ATOM      8  C   UNL     1      -0.724  10.998  22.202  0.00  0.00    +0.000 A 
ATOM      9  O   UNL     1      -0.387  10.689  23.342  0.00  0.00    +0.000 OA
ATOM     10  C   UNL     1      -0.298  10.251  21.064  0.00  0.00    +0.000 A 
ATOM     11  N   UNL     1       0.575   9.194  21.028  0.00  0.00    +0.000 N 
ATOM     12  C   UNL     1       0.837   8.854  19.712  0.00  0.00    +0.000 A 
ATOM     13  C   UNL     1      -0.048   9.602  18.939  0.00  0.00    +0.000 A 
ATOM     14  C   UNL     1      -0.678  10.536  19.787  0.00  0.00    +0.000 A 
ATOM     15  N   UNL     1      -1.497  11.621  19.519  0.00  0.00    +0.000 N 
ATOM     16  C   UNL     1      -1.837  12.501  20.561  0.00  0.00    +0.000 A 
ATOM     17  O   UNL     1      -2.389  13.581  20.327  0.00  0.00    +0.000 OA
ATOM     18  H   UNL     1       1.046   8.821  21.842  0.00  0.00    +0.000 HD
BRANCH   7  19
ATOM     19  C   UNL     1      -1.867  13.026  22.958  0.00  0.00    +0.000 C 
BRANCH  19  21
ATOM     20  C   UNL     1      -1.493  15.438  23.726  0.00  0.00    +0.000 C 
ATOM     21  C   UNL     1      -0.859  14.157  23.211  0.00  0.00    +0.000 C 
ENDBRANCH  19  21
ENDBRANCH   7  19
BRANCH  15  22
ATOM     22  C   UNL     1      -1.903  11.959  18.153  0.00  0.00    +0.000 C 
BRANCH  22  23
ATOM     23  C   UNL     1      -3.304  11.452  17.803  0.00  0.00    +0.000 C 
ATOM     24  C   UNL     1      -3.257  10.028  17.263  0.00  0.00    +0.000 C 
ENDBRANCH  22  23
ENDBRANCH  15  22
ENDBRANCH   1  12
BRANCH   4  25
ATOM     25  O   UNL     1       5.034   5.453  17.983  0.00  0.00    +0.000 OA
BRANCH  25  26
ATOM     26  C   UNL     1       6.404   5.848  17.754  0.00  0.00    +0.000 C 
ATOM     27  C   UNL     1       6.623   7.344  17.438  0.00  0.00    +0.000 C 
ATOM     28  C   UNL     1       7.298   5.354  18.897  0.00  0.00    +0.000 C 
BRANCH  26  29
ATOM     29  C   UNL     1       6.899   5.099  16.476  0.00  0.00    +0.000 C 
ATOM     30  O   UNL     1       7.826   4.296  16.548  0.00  0.00    +0.000 OA
ATOM     31  N   UNL     1       6.185   5.376  15.321  0.00  0.00    +0.000 N 
ATOM     32  H   UNL     1       5.552   6.168  15.376  0.00  0.00    +0.000 HD
BRANCH  31  33
ATOM     33  C   UNL     1       6.423   4.809  14.046  0.00  0.00    +0.000 A 
ATOM     34  C   UNL     1       5.683   3.739  13.533  0.00  0.00    +0.000 A 
ATOM     35  C   UNL     1       5.984   3.186  12.286  0.00  0.00    +0.000 A 
ATOM     36  C   UNL     1       7.029   3.703  11.530  0.00  0.00    +0.000 A 
ATOM     37  C   UNL     1       7.765   4.787  12.019  0.00  0.00    +0.000 A 
ATOM     38  C   UNL     1       7.455   5.341  13.265  0.00  0.00    +0.000 A 
ENDBRANCH  31  33
ENDBRANCH  26  29
ENDBRANCH  25  26
ENDBRANCH   4  25
TORSDOF 9
ENDMDL
MODEL 8
REMARK VINA RESULT:      -8.1      2.163     10.082
REMARK  Name = 
REMARK  13 active torsions:
REMARK  status: ('A' for Active; 'I' for Inactive)
REMARK    1  A    between atoms: C_1  and  C_2
REMARK    2  A    between atoms: C_2  and  C_3
REMARK    3  A    between atoms: C_3  and  N_4
REMARK    4  A    between atoms: C_9  and  C_10
REMARK    5  A    between atoms: C_13  and  O_14
REMARK    6  A    between atoms: O_14  and  C_15
REMARK    7  A    between atoms: C_15  and  C_16
REMARK    8  A    between atoms: C_15  and  C_17
REMARK    9  A    between atoms: C_15  and  C_18
REMARK   10  A    between atoms: N_20  and  C_21
REMARK   11  A    between atoms: N_31  and  C_32
REMARK   12  A    between atoms: C_32  and  C_33
REMARK   13  A    between atoms: C_33  and  C_34
REMARK                            x       y       z     vdW  Elec       q    Type
REMARK                         _______ _______ _______ _____ _____    ______ ____
ROOT
ATOM      1  C   UNL     1       1.630   8.716  18.747  0.00  0.00    +0.000 A 
ATOM      2  C   UNL     1       2.504   8.561  17.668  0.00  0.00    +0.000 A 
ATOM      3  C   UNL     1       3.476   7.544  17.678  0.00  0.00    +0.000 A 
ATOM      4  C   UNL     1       3.596   6.664  18.758  0.00  0.00    +0.000 A 
ATOM      5  C   UNL     1       2.669   6.760  19.787  0.00  0.00    +0.000 A 
ATOM      6  C   UNL     1       1.725   7.795  19.799  0.00  0.00    +0.000 A 
ENDROOT
BRANCH   1  12
ATOM      7  N   UNL     1      -3.431  11.876  18.414  0.00  0.00    +0.000 N 
ATOM      8  C   UNL     1      -2.545  11.165  17.597  0.00  0.00    +0.000 A 
ATOM      9  O   UNL     1      -2.766  10.851  16.431  0.00  0.00    +0.000 OA
ATOM     10  C   UNL     1      -1.340  10.788  18.261  0.00  0.00    +0.000 A 
ATOM     11  N   UNL     1      -0.331   9.988  17.788  0.00  0.00    +0.000 N 
ATOM     12  C   UNL     1       0.583   9.747  18.800  0.00  0.00    +0.000 A 
ATOM     13  C   UNL     1       0.214  10.578  19.855  0.00  0.00    +0.000 A 
ATOM     14  C   UNL     1      -1.037  11.145  19.541  0.00  0.00    +0.000 A 
ATOM     15  N   UNL     1      -1.931  11.889  20.296  0.00  0.00    +0.000 N 
ATOM     16  C   UNL     1      -3.205  12.171  19.775  0.00  0.00    +0.000 A 
ATOM     17  O   UNL     1      -4.093  12.648  20.488  0.00  0.00    +0.000 OA
ATOM     18  H   UNL     1      -0.339   9.545  16.879  0.00  0.00    +0.000 HD
BRANCH   7  19
ATOM     19  C   UNL     1      -4.759  12.170  17.876  0.00  0.00    +0.000 C 
BRANCH  19  21
ATOM     20  C   UNL     1      -6.826  11.106  18.946  0.00  0.00    +0.000 C 
ATOM     21  C   UNL     1      -5.744  10.991  17.886  0.00  0.00    +0.000 C 
ENDBRANCH  19  21
ENDBRANCH   7  19
BRANCH  15  22
ATOM     22  C   UNL     1      -1.637  12.269  21.679  0.00  0.00    +0.000 C 
BRANCH  22  23
ATOM     23  C   UNL     1      -0.787  13.537  21.784  0.00  0.00    +0.000 C 
ATOM     24  C   UNL     1      -1.034  14.261  23.101  0.00  0.00    +0.000 C 
ENDBRANCH  22  23
ENDBRANCH  15  22
ENDBRANCH   1  12
BRANCH   4  25
ATOM     25  O   UNL     1       4.624   5.769  18.676  0.00  0.00    +0.000 OA
BRANCH  25  26
ATOM     26  C   UNL     1       4.472   4.473  18.057  0.00  0.00    +0.000 C 
ATOM     27  C   UNL     1       4.750   3.261  18.972  0.00  0.00    +0.000 C 
ATOM     28  C   UNL     1       3.114   4.377  17.352  0.00  0.00    +0.000 C 
BRANCH  26  29
ATOM     29  C   UNL     1       5.544   4.367  16.926  0.00  0.00    +0.000 C 
ATOM     30  O   UNL     1       6.726   4.181  17.207  0.00  0.00    +0.000 OA
ATOM     31  N   UNL     1       5.044   4.444  15.635  0.00  0.00    +0.000 N 
ATOM     32  H   UNL     1       4.080   4.753  15.556  0.00  0.00    +0.000 HD
BRANCH  31  33
ATOM     33  C   UNL     1       5.807   4.352  14.447  0.00  0.00    +0.000 A 
ATOM     34  C   UNL     1       6.994   5.063  14.242  0.00  0.00    +0.000 A 
ATOM     35  C   UNL     1       7.690   4.971  13.034  0.00  0.00    +0.000 A 
ATOM     36  C   UNL     1       7.209   4.159  12.014  0.00  0.00    +0.000 A 
ATOM     37  C   UNL     1       6.035   3.425  12.211  0.00  0.00    +0.000 A 
ATOM     38  C   UNL     1       5.347   3.515  13.425  0.00  0.00    +0.000 A 
ENDBRANCH  31  33
ENDBRANCH  26  29
ENDBRANCH  25  26
ENDBRANCH   4  25
TORSDOF 9
ENDMDL
MODEL 9
REMARK VINA RESULT:      -8.0      2.410      3.295
REMARK  Name = 
REMARK  13 active torsions:
REMARK  status: ('A' for Active; 'I' for Inactive)
REMARK    1  A    between atoms: C_1  and  C_2
REMARK    2  A    between atoms: C_2  and  C_3
REMARK    3  A    between atoms: C_3  and  N_4
REMARK    4  A    between atoms: C_9  and  C_10
REMARK    5  A    between atoms: C_13  and  O_14
REMARK    6  A    between atoms: O_14  and  C_15
REMARK    7  A    between atoms: C_15  and  C_16
REMARK    8  A    between atoms: C_15  and  C_17
REMARK    9  A    between atoms: C_15  and  C_18
REMARK   10  A    between atoms: N_20  and  C_21
REMARK   11  A    between atoms: N_31  and  C_32
REMARK   12  A    between atoms: C_32  and  C_33
REMARK   13  A    between atoms: C_33  and  C_34
REMARK                            x       y       z     vdW  Elec       q    Type
REMARK                         _______ _______ _______ _____ _____    ______ ____
ROOT
ATOM      1  C   UNL     1       1.138   8.994  20.177  0.00  0.00    +0.000 A 
ATOM      2  C   UNL     1       0.261   8.981  21.267  0.00  0.00    +0.000 A 
ATOM      3  C   UNL     1      -0.334  10.173  21.718  0.00  0.00    +0.000 A 
ATOM      4  C   UNL     1      -0.070  11.398  21.095  0.00  0.00    +0.000 A 
ATOM      5  C   UNL     1       0.726  11.396  19.959  0.00  0.00    +0.000 A 
ATOM      6  C   UNL     1       1.351  10.218  19.530  0.00  0.00    +0.000 A 
ENDROOT
BRANCH   1  12
ATOM      7  N   UNL     1       4.881   4.949  17.869  0.00  0.00    +0.000 N 
ATOM      8  C   UNL     1       4.301   6.185  17.561  0.00  0.00    +0.000 A 
ATOM      9  O   UNL     1       4.645   6.907  16.629  0.00  0.00    +0.000 OA
ATOM     10  C   UNL     1       3.270   6.569  18.469  0.00  0.00    +0.000 A 
ATOM     11  N   UNL     1       2.595   7.762  18.522  0.00  0.00    +0.000 N 
ATOM     12  C   UNL     1       1.785   7.786  19.644  0.00  0.00    +0.000 A 
ATOM     13  C   UNL     1       1.831   6.501  20.178  0.00  0.00    +0.000 A 
ATOM     14  C   UNL     1       2.833   5.784  19.494  0.00  0.00    +0.000 A 
ATOM     15  N   UNL     1       3.411   4.547  19.732  0.00  0.00    +0.000 N 
ATOM     16  C   UNL     1       4.535   4.157  18.983  0.00  0.00    +0.000 A 
ATOM     17  O   UNL     1       5.196   3.164  19.301  0.00  0.00    +0.000 OA
ATOM     18  H   UNL     1       2.773   8.541  17.902  0.00  0.00    +0.000 HD
BRANCH   7  19
ATOM     19  C   UNL     1       6.053   4.540  17.094  0.00  0.00    +0.000 C 
BRANCH  19  21
ATOM     20  C   UNL     1       6.424   4.418  14.565  0.00  0.00    +0.000 C 
ATOM     21  C   UNL     1       5.745   3.809  15.780  0.00  0.00    +0.000 C 
ENDBRANCH  19  21
ENDBRANCH   7  19
BRANCH  15  22
ATOM     22  C   UNL     1       2.972   3.694  20.837  0.00  0.00    +0.000 C 
BRANCH  22  23
ATOM     23  C   UNL     1       2.121   2.508  20.377  0.00  0.00    +0.000 C 
ATOM     24  C   UNL     1       0.747   2.964  19.906  0.00  0.00    +0.000 C 
ENDBRANCH  22  23
ENDBRANCH  15  22
ENDBRANCH   1  12
BRANCH   4  25
ATOM     25  O   UNL     1      -0.654  12.488  21.674  0.00  0.00    +0.000 OA
BRANCH  25  26
ATOM     26  C   UNL     1      -1.706  13.235  21.027  0.00  0.00    +0.000 C 
ATOM     27  C   UNL     1      -2.229  12.640  19.702  0.00  0.00    +0.000 C 
ATOM     28  C   UNL     1      -2.834  13.535  22.021  0.00  0.00    +0.000 C 
BRANCH  26  29
ATOM     29  C   UNL     1      -1.114  14.625  20.627  0.00  0.00    +0.000 C 
ATOM     30  O   UNL     1      -1.030  15.525  21.459  0.00  0.00    +0.000 OA
ATOM     31  N   UNL     1      -0.663  14.715  19.320  0.00  0.00    +0.000 N 
ATOM     32  H   UNL     1      -0.935  13.952  18.708  0.00  0.00    +0.000 HD
BRANCH  31  33
ATOM     33  C   UNL     1      -0.068  15.855  18.728  0.00  0.00    +0.000 A 
ATOM     34  C   UNL     1      -0.808  16.921  18.205  0.00  0.00    +0.000 A 
ATOM     35  C   UNL     1      -0.176  18.006  17.593  0.00  0.00    +0.000 A 
ATOM     36  C   UNL     1       1.211  18.042  17.502  0.00  0.00    +0.000 A 
ATOM     37  C   UNL     1       1.966  16.995  18.039  0.00  0.00    +0.000 A 
ATOM     38  C   UNL     1       1.328  15.915  18.657  0.00  0.00    +0.000 A 
ENDBRANCH  31  33
ENDBRANCH  26  29
ENDBRANCH  25  26
ENDBRANCH   4  25
TORSDOF 9
ENDMDL
