MODEL 1
REMARK VINA RESULT:      -8.1      0.000      0.000
REMARK  Name = 
REMARK  5 active torsions:
REMARK  status: ('A' for Active; 'I' for Inactive)
REMARK    1  A    between atoms: C_5  and  C_6
REMARK    2  A    between atoms: C_8  and  C_9
REMARK    3  A    between atoms: C_9  and  N_10
REMARK    4  A    between atoms: C_14  and  C_15
REMARK    5  A    between atoms: C_15  and  N_16
REMARK                            x       y       z     vdW  Elec       q    Type
REMARK                         _______ _______ _______ _____ _____    ______ ____
ROOT
ATOM      1  C   UNL     1       5.633   4.495  16.361  0.00  0.00    +0.000 A 
ATOM      2  N   UNL     1       4.554   3.898  16.823  0.00  0.00    +0.000 NA
ATOM      3  C   UNL     1       4.726   3.881  18.188  0.00  0.00    +0.000 A 
ATOM      4  C   UNL     1       5.840   4.629  18.504  0.00  0.00    +0.000 A 
ATOM      5  O   UNL     1       6.441   5.012  17.337  0.00  0.00    +0.000 OA
ENDROOT
BRANCH   1  10
ATOM      6  F   UNL     1       7.549   4.195  11.113  0.00  0.00    +0.000 F 
ATOM      7  C   UNL     1       7.076   4.308  12.361  0.00  0.00    +0.000 A 
ATOM      8  C   UNL     1       5.959   3.574  12.733  0.00  0.00    +0.000 A 
ATOM      9  C   UNL     1       5.479   3.679  14.040  0.00  0.00    +0.000 A 
ATOM     10  C   UNL     1       6.113   4.514  14.983  0.00  0.00    +0.000 A 
ATOM     11  C   UNL     1       7.233   5.252  14.586  0.00  0.00    +0.000 A 
ATOM     12  C   UNL     1       7.706   5.142  13.278  0.00  0.00    +0.000 A 
ATOM     13  F   UNL     1       8.793   5.837  12.917  0.00  0.00    +0.000 F 
ENDBRANCH   1  10
BRANCH   3  14
ATOM     14  C   UNL     1       3.820   3.089  19.074  0.00  0.00    +0.000 C 
BRANCH  14  15
ATOM     15  N   UNL     1       3.211   3.854  20.191  0.00  0.00    +0.000 NA
ATOM     16  C   UNL     1       2.657   3.010  21.257  0.00  0.00    +0.000 C 
ATOM     17  C   UNL     1       1.171   2.901  20.985  0.00  0.00    +0.000 C 
ATOM     18  C   UNL     1       0.820   4.231  20.346  0.00  0.00    +0.000 C 
ATOM     19  C   UNL     1       2.138   4.793  19.781  0.00  0.00    +0.000 C 
BRANCH  19  20
ATOM     20  C   UNL     1       2.418   6.214  20.307  0.00  0.00    +0.000 C 
BRANCH  20  21
ATOM     21  N   UNL     1       2.383   7.216  19.261  0.00  0.00    +0.000 N 
ATOM     22  C   UNL     1       2.972   7.177  18.036  0.00  0.00    +0.000 A 
ATOM     23  N   UNL     1       2.670   8.261  17.362  0.00  0.00    +0.000 NA
ATOM     24  C   UNL     1       1.888   8.956  18.240  0.00  0.00    +0.000 A 
ATOM     25  N   UNL     1       1.683   8.359  19.417  0.00  0.00    +0.000 NA
ENDBRANCH  20  21
ENDBRANCH  19  20
ENDBRANCH  14  15
ENDBRANCH   3  14
TORSDOF 5
ENDMDL
MODEL 2
REMARK VINA RESULT:      -7.9      5.171      8.517
REMARK  Name = 
REMARK  5 active torsions:
REMARK  status: ('A' for Active; 'I' for Inactive)
REMARK    1  A    between atoms: C_5  and  C_6
REMARK    2  A    between atoms: C_8  and  C_9
REMARK    3  A    between atoms: C_9  and  N_10
REMARK    4  A    between atoms: C_14  and  C_15
REMARK    5  A    between atoms: C_15  and  N_16
REMARK                            x       y       z     vdW  Elec       q    Type
REMARK                         _______ _______ _______ _____ _____    ______ ____
ROOT
ATOM      1  C   UNL     1       1.473   8.244  20.541  0.00  0.00    +0.000 A 
ATOM      2  N   UNL     1       1.726   7.020  20.957  0.00  0.00    +0.000 NA
ATOM      3  C   UNL     1       2.234   6.378  19.851  0.00  0.00    +0.000 A 
ATOM      4  C   UNL     1       2.423   7.304  18.848  0.00  0.00    +0.000 A 
ATOM      5  O   UNL     1       1.920   8.501  19.273  0.00  0.00    +0.000 OA
ENDROOT
BRANCH   1  10
ATOM      6  F   UNL     1      -1.901  11.835  23.190  0.00  0.00    +0.000 F 
ATOM      7  C   UNL     1      -1.065  11.008  22.551  0.00  0.00    +0.000 A 
ATOM      8  C   UNL     1      -0.424  10.005  23.265  0.00  0.00    +0.000 A 
ATOM      9  C   UNL     1       0.434   9.132  22.592  0.00  0.00    +0.000 A 
ATOM     10  C   UNL     1       0.655   9.253  21.205  0.00  0.00    +0.000 A 
ATOM     11  C   UNL     1       0.007  10.277  20.505  0.00  0.00    +0.000 A 
ATOM     12  C   UNL     1      -0.848  11.145  21.184  0.00  0.00    +0.000 A 
ATOM     13  F   UNL     1      -1.480  12.107  20.498  0.00  0.00    +0.000 F 
ENDBRANCH   1  10
BRANCH   3  14
ATOM     14  C   UNL     1       2.444   4.898  19.843  0.00  0.00    +0.000 C 
BRANCH  14  15
ATOM     15  N   UNL     1       2.448   4.273  18.497  0.00  0.00    +0.000 NA
ATOM     16  C   UNL     1       1.316   3.368  18.259  0.00  0.00    +0.000 C 
ATOM     17  C   UNL     1       1.828   1.967  18.526  0.00  0.00    +0.000 C 
ATOM     18  C   UNL     1       3.287   2.030  18.117  0.00  0.00    +0.000 C 
ATOM     19  C   UNL     1       3.682   3.517  18.173  0.00  0.00    +0.000 C 
BRANCH  19  20
ATOM     20  C   UNL     1       4.285   3.992  16.837  0.00  0.00    +0.000 C 
BRANCH  20  21
ATOM     21  N   UNL     1       5.710   4.239  16.921  0.00  0.00    +0.000 N 
ATOM     22  C   UNL     1       6.624   4.256  15.914  0.00  0.00    +0.000 A 
ATOM     23  N   UNL     1       7.807   4.558  16.392  0.00  0.00    +0.000 NA
ATOM     24  C   UNL     1       7.566   4.708  17.727  0.00  0.00    +0.000 A 
ATOM     25  N   UNL     1       6.298   4.522  18.102  0.00  0.00    +0.000 NA
ENDBRANCH  20  21
ENDBRANCH  19  20
ENDBRANCH  14  15
ENDBRANCH   3  14
TORSDOF 5
ENDMDL
MODEL 3
REMARK VINA RESULT:      -7.7      0.613      1.382
REMARK  Name = 
REMARK  5 active torsions:
REMARK  status: ('A' for Active; 'I' for Inactive)
REMARK    1  A    between atoms: C_5  and  C_6
REMARK    2  A    between atoms: C_8  and  C_9
REMARK    3  A    between atoms: C_9  and  N_10
REMARK    4  A    between atoms: C_14  and  C_15
REMARK    5  A    between atoms: C_15  and  N_16
REMARK                            x       y       z     vdW  Elec       q    Type
REMARK                         _______ _______ _______ _____ _____    ______ ____
ROOT
ATOM      1  C   UNL     1       5.431   4.407  16.116  0.00  0.00    +0.000 A 
ATOM      2  N   UNL     1       4.495   3.647  16.646  0.00  0.00    +0.000 NA
ATOM      3  C   UNL     1       4.553   3.916  17.994  0.00  0.00    +0.000 A 
ATOM      4  C   UNL     1       5.422   4.966  18.200  0.00  0.00    +0.000 A 
ATOM      5  O   UNL     1       6.006   5.277  17.004  0.00  0.00    +0.000 OA
ENDROOT
BRANCH   1  10
ATOM      6  F   UNL     1       7.577   4.386  10.950  0.00  0.00    +0.000 F 
ATOM      7  C   UNL     1       7.076   4.349  12.191  0.00  0.00    +0.000 A 
ATOM      8  C   UNL     1       7.701   5.072  13.197  0.00  0.00    +0.000 A 
ATOM      9  C   UNL     1       7.166   5.047  14.487  0.00  0.00    +0.000 A 
ATOM     10  C   UNL     1       6.004   4.303  14.779  0.00  0.00    +0.000 A 
ATOM     11  C   UNL     1       5.394   3.574  13.752  0.00  0.00    +0.000 A 
ATOM     12  C   UNL     1       5.935   3.604  12.467  0.00  0.00    +0.000 A 
ATOM     13  F   UNL     1       5.328   2.920  11.488  0.00  0.00    +0.000 F 
ENDBRANCH   1  10
BRANCH   3  14
ATOM     14  C   UNL     1       3.796   3.090  18.983  0.00  0.00    +0.000 C 
BRANCH  14  15
ATOM     15  N   UNL     1       3.253   3.841  20.142  0.00  0.00    +0.000 NA
ATOM     16  C   UNL     1       2.722   2.985  21.210  0.00  0.00    +0.000 C 
ATOM     17  C   UNL     1       1.224   2.919  20.998  0.00  0.00    +0.000 C 
ATOM     18  C   UNL     1       0.881   4.272  20.405  0.00  0.00    +0.000 C 
ATOM     19  C   UNL     1       2.188   4.816  19.799  0.00  0.00    +0.000 C 
BRANCH  19  20
ATOM     20  C   UNL     1       2.525   6.216  20.346  0.00  0.00    +0.000 C 
BRANCH  20  21
ATOM     21  N   UNL     1       2.325   7.264  19.366  0.00  0.00    +0.000 N 
ATOM     22  C   UNL     1       2.779   7.318  18.085  0.00  0.00    +0.000 A 
ATOM     23  N   UNL     1       2.350   8.415  17.507  0.00  0.00    +0.000 NA
ATOM     24  C   UNL     1       1.634   9.020  18.499  0.00  0.00    +0.000 A 
ATOM     25  N   UNL     1       1.589   8.356  19.657  0.00  0.00    +0.000 NA
ENDBRANCH  20  21
ENDBRANCH  19  20
ENDBRANCH  14  15
ENDBRANCH   3  14
TORSDOF 5
ENDMDL
MODEL 4
REMARK VINA RESULT:      -7.5      5.155      8.378
REMARK  Name = 
REMARK  5 active torsions:
REMARK  status: ('A' for Active; 'I' for Inactive)
REMARK    1  A    between atoms: C_5  and  C_6
REMARK    2  A    between atoms: C_8  and  C_9
REMARK    3  A    between atoms: C_9  and  N_10
REMARK    4  A    between atoms: C_14  and  C_15
REMARK    5  A    between atoms: C_15  and  N_16
REMARK                            x       y       z     vdW  Elec       q    Type
REMARK                         _______ _______ _______ _____ _____    ______ ____
ROOT
ATOM      1  C   UNL     1       1.466   8.711  19.770  0.00  0.00    +0.000 A 
ATOM      2  N   UNL     1       1.899   7.579  20.288  0.00  0.00    +0.000 NA
ATOM      3  C   UNL     1       2.520   6.936  19.242  0.00  0.00    +0.000 A 
ATOM      4  C   UNL     1       2.581   7.796  18.166  0.00  0.00    +0.000 A 
ATOM      5  O   UNL     1       1.890   8.931  18.487  0.00  0.00    +0.000 OA
ENDROOT
BRANCH   1  10
ATOM      6  F   UNL     1      -2.051  12.526  21.863  0.00  0.00    +0.000 F 
ATOM      7  C   UNL     1      -1.239  11.582  21.369  0.00  0.00    +0.000 A 
ATOM      8  C   UNL     1      -0.969  11.562  20.008  0.00  0.00    +0.000 A 
ATOM      9  C   UNL     1      -0.108  10.588  19.499  0.00  0.00    +0.000 A 
ATOM     10  C   UNL     1       0.490   9.630  20.344  0.00  0.00    +0.000 A 
ATOM     11  C   UNL     1       0.197   9.662  21.712  0.00  0.00    +0.000 A 
ATOM     12  C   UNL     1      -0.664  10.637  22.213  0.00  0.00    +0.000 A 
ATOM     13  F   UNL     1      -0.919  10.670  23.528  0.00  0.00    +0.000 F 
ENDBRANCH   1  10
BRANCH   3  14
ATOM     14  C   UNL     1       2.958   5.512  19.358  0.00  0.00    +0.000 C 
BRANCH  14  15
ATOM     15  N   UNL     1       2.888   4.731  18.098  0.00  0.00    +0.000 NA
ATOM     16  C   UNL     1       1.564   4.156  17.827  0.00  0.00    +0.000 C 
ATOM     17  C   UNL     1       1.619   2.719  18.303  0.00  0.00    +0.000 C 
ATOM     18  C   UNL     1       3.060   2.312  18.067  0.00  0.00    +0.000 C 
ATOM     19  C   UNL     1       3.869   3.621  18.007  0.00  0.00    +0.000 C 
BRANCH  19  20
ATOM     20  C   UNL     1       4.692   3.718  16.708  0.00  0.00    +0.000 C 
BRANCH  20  21
ATOM     21  N   UNL     1       5.834   4.602  16.833  0.00  0.00    +0.000 N 
ATOM     22  C   UNL     1       6.369   5.425  15.892  0.00  0.00    +0.000 A 
ATOM     23  N   UNL     1       7.374   6.093  16.407  0.00  0.00    +0.000 NA
ATOM     24  C   UNL     1       7.426   5.626  17.688  0.00  0.00    +0.000 A 
ATOM     25  N   UNL     1       6.505   4.710  17.998  0.00  0.00    +0.000 NA
ENDBRANCH  20  21
ENDBRANCH  19  20
ENDBRANCH  14  15
ENDBRANCH   3  14
TORSDOF 5
ENDMDL
MODEL 5
REMARK VINA RESULT:      -7.5      5.013      8.557
REMARK  Name = 
REMARK  5 active torsions:
REMARK  status: ('A' for Active; 'I' for Inactive)
REMARK    1  A    between atoms: C_5  and  C_6
REMARK    2  A    between atoms: C_8  and  C_9
REMARK    3  A    between atoms: C_9  and  N_10
REMARK    4  A    between atoms: C_14  and  C_15
REMARK    5  A    between atoms: C_15  and  N_16
REMARK                            x       y       z     vdW  Elec       q    Type
REMARK                         _______ _______ _______ _____ _____    ______ ____
ROOT
ATOM      1  C   UNL     1       1.440   7.996  20.138  0.00  0.00    +0.000 A 
ATOM      2  N   UNL     1       1.978   8.141  18.944  0.00  0.00    +0.000 NA
ATOM      3  C   UNL     1       2.758   7.020  18.779  0.00  0.00    +0.000 A 
ATOM      4  C   UNL     1       2.522   6.156  19.826  0.00  0.00    +0.000 A 
ATOM      5  O   UNL     1       1.692   6.781  20.715  0.00  0.00    +0.000 OA
ENDROOT
BRANCH   1  10
ATOM      6  F   UNL     1      -1.369  11.646  23.314  0.00  0.00    +0.000 F 
ATOM      7  C   UNL     1      -0.665  10.802  22.548  0.00  0.00    +0.000 A 
ATOM      8  C   UNL     1      -0.059   9.700  23.133  0.00  0.00    +0.000 A 
ATOM      9  C   UNL     1       0.660   8.812  22.329  0.00  0.00    +0.000 A 
ATOM     10  C   UNL     1       0.774   9.017  20.939  0.00  0.00    +0.000 A 
ATOM     11  C   UNL     1       0.162  10.140  20.371  0.00  0.00    +0.000 A 
ATOM     12  C   UNL     1      -0.553  11.023  21.180  0.00  0.00    +0.000 A 
ATOM     13  F   UNL     1      -1.153  12.082  20.620  0.00  0.00    +0.000 F 
ENDBRANCH   1  10
BRANCH   3  14
ATOM     14  C   UNL     1       3.716   6.904  17.637  0.00  0.00    +0.000 C 
BRANCH  14  15
ATOM     15  N   UNL     1       4.673   5.774  17.734  0.00  0.00    +0.000 NA
ATOM     16  C   UNL     1       6.032   6.106  17.287  0.00  0.00    +0.000 C 
ATOM     17  C   UNL     1       6.142   5.617  15.858  0.00  0.00    +0.000 C 
ATOM     18  C   UNL     1       5.243   4.396  15.822  0.00  0.00    +0.000 C 
ATOM     19  C   UNL     1       4.261   4.553  16.997  0.00  0.00    +0.000 C 
BRANCH  19  20
ATOM     20  C   UNL     1       4.281   3.319  17.920  0.00  0.00    +0.000 C 
BRANCH  20  21
ATOM     21  N   UNL     1       2.974   3.000  18.457  0.00  0.00    +0.000 N 
ATOM     22  C   UNL     1       2.666   2.499  19.683  0.00  0.00    +0.000 A 
ATOM     23  N   UNL     1       1.365   2.386  19.803  0.00  0.00    +0.000 NA
ATOM     24  C   UNL     1       0.909   2.827  18.594  0.00  0.00    +0.000 A 
ATOM     25  N   UNL     1       1.855   3.213  17.735  0.00  0.00    +0.000 NA
ENDBRANCH  20  21
ENDBRANCH  19  20
ENDBRANCH  14  15
ENDBRANCH   3  14
TORSDOF 5
ENDMDL
MODEL 6
REMARK VINA RESULT:      -7.4      4.562      7.790
REMARK  Name = 
REMARK  5 active torsions:
REMARK  status: ('A' for Active; 'I' for Inactive)
REMARK    1  A    between atoms: C_5  and  C_6
REMARK    2  A    between atoms: C_8  and  C_9
REMARK    3  A    between atoms: C_9  and  N_10
REMARK    4  A    between atoms: C_14  and  C_15
REMARK    5  A    between atoms: C_15  and  N_16
REMARK                            x       y       z     vdW  Elec       q    Type
REMARK                         _______ _______ _______ _____ _____    ______ ____
ROOT
ATOM      1  C   UNL     1       1.794   9.175  18.575  0.00  0.00    +0.000 A 
ATOM      2  N   UNL     1       1.877   8.316  19.571  0.00  0.00    +0.000 NA
ATOM      3  C   UNL     1       2.434   7.190  19.011  0.00  0.00    +0.000 A 
ATOM      4  C   UNL     1       2.823   7.482  17.721  0.00  0.00    +0.000 A 
ATOM      5  O   UNL     1       2.399   8.747  17.424  0.00  0.00    +0.000 OA
ENDROOT
BRANCH   1  10
ATOM      6  F   UNL     1      -1.051  13.989  18.745  0.00  0.00    +0.000 F 
ATOM      7  C   UNL     1      -0.382  12.832  18.663  0.00  0.00    +0.000 A 
ATOM      8  C   UNL     1       1.006  12.847  18.662  0.00  0.00    +0.000 A 
ATOM      9  C   UNL     1       1.700  11.638  18.594  0.00  0.00    +0.000 A 
ATOM     10  C   UNL     1       1.015  10.407  18.530  0.00  0.00    +0.000 A 
ATOM     11  C   UNL     1      -0.385  10.414  18.523  0.00  0.00    +0.000 A 
ATOM     12  C   UNL     1      -1.071  11.626  18.590  0.00  0.00    +0.000 A 
ATOM     13  F   UNL     1      -2.411  11.617  18.605  0.00  0.00    +0.000 F 
ENDBRANCH   1  10
BRANCH   3  14
ATOM     14  C   UNL     1       2.495   5.900  19.762  0.00  0.00    +0.000 C 
BRANCH  14  15
ATOM     15  N   UNL     1       2.473   4.681  18.917  0.00  0.00    +0.000 NA
ATOM     16  C   UNL     1       1.364   3.767  19.219  0.00  0.00    +0.000 C 
ATOM     17  C   UNL     1       1.930   2.698  20.132  0.00  0.00    +0.000 C 
ATOM     18  C   UNL     1       3.372   2.562  19.681  0.00  0.00    +0.000 C 
ATOM     19  C   UNL     1       3.720   3.878  18.962  0.00  0.00    +0.000 C 
BRANCH  19  20
ATOM     20  C   UNL     1       4.261   3.620  17.542  0.00  0.00    +0.000 C 
BRANCH  20  21
ATOM     21  N   UNL     1       5.626   4.075  17.372  0.00  0.00    +0.000 N 
ATOM     22  C   UNL     1       6.308   4.277  16.213  0.00  0.00    +0.000 A 
ATOM     23  N   UNL     1       7.510   4.732  16.478  0.00  0.00    +0.000 NA
ATOM     24  C   UNL     1       7.522   4.781  17.842  0.00  0.00    +0.000 A 
ATOM     25  N   UNL     1       6.393   4.388  18.436  0.00  0.00    +0.000 NA
ENDBRANCH  20  21
ENDBRANCH  19  20
ENDBRANCH  14  15
ENDBRANCH   3  14
TORSDOF 5
ENDMDL
MODEL 7
REMARK VINA RESULT:      -7.4      5.058      8.598
REMARK  Name = 
REMARK  5 active torsions:
REMARK  status: ('A' for Active; 'I' for Inactive)
REMARK    1  A    between atoms: C_5  and  C_6
REMARK    2  A    between atoms: C_8  and  C_9
REMARK    3  A    between atoms: C_9  and  N_10
REMARK    4  A    between atoms: C_14  and  C_15
REMARK    5  A    between atoms: C_15  and  N_16
REMARK                            x       y       z     vdW  Elec       q    Type
REMARK                         _______ _______ _______ _____ _____    ______ ____
ROOT
ATOM      1  C   UNL     1       1.560   8.745  19.641  0.00  0.00    +0.000 A 
ATOM      2  N   UNL     1       1.993   7.502  19.595  0.00  0.00    +0.000 NA
ATOM      3  C   UNL     1       2.420   7.332  18.299  0.00  0.00    +0.000 A 
ATOM      4  C   UNL     1       2.379   8.551  17.655  0.00  0.00    +0.000 A 
ATOM      5  O   UNL     1       1.810   9.461  18.501  0.00  0.00    +0.000 OA
ENDROOT
BRANCH   1  10
ATOM      6  F   UNL     1      -1.433  11.416  23.541  0.00  0.00    +0.000 F 
ATOM      7  C   UNL     1      -0.744  10.742  22.611  0.00  0.00    +0.000 A 
ATOM      8  C   UNL     1      -0.813  11.149  21.287  0.00  0.00    +0.000 A 
ATOM      9  C   UNL     1      -0.078  10.456  20.322  0.00  0.00    +0.000 A 
ATOM     10  C   UNL     1       0.731   9.356  20.674  0.00  0.00    +0.000 A 
ATOM     11  C   UNL     1       0.779   8.956  22.014  0.00  0.00    +0.000 A 
ATOM     12  C   UNL     1       0.042   9.653  22.971  0.00  0.00    +0.000 A 
ATOM     13  F   UNL     1       0.115   9.273  24.254  0.00  0.00    +0.000 F 
ENDBRANCH   1  10
BRANCH   3  14
ATOM     14  C   UNL     1       2.785   5.982  17.773  0.00  0.00    +0.000 C 
BRANCH  14  15
ATOM     15  N   UNL     1       3.974   5.362  18.408  0.00  0.00    +0.000 NA
ATOM     16  C   UNL     1       5.231   6.069  18.135  0.00  0.00    +0.000 C 
ATOM     17  C   UNL     1       5.895   5.331  16.990  0.00  0.00    +0.000 C 
ATOM     18  C   UNL     1       5.469   3.889  17.192  0.00  0.00    +0.000 C 
ATOM     19  C   UNL     1       4.192   3.938  18.051  0.00  0.00    +0.000 C 
BRANCH  19  20
ATOM     20  C   UNL     1       4.326   3.066  19.314  0.00  0.00    +0.000 C 
BRANCH  20  21
ATOM     21  N   UNL     1       3.068   2.896  20.014  0.00  0.00    +0.000 N 
ATOM     22  C   UNL     1       2.855   2.810  21.354  0.00  0.00    +0.000 A 
ATOM     23  N   UNL     1       1.570   2.701  21.594  0.00  0.00    +0.000 NA
ATOM     24  C   UNL     1       1.026   2.711  20.341  0.00  0.00    +0.000 A 
ATOM     25  N   UNL     1       1.902   2.828  19.340  0.00  0.00    +0.000 NA
ENDBRANCH  20  21
ENDBRANCH  19  20
ENDBRANCH  14  15
ENDBRANCH   3  14
TORSDOF 5
ENDMDL
MODEL 8
REMARK VINA RESULT:      -7.4      4.842      8.064
REMARK  Name = 
REMARK  5 active torsions:
REMARK  status: ('A' for Active; 'I' for Inactive)
REMARK    1  A    between atoms: C_5  and  C_6
REMARK    2  A    between atoms: C_8  and  C_9
REMARK    3  A    between atoms: C_9  and  N_10
REMARK    4  A    between atoms: C_14  and  C_15
REMARK    5  A    between atoms: C_15  and  N_16
REMARK                            x       y       z     vdW  Elec       q    Type
REMARK                         _______ _______ _______ _____ _____    ______ ____
ROOT
ATOM      1  C   UNL     1       1.396   9.178  18.681  0.00  0.00    +0.000 A 
ATOM      2  N   UNL     1       1.676   8.128  19.427  0.00  0.00    +0.000 NA
ATOM      3  C   UNL     1       2.543   7.383  18.662  0.00  0.00    +0.000 A 
ATOM      4  C   UNL     1       2.883   8.109  17.541  0.00  0.00    +0.000 A 
ATOM      5  O   UNL     1       2.138   9.255  17.533  0.00  0.00    +0.000 OA
ENDROOT
BRANCH   1  10
ATOM      6  F   UNL     1      -2.850  12.667  19.728  0.00  0.00    +0.000 F 
ATOM      7  C   UNL     1      -1.823  11.856  19.443  0.00  0.00    +0.000 A 
ATOM      8  C   UNL     1      -0.722  11.833  20.287  0.00  0.00    +0.000 A 
ATOM      9  C   UNL     1       0.341  10.974  19.998  0.00  0.00    +0.000 A 
ATOM     10  C   UNL     1       0.309  10.132  18.867  0.00  0.00    +0.000 A 
ATOM     11  C   UNL     1      -0.807  10.177  18.024  0.00  0.00    +0.000 A 
ATOM     12  C   UNL     1      -1.863  11.038  18.319  0.00  0.00    +0.000 A 
ATOM     13  F   UNL     1      -2.936  11.056  17.516  0.00  0.00    +0.000 F 
ENDBRANCH   1  10
BRANCH   3  14
ATOM     14  C   UNL     1       2.930   5.995  19.060  0.00  0.00    +0.000 C 
BRANCH  14  15
ATOM     15  N   UNL     1       2.921   5.001  17.958  0.00  0.00    +0.000 NA
ATOM     16  C   UNL     1       1.596   4.430  17.684  0.00  0.00    +0.000 C 
ATOM     17  C   UNL     1       1.547   3.102  18.411  0.00  0.00    +0.000 C 
ATOM     18  C   UNL     1       2.982   2.612  18.372  0.00  0.00    +0.000 C 
ATOM     19  C   UNL     1       3.853   3.862  18.148  0.00  0.00    +0.000 C 
BRANCH  19  20
ATOM     20  C   UNL     1       4.777   3.696  16.926  0.00  0.00    +0.000 C 
BRANCH  20  21
ATOM     21  N   UNL     1       5.876   4.640  16.922  0.00  0.00    +0.000 N 
ATOM     22  C   UNL     1       6.444   5.267  15.858  0.00  0.00    +0.000 A 
ATOM     23  N   UNL     1       7.388   6.079  16.272  0.00  0.00    +0.000 NA
ATOM     24  C   UNL     1       7.369   5.901  17.625  0.00  0.00    +0.000 A 
ATOM     25  N   UNL     1       6.462   5.030  18.073  0.00  0.00    +0.000 NA
ENDBRANCH  20  21
ENDBRANCH  19  20
ENDBRANCH  14  15
ENDBRANCH   3  14
TORSDOF 5
ENDMDL
MODEL 9
REMARK VINA RESULT:      -7.3      4.780      8.108
REMARK  Name = 
REMARK  5 active torsions:
REMARK  status: ('A' for Active; 'I' for Inactive)
REMARK    1  A    between atoms: C_5  and  C_6
REMARK    2  A    between atoms: C_8  and  C_9
REMARK    3  A    between atoms: C_9  and  N_10
REMARK    4  A    between atoms: C_14  and  C_15
REMARK    5  A    between atoms: C_15  and  N_16
REMARK                            x       y       z     vdW  Elec       q    Type
REMARK                         _______ _______ _______ _____ _____    ______ ____
ROOT
ATOM      1  C   UNL     1       1.273   9.179  18.682  0.00  0.00    +0.000 A 
ATOM      2  N   UNL     1       1.686   8.302  19.575  0.00  0.00    +0.000 NA
ATOM      3  C   UNL     1       2.521   7.463  18.874  0.00  0.00    +0.000 A 
ATOM      4  C   UNL     1       2.709   7.979  17.609  0.00  0.00    +0.000 A 
ATOM      5  O   UNL     1       1.897   9.069  17.469  0.00  0.00    +0.000 OA
ENDROOT
BRANCH   1  10
ATOM      6  F   UNL     1      -3.118  12.554  19.471  0.00  0.00    +0.000 F 
ATOM      7  C   UNL     1      -2.055  11.772  19.248  0.00  0.00    +0.000 A 
ATOM      8  C   UNL     1      -1.005  11.779  20.155  0.00  0.00    +0.000 A 
ATOM      9  C   UNL     1       0.095  10.948  19.931  0.00  0.00    +0.000 A 
ATOM     10  C   UNL     1       0.152  10.104  18.802  0.00  0.00    +0.000 A 
ATOM     11  C   UNL     1      -0.914  10.119  17.895  0.00  0.00    +0.000 A 
ATOM     12  C   UNL     1      -2.008  10.952  18.126  0.00  0.00    +0.000 A 
ATOM     13  F   UNL     1      -3.032  10.939  17.261  0.00  0.00    +0.000 F 
ENDBRANCH   1  10
BRANCH   3  14
ATOM     14  C   UNL     1       3.028   6.193  19.478  0.00  0.00    +0.000 C 
BRANCH  14  15
ATOM     15  N   UNL     1       2.798   4.976  18.661  0.00  0.00    +0.000 NA
ATOM     16  C   UNL     1       1.828   4.041  19.247  0.00  0.00    +0.000 C 
ATOM     17  C   UNL     1       2.638   2.981  19.964  0.00  0.00    +0.000 C 
ATOM     18  C   UNL     1       3.906   2.872  19.139  0.00  0.00    +0.000 C 
ATOM     19  C   UNL     1       4.024   4.195  18.361  0.00  0.00    +0.000 C 
BRANCH  19  20
ATOM     20  C   UNL     1       4.164   3.950  16.846  0.00  0.00    +0.000 C 
BRANCH  20  21
ATOM     21  N   UNL     1       5.376   4.521  16.295  0.00  0.00    +0.000 N 
ATOM     22  C   UNL     1       5.997   5.679  16.646  0.00  0.00    +0.000 A 
ATOM     23  N   UNL     1       7.093   5.827  15.940  0.00  0.00    +0.000 NA
ATOM     24  C   UNL     1       7.094   4.718  15.145  0.00  0.00    +0.000 A 
ATOM     25  N   UNL     1       6.063   3.887  15.323  0.00  0.00    +0.000 NA
ENDBRANCH  20  21
ENDBRANCH  19  20
ENDBRANCH  14  15
ENDBRANCH   3  14
TORSDOF 5
ENDMDL
