MODEL 1
REMARK VINA RESULT:      -8.1      0.000      0.000
REMARK  Name = 
REMARK  3 active torsions:
REMARK  status: ('A' for Active; 'I' for Inactive)
REMARK    1  A    between atoms: C_2  and  C_3
REMARK    2  A    between atoms: C_4  and  C_5
REMARK    3  A    between atoms: N_12  and  N_13
REMARK                            x       y       z     vdW  Elec       q    Type
REMARK                         _______ _______ _______ _____ _____    ______ ____
ROOT
ATOM      1  O   UNL     1       8.062   6.648  18.788  0.00  0.00    +0.000 OA
ATOM      2  C   UNL     1       7.743   7.459  17.923  0.00  0.00    +0.000 C 
ATOM      3  N   UNL     1       6.887   7.201  16.868  0.00  0.00    +0.000 N 
ATOM      4  H   UNL     1       6.523   7.950  16.281  0.00  0.00    +0.000 HD
ENDROOT
BRANCH   3   5
ATOM      5  N   UNL     1       6.163   6.006  16.825  0.00  0.00    +0.000 N 
ATOM      6  C   UNL     1       5.012   5.812  17.671  0.00  0.00    +0.000 C 
ATOM      7  C   UNL     1       4.833   4.311  17.496  0.00  0.00    +0.000 C 
ATOM      8  O   UNL     1       3.931   3.641  17.977  0.00  0.00    +0.000 OA
ATOM      9  N   UNL     1       5.860   3.816  16.749  0.00  0.00    +0.000 N 
ATOM     10  C   UNL     1       6.725   4.807  16.402  0.00  0.00    +0.000 C 
ATOM     11  O   UNL     1       7.807   4.667  15.853  0.00  0.00    +0.000 OA
ATOM     12  H   UNL     1       5.994   2.839  16.549  0.00  0.00    +0.000 HD
ENDBRANCH   3   5
BRANCH   2  13
ATOM     13  C   UNL     1       8.290   8.839  17.912  0.00  0.00    +0.000 C 
ATOM     14  C   UNL     1       8.901   9.317  19.012  0.00  0.00    +0.000 C 
BRANCH  14  15
ATOM     15  C   UNL     1       9.537  10.640  19.093  0.00  0.00    +0.000 A 
ATOM     16  C   UNL     1       9.870  11.241  20.316  0.00  0.00    +0.000 A 
ATOM     17  C   UNL     1      10.456  12.510  20.356  0.00  0.00    +0.000 A 
ATOM     18  C   UNL     1      10.736  13.184  19.172  0.00  0.00    +0.000 A 
ATOM     19  C   UNL     1      10.436  12.578  17.958  0.00  0.00    +0.000 A 
ATOM     20  F   UNL     1      10.712  13.224  16.816  0.00  0.00    +0.000 F 
ATOM     21  C   UNL     1       9.848  11.317  17.906  0.00  0.00    +0.000 A 
ENDBRANCH  14  15
ENDBRANCH   2  13
TORSDOF 3
ENDMDL
MODEL 2
REMARK VINA RESULT:      -8.1      6.147      7.539
REMARK  Name = 
REMARK  3 active torsions:
REMARK  status: ('A' for Active; 'I' for Inactive)
REMARK    1  A    between atoms: C_2  and  C_3
REMARK    2  A    between atoms: C_4  and  C_5
REMARK    3  A    between atoms: N_12  and  N_13
REMARK                            x       y       z     vdW  Elec       q    Type
REMARK                         _______ _______ _______ _____ _____    ______ ____
ROOT
ATOM      1  O   UNL     1       3.799   6.294  18.352  0.00  0.00    +0.000 OA
ATOM      2  C   UNL     1       4.081   5.288  17.706  0.00  0.00    +0.000 C 
ATOM      3  N   UNL     1       3.681   4.003  18.022  0.00  0.00    +0.000 N 
ATOM      4  H   UNL     1       3.796   3.232  17.366  0.00  0.00    +0.000 HD
ENDROOT
BRANCH   3   5
ATOM      5  N   UNL     1       2.742   3.787  19.036  0.00  0.00    +0.000 N 
ATOM      6  C   UNL     1       3.148   3.262  20.316  0.00  0.00    +0.000 C 
ATOM      7  C   UNL     1       1.780   2.908  20.878  0.00  0.00    +0.000 C 
ATOM      8  O   UNL     1       1.562   2.468  21.997  0.00  0.00    +0.000 OA
ATOM      9  N   UNL     1       0.828   3.121  19.925  0.00  0.00    +0.000 N 
ATOM     10  C   UNL     1       1.394   3.572  18.773  0.00  0.00    +0.000 C 
ATOM     11  O   UNL     1       0.832   3.726  17.700  0.00  0.00    +0.000 OA
ATOM     12  H   UNL     1      -0.146   2.902  20.040  0.00  0.00    +0.000 HD
ENDBRANCH   3   5
BRANCH   2  13
ATOM     13  C   UNL     1       4.935   5.357  16.494  0.00  0.00    +0.000 C 
ATOM     14  C   UNL     1       5.037   4.279  15.695  0.00  0.00    +0.000 C 
BRANCH  14  15
ATOM     15  C   UNL     1       5.798   4.254  14.438  0.00  0.00    +0.000 A 
ATOM     16  C   UNL     1       5.409   3.475  13.338  0.00  0.00    +0.000 A 
ATOM     17  C   UNL     1       6.169   3.460  12.164  0.00  0.00    +0.000 A 
ATOM     18  C   UNL     1       7.316   4.241  12.069  0.00  0.00    +0.000 A 
ATOM     19  C   UNL     1       7.687   5.037  13.144  0.00  0.00    +0.000 A 
ATOM     20  F   UNL     1       8.788   5.796  13.050  0.00  0.00    +0.000 F 
ATOM     21  C   UNL     1       6.941   5.057  14.320  0.00  0.00    +0.000 A 
ENDBRANCH  14  15
ENDBRANCH   2  13
TORSDOF 3
ENDMDL
MODEL 3
REMARK VINA RESULT:      -8.0      1.027      1.385
REMARK  Name = 
REMARK  3 active torsions:
REMARK  status: ('A' for Active; 'I' for Inactive)
REMARK    1  A    between atoms: C_2  and  C_3
REMARK    2  A    between atoms: C_4  and  C_5
REMARK    3  A    between atoms: N_12  and  N_13
REMARK                            x       y       z     vdW  Elec       q    Type
REMARK                         _______ _______ _______ _____ _____    ______ ____
ROOT
ATOM      1  O   UNL     1       8.075   6.822  18.619  0.00  0.00    +0.000 OA
ATOM      2  C   UNL     1       7.622   7.577  17.763  0.00  0.00    +0.000 C 
ATOM      3  N   UNL     1       6.714   7.214  16.784  0.00  0.00    +0.000 N 
ATOM      4  H   UNL     1       6.243   7.911  16.210  0.00  0.00    +0.000 HD
ENDROOT
BRANCH   3   5
ATOM      5  N   UNL     1       6.098   5.960  16.826  0.00  0.00    +0.000 N 
ATOM      6  C   UNL     1       5.124   5.651  17.842  0.00  0.00    +0.000 C 
ATOM      7  C   UNL     1       5.048   4.143  17.655  0.00  0.00    +0.000 C 
ATOM      8  O   UNL     1       4.298   3.389  18.257  0.00  0.00    +0.000 OA
ATOM      9  N   UNL     1       5.976   3.752  16.736  0.00  0.00    +0.000 N 
ATOM     10  C   UNL     1       6.683   4.822  16.282  0.00  0.00    +0.000 C 
ATOM     11  O   UNL     1       7.668   4.787  15.560  0.00  0.00    +0.000 OA
ATOM     12  H   UNL     1       6.158   2.795  16.490  0.00  0.00    +0.000 HD
ENDBRANCH   3   5
BRANCH   2  13
ATOM     13  C   UNL     1       8.042   8.998  17.678  0.00  0.00    +0.000 C 
ATOM     14  C   UNL     1       8.836   9.512  18.636  0.00  0.00    +0.000 C 
BRANCH  14  15
ATOM     15  C   UNL     1       9.367  10.882  18.619  0.00  0.00    +0.000 A 
ATOM     16  C   UNL     1       8.808  11.895  17.827  0.00  0.00    +0.000 A 
ATOM     17  C   UNL     1       9.352  13.184  17.821  0.00  0.00    +0.000 A 
ATOM     18  C   UNL     1      10.450  13.478  18.623  0.00  0.00    +0.000 A 
ATOM     19  C   UNL     1      10.987  12.485  19.431  0.00  0.00    +0.000 A 
ATOM     20  F   UNL     1      12.040  12.771  20.210  0.00  0.00    +0.000 F 
ATOM     21  C   UNL     1      10.456  11.198  19.443  0.00  0.00    +0.000 A 
ENDBRANCH  14  15
ENDBRANCH   2  13
TORSDOF 3
ENDMDL
MODEL 4
REMARK VINA RESULT:      -7.9      1.640      1.921
REMARK  Name = 
REMARK  3 active torsions:
REMARK  status: ('A' for Active; 'I' for Inactive)
REMARK    1  A    between atoms: C_2  and  C_3
REMARK    2  A    between atoms: C_4  and  C_5
REMARK    3  A    between atoms: N_12  and  N_13
REMARK                            x       y       z     vdW  Elec       q    Type
REMARK                         _______ _______ _______ _____ _____    ______ ____
ROOT
ATOM      1  O   UNL     1       6.804   8.016  16.816  0.00  0.00    +0.000 OA
ATOM      2  C   UNL     1       7.446   7.583  17.769  0.00  0.00    +0.000 C 
ATOM      3  N   UNL     1       7.246   6.353  18.368  0.00  0.00    +0.000 N 
ATOM      4  H   UNL     1       7.912   5.972  19.039  0.00  0.00    +0.000 HD
ENDROOT
BRANCH   3   5
ATOM      5  N   UNL     1       6.386   5.417  17.785  0.00  0.00    +0.000 N 
ATOM      6  C   UNL     1       5.197   4.981  18.473  0.00  0.00    +0.000 C 
ATOM      7  C   UNL     1       4.846   3.777  17.611  0.00  0.00    +0.000 C 
ATOM      8  O   UNL     1       3.857   3.071  17.744  0.00  0.00    +0.000 OA
ATOM      9  N   UNL     1       5.827   3.580  16.686  0.00  0.00    +0.000 N 
ATOM     10  C   UNL     1       6.813   4.507  16.825  0.00  0.00    +0.000 C 
ATOM     11  O   UNL     1       7.886   4.519  16.241  0.00  0.00    +0.000 OA
ATOM     12  H   UNL     1       5.849   2.808  16.042  0.00  0.00    +0.000 HD
ENDBRANCH   3   5
BRANCH   2  13
ATOM     13  C   UNL     1       8.520   8.382  18.410  0.00  0.00    +0.000 C 
ATOM     14  C   UNL     1       8.561   9.713  18.214  0.00  0.00    +0.000 C 
BRANCH  14  15
ATOM     15  C   UNL     1       9.536  10.611  18.850  0.00  0.00    +0.000 A 
ATOM     16  C   UNL     1      10.680  11.072  18.184  0.00  0.00    +0.000 A 
ATOM     17  C   UNL     1      11.597  11.909  18.827  0.00  0.00    +0.000 A 
ATOM     18  C   UNL     1      11.369  12.311  20.139  0.00  0.00    +0.000 A 
ATOM     19  C   UNL     1      10.221  11.881  20.792  0.00  0.00    +0.000 A 
ATOM     20  F   UNL     1       9.997  12.274  22.053  0.00  0.00    +0.000 F 
ATOM     21  C   UNL     1       9.303  11.044  20.162  0.00  0.00    +0.000 A 
ENDBRANCH  14  15
ENDBRANCH   2  13
TORSDOF 3
ENDMDL
MODEL 5
REMARK VINA RESULT:      -7.9      6.533      7.858
REMARK  Name = 
REMARK  3 active torsions:
REMARK  status: ('A' for Active; 'I' for Inactive)
REMARK    1  A    between atoms: C_2  and  C_3
REMARK    2  A    between atoms: C_4  and  C_5
REMARK    3  A    between atoms: N_12  and  N_13
REMARK                            x       y       z     vdW  Elec       q    Type
REMARK                         _______ _______ _______ _____ _____    ______ ____
ROOT
ATOM      1  O   UNL     1       4.825   5.438  19.094  0.00  0.00    +0.000 OA
ATOM      2  C   UNL     1       4.720   4.548  18.255  0.00  0.00    +0.000 C 
ATOM      3  N   UNL     1       3.830   3.492  18.323  0.00  0.00    +0.000 N 
ATOM      4  H   UNL     1       3.666   2.880  17.525  0.00  0.00    +0.000 HD
ENDROOT
BRANCH   3   5
ATOM      5  N   UNL     1       2.832   3.475  19.302  0.00  0.00    +0.000 N 
ATOM      6  C   UNL     1       3.085   2.904  20.602  0.00  0.00    +0.000 C 
ATOM      7  C   UNL     1       1.655   2.825  21.114  0.00  0.00    +0.000 C 
ATOM      8  O   UNL     1       1.317   2.452  22.229  0.00  0.00    +0.000 OA
ATOM      9  N   UNL     1       0.796   3.200  20.124  0.00  0.00    +0.000 N 
ATOM     10  C   UNL     1       1.478   3.515  18.990  0.00  0.00    +0.000 C 
ATOM     11  O   UNL     1       0.994   3.756  17.895  0.00  0.00    +0.000 OA
ATOM     12  H   UNL     1      -0.206   3.171  20.204  0.00  0.00    +0.000 HD
ENDBRANCH   3   5
BRANCH   2  13
ATOM     13  C   UNL     1       5.593   4.504  17.055  0.00  0.00    +0.000 C 
ATOM     14  C   UNL     1       5.050   4.245  15.851  0.00  0.00    +0.000 C 
BRANCH  14  15
ATOM     15  C   UNL     1       5.805   4.243  14.590  0.00  0.00    +0.000 A 
ATOM     16  C   UNL     1       6.958   5.019  14.402  0.00  0.00    +0.000 A 
ATOM     17  C   UNL     1       7.640   5.008  13.181  0.00  0.00    +0.000 A 
ATOM     18  C   UNL     1       7.187   4.204  12.140  0.00  0.00    +0.000 A 
ATOM     19  C   UNL     1       6.064   3.411  12.332  0.00  0.00    +0.000 A 
ATOM     20  F   UNL     1       5.631   2.631  11.332  0.00  0.00    +0.000 F 
ATOM     21  C   UNL     1       5.374   3.418  13.543  0.00  0.00    +0.000 A 
ENDBRANCH  14  15
ENDBRANCH   2  13
TORSDOF 3
ENDMDL
MODEL 6
REMARK VINA RESULT:      -7.9      5.904      7.342
REMARK  Name = 
REMARK  3 active torsions:
REMARK  status: ('A' for Active; 'I' for Inactive)
REMARK    1  A    between atoms: C_2  and  C_3
REMARK    2  A    between atoms: C_4  and  C_5
REMARK    3  A    between atoms: N_12  and  N_13
REMARK                            x       y       z     vdW  Elec       q    Type
REMARK                         _______ _______ _______ _____ _____    ______ ____
ROOT
ATOM      1  O   UNL     1       6.381   4.546  19.450  0.00  0.00    +0.000 OA
ATOM      2  C   UNL     1       5.706   4.407  18.434  0.00  0.00    +0.000 C 
ATOM      3  N   UNL     1       4.359   4.093  18.410  0.00  0.00    +0.000 N 
ATOM      4  H   UNL     1       3.812   4.157  17.554  0.00  0.00    +0.000 HD
ENDROOT
BRANCH   3   5
ATOM      5  N   UNL     1       3.616   4.095  19.594  0.00  0.00    +0.000 N 
ATOM      6  C   UNL     1       3.300   2.860  20.267  0.00  0.00    +0.000 C 
ATOM      7  C   UNL     1       2.242   3.373  21.233  0.00  0.00    +0.000 C 
ATOM      8  O   UNL     1       1.681   2.709  22.092  0.00  0.00    +0.000 OA
ATOM      9  N   UNL     1       1.986   4.686  20.969  0.00  0.00    +0.000 N 
ATOM     10  C   UNL     1       2.741   5.123  19.926  0.00  0.00    +0.000 C 
ATOM     11  O   UNL     1       2.647   6.204  19.364  0.00  0.00    +0.000 OA
ATOM     12  H   UNL     1       1.279   5.228  21.436  0.00  0.00    +0.000 HD
ENDBRANCH   3   5
BRANCH   2  13
ATOM     13  C   UNL     1       6.303   4.539  17.081  0.00  0.00    +0.000 C 
ATOM     14  C   UNL     1       5.680   3.982  16.026  0.00  0.00    +0.000 C 
BRANCH  14  15
ATOM     15  C   UNL     1       6.142   4.106  14.636  0.00  0.00    +0.000 A 
ATOM     16  C   UNL     1       5.523   3.430  13.575  0.00  0.00    +0.000 A 
ATOM     17  C   UNL     1       6.002   3.555  12.267  0.00  0.00    +0.000 A 
ATOM     18  C   UNL     1       7.094   4.375  12.002  0.00  0.00    +0.000 A 
ATOM     19  C   UNL     1       7.690   5.070  13.046  0.00  0.00    +0.000 A 
ATOM     20  F   UNL     1       8.737   5.867  12.791  0.00  0.00    +0.000 F 
ATOM     21  C   UNL     1       7.224   4.950  14.353  0.00  0.00    +0.000 A 
ENDBRANCH  14  15
ENDBRANCH   2  13
TORSDOF 3
ENDMDL
MODEL 7
REMARK VINA RESULT:      -7.7      1.222      1.332
REMARK  Name = 
REMARK  3 active torsions:
REMARK  status: ('A' for Active; 'I' for Inactive)
REMARK    1  A    between atoms: C_2  and  C_3
REMARK    2  A    between atoms: C_4  and  C_5
REMARK    3  A    between atoms: N_12  and  N_13
REMARK                            x       y       z     vdW  Elec       q    Type
REMARK                         _______ _______ _______ _____ _____    ______ ____
ROOT
ATOM      1  O   UNL     1       8.205   7.063  18.790  0.00  0.00    +0.000 OA
ATOM      2  C   UNL     1       7.777   7.677  17.816  0.00  0.00    +0.000 C 
ATOM      3  N   UNL     1       6.857   7.185  16.908  0.00  0.00    +0.000 N 
ATOM      4  H   UNL     1       6.409   7.790  16.221  0.00  0.00    +0.000 HD
ENDROOT
BRANCH   3   5
ATOM      5  N   UNL     1       6.198   5.978  17.158  0.00  0.00    +0.000 N 
ATOM      6  C   UNL     1       5.087   5.922  18.075  0.00  0.00    +0.000 C 
ATOM      7  C   UNL     1       4.984   4.413  18.240  0.00  0.00    +0.000 C 
ATOM      8  O   UNL     1       4.135   3.825  18.894  0.00  0.00    +0.000 OA
ATOM      9  N   UNL     1       6.011   3.813  17.575  0.00  0.00    +0.000 N 
ATOM     10  C   UNL     1       6.809   4.742  16.983  0.00  0.00    +0.000 C 
ATOM     11  O   UNL     1       7.879   4.534  16.431  0.00  0.00    +0.000 OA
ATOM     12  H   UNL     1       6.191   2.823  17.587  0.00  0.00    +0.000 HD
ENDBRANCH   3   5
BRANCH   2  13
ATOM     13  C   UNL     1       8.247   9.047  17.493  0.00  0.00    +0.000 C 
ATOM     14  C   UNL     1       8.872   9.773  18.438  0.00  0.00    +0.000 C 
BRANCH  14  15
ATOM     15  C   UNL     1       9.437  11.111  18.212  0.00  0.00    +0.000 A 
ATOM     16  C   UNL     1      10.817  11.337  18.112  0.00  0.00    +0.000 A 
ATOM     17  C   UNL     1      11.321  12.627  17.917  0.00  0.00    +0.000 A 
ATOM     18  C   UNL     1      10.447  13.703  17.799  0.00  0.00    +0.000 A 
ATOM     19  C   UNL     1       9.079  13.479  17.867  0.00  0.00    +0.000 A 
ATOM     20  F   UNL     1       8.236  14.514  17.746  0.00  0.00    +0.000 F 
ATOM     21  C   UNL     1       8.566  12.199  18.066  0.00  0.00    +0.000 A 
ENDBRANCH  14  15
ENDBRANCH   2  13
TORSDOF 3
ENDMDL
MODEL 8
REMARK VINA RESULT:      -7.7      6.159      7.561
REMARK  Name = 
REMARK  3 active torsions:
REMARK  status: ('A' for Active; 'I' for Inactive)
REMARK    1  A    between atoms: C_2  and  C_3
REMARK    2  A    between atoms: C_4  and  C_5
REMARK    3  A    between atoms: N_12  and  N_13
REMARK                            x       y       z     vdW  Elec       q    Type
REMARK                         _______ _______ _______ _____ _____    ______ ____
ROOT
ATOM      1  O   UNL     1       6.222   5.208  19.605  0.00  0.00    +0.000 OA
ATOM      2  C   UNL     1       5.676   4.730  18.613  0.00  0.00    +0.000 C 
ATOM      3  N   UNL     1       4.465   4.063  18.617  0.00  0.00    +0.000 N 
ATOM      4  H   UNL     1       3.978   3.838  17.751  0.00  0.00    +0.000 HD
ENDROOT
BRANCH   3   5
ATOM      5  N   UNL     1       3.671   4.051  19.768  0.00  0.00    +0.000 N 
ATOM      6  C   UNL     1       3.386   2.815  20.452  0.00  0.00    +0.000 C 
ATOM      7  C   UNL     1       2.264   3.295  21.361  0.00  0.00    +0.000 C 
ATOM      8  O   UNL     1       1.697   2.621  22.209  0.00  0.00    +0.000 OA
ATOM      9  N   UNL     1       1.957   4.588  21.059  0.00  0.00    +0.000 N 
ATOM     10  C   UNL     1       2.736   5.042  20.040  0.00  0.00    +0.000 C 
ATOM     11  O   UNL     1       2.614   6.106  19.452  0.00  0.00    +0.000 OA
ATOM     12  H   UNL     1       1.206   5.105  21.484  0.00  0.00    +0.000 HD
ENDBRANCH   3   5
BRANCH   2  13
ATOM     13  C   UNL     1       6.304   4.802  17.270  0.00  0.00    +0.000 C 
ATOM     14  C   UNL     1       5.704   4.201  16.226  0.00  0.00    +0.000 C 
BRANCH  14  15
ATOM     15  C   UNL     1       6.199   4.263  14.844  0.00  0.00    +0.000 A 
ATOM     16  C   UNL     1       7.304   5.043  14.475  0.00  0.00    +0.000 A 
ATOM     17  C   UNL     1       7.735   5.094  13.145  0.00  0.00    +0.000 A 
ATOM     18  C   UNL     1       7.077   4.349  12.172  0.00  0.00    +0.000 A 
ATOM     19  C   UNL     1       6.000   3.553  12.539  0.00  0.00    +0.000 A 
ATOM     20  F   UNL     1       5.370   2.829  11.603  0.00  0.00    +0.000 F 
ATOM     21  C   UNL     1       5.560   3.497  13.860  0.00  0.00    +0.000 A 
ENDBRANCH  14  15
ENDBRANCH   2  13
TORSDOF 3
ENDMDL
MODEL 9
REMARK VINA RESULT:      -7.7      6.018      7.341
REMARK  Name = 
REMARK  3 active torsions:
REMARK  status: ('A' for Active; 'I' for Inactive)
REMARK    1  A    between atoms: C_2  and  C_3
REMARK    2  A    between atoms: C_4  and  C_5
REMARK    3  A    between atoms: N_12  and  N_13
REMARK                            x       y       z     vdW  Elec       q    Type
REMARK                         _______ _______ _______ _____ _____    ______ ____
ROOT
ATOM      1  O   UNL     1       5.526   4.940  19.109  0.00  0.00    +0.000 OA
ATOM      2  C   UNL     1       5.316   4.257  18.110  0.00  0.00    +0.000 C 
ATOM      3  N   UNL     1       4.478   3.158  18.060  0.00  0.00    +0.000 N 
ATOM      4  H   UNL     1       4.207   2.734  17.174  0.00  0.00    +0.000 HD
ENDROOT
BRANCH   3   5
ATOM      5  N   UNL     1       3.647   2.857  19.143  0.00  0.00    +0.000 N 
ATOM      6  C   UNL     1       2.420   3.584  19.354  0.00  0.00    +0.000 C 
ATOM      7  C   UNL     1       2.111   3.130  20.773  0.00  0.00    +0.000 C 
ATOM      8  O   UNL     1       1.113   3.427  21.414  0.00  0.00    +0.000 OA
ATOM      9  N   UNL     1       3.140   2.368  21.241  0.00  0.00    +0.000 N 
ATOM     10  C   UNL     1       4.122   2.259  20.305  0.00  0.00    +0.000 C 
ATOM     11  O   UNL     1       5.225   1.759  20.464  0.00  0.00    +0.000 OA
ATOM     12  H   UNL     1       3.194   2.004  22.176  0.00  0.00    +0.000 HD
ENDBRANCH   3   5
BRANCH   2  13
ATOM     13  C   UNL     1       5.990   4.542  16.818  0.00  0.00    +0.000 C 
ATOM     14  C   UNL     1       5.676   3.811  15.732  0.00  0.00    +0.000 C 
BRANCH  14  15
ATOM     15  C   UNL     1       6.229   4.047  14.392  0.00  0.00    +0.000 A 
ATOM     16  C   UNL     1       5.711   3.429  13.245  0.00  0.00    +0.000 A 
ATOM     17  C   UNL     1       6.275   3.661  11.986  0.00  0.00    +0.000 A 
ATOM     18  C   UNL     1       7.352   4.531  11.858  0.00  0.00    +0.000 A 
ATOM     19  C   UNL     1       7.849   5.169  12.987  0.00  0.00    +0.000 A 
ATOM     20  F   UNL     1       8.882   6.014  12.863  0.00  0.00    +0.000 F 
ATOM     21  C   UNL     1       7.297   4.942  14.246  0.00  0.00    +0.000 A 
ENDBRANCH  14  15
ENDBRANCH   2  13
TORSDOF 3
ENDMDL
