MODEL 1
REMARK VINA RESULT:      -7.4      0.000      0.000
REMARK  Name = 
REMARK  2 active torsions:
REMARK  status: ('A' for Active; 'I' for Inactive)
REMARK    1  A    between atoms: S_2  and  C_4
REMARK    2  A    between atoms: S_2  and  N_10
REMARK                            x       y       z     vdW  Elec       q    Type
REMARK                         _______ _______ _______ _____ _____    ______ ____
ROOT
ATOM      1  O   UNL     1       4.172   5.808  18.382  0.00  0.00    +0.000 OA
ATOM      2  S   UNL     1       5.050   4.672  18.172  0.00  0.00    +0.000 S 
ATOM      3  O   UNL     1       6.188   4.476  19.036  0.00  0.00    +0.000 OA
ENDROOT
BRANCH   2   4
ATOM      4  N   UNL     1       5.618   4.813  16.630  0.00  0.00    +0.000 NA
ATOM      5  C   UNL     1       6.881   4.335  16.058  0.00  0.00    +0.000 C 
ATOM      6  C   UNL     1       6.351   4.746  14.644  0.00  0.00    +0.000 C 
ATOM      7  C   UNL     1       7.566   5.071  13.783  0.00  0.00    +0.000 C 
ATOM      8  C   UNL     1       7.192   4.644  12.373  0.00  0.00    +0.000 C 
ATOM      9  C   UNL     1       6.207   3.502  12.550  0.00  0.00    +0.000 C 
ATOM     10  C   UNL     1       5.443   3.813  13.830  0.00  0.00    +0.000 C 
ATOM     11  C   UNL     1       5.461   5.741  15.489  0.00  0.00    +0.000 C 
ENDBRANCH   2   4
BRANCH   2  12
ATOM     12  C   UNL     1       4.026   3.190  18.133  0.00  0.00    +0.000 C 
ATOM     13  C   UNL     1       3.624   2.696  19.524  0.00  0.00    +0.000 C 
ATOM     14  C   UNL     1       2.501   3.506  20.171  0.00  0.00    +0.000 C 
ATOM     15  C   UNL     1       1.292   3.622  19.255  0.00  0.00    +0.000 C 
ATOM     16  C   UNL     1       1.663   4.169  17.881  0.00  0.00    +0.000 C 
ATOM     17  C   UNL     1       2.795   3.378  17.229  0.00  0.00    +0.000 C 
ENDBRANCH   2  12
TORSDOF 2
ENDMDL
MODEL 2
REMARK VINA RESULT:      -7.3      1.205      1.743
REMARK  Name = 
REMARK  2 active torsions:
REMARK  status: ('A' for Active; 'I' for Inactive)
REMARK    1  A    between atoms: S_2  and  C_4
REMARK    2  A    between atoms: S_2  and  N_10
REMARK                            x       y       z     vdW  Elec       q    Type
REMARK                         _______ _______ _______ _____ _____    ______ ____
ROOT
ATOM      1  O   UNL     1       5.510   5.474  19.562  0.00  0.00    +0.000 OA
ATOM      2  S   UNL     1       4.712   4.651  18.671  0.00  0.00    +0.000 S 
ATOM      3  O   UNL     1       4.595   3.234  18.916  0.00  0.00    +0.000 OA
ENDROOT
BRANCH   2   4
ATOM      4  N   UNL     1       5.361   4.842  17.168  0.00  0.00    +0.000 NA
ATOM      5  C   UNL     1       6.653   4.383  16.648  0.00  0.00    +0.000 C 
ATOM      6  C   UNL     1       6.198   4.839  15.223  0.00  0.00    +0.000 C 
ATOM      7  C   UNL     1       7.457   5.192  14.438  0.00  0.00    +0.000 C 
ATOM      8  C   UNL     1       7.159   4.811  12.996  0.00  0.00    +0.000 C 
ATOM      9  C   UNL     1       6.167   3.664  13.084  0.00  0.00    +0.000 C 
ATOM     10  C   UNL     1       5.336   3.934  14.331  0.00  0.00    +0.000 C 
ATOM     11  C   UNL     1       5.263   5.807  16.050  0.00  0.00    +0.000 C 
ENDBRANCH   2   4
BRANCH   2  12
ATOM     12  C   UNL     1       3.080   5.405  18.549  0.00  0.00    +0.000 C 
ATOM     13  C   UNL     1       2.052   4.512  17.852  0.00  0.00    +0.000 C 
ATOM     14  C   UNL     1       1.511   3.384  18.729  0.00  0.00    +0.000 C 
ATOM     15  C   UNL     1       0.979   3.908  20.054  0.00  0.00    +0.000 C 
ATOM     16  C   UNL     1       2.011   4.753  20.794  0.00  0.00    +0.000 C 
ATOM     17  C   UNL     1       2.571   5.875  19.923  0.00  0.00    +0.000 C 
ENDBRANCH   2  12
TORSDOF 2
ENDMDL
MODEL 3
REMARK VINA RESULT:      -7.0      1.747      2.502
REMARK  Name = 
REMARK  2 active torsions:
REMARK  status: ('A' for Active; 'I' for Inactive)
REMARK    1  A    between atoms: S_2  and  C_4
REMARK    2  A    between atoms: S_2  and  N_10
REMARK                            x       y       z     vdW  Elec       q    Type
REMARK                         _______ _______ _______ _____ _____    ______ ____
ROOT
ATOM      1  O   UNL     1       2.628   6.952  19.556  0.00  0.00    +0.000 OA
ATOM      2  S   UNL     1       3.029   5.567  19.391  0.00  0.00    +0.000 S 
ATOM      3  O   UNL     1       3.601   4.848  20.503  0.00  0.00    +0.000 OA
ENDROOT
BRANCH   2   4
ATOM      4  N   UNL     1       4.136   5.554  18.170  0.00  0.00    +0.000 NA
ATOM      5  C   UNL     1       5.482   4.972  18.142  0.00  0.00    +0.000 C 
ATOM      6  C   UNL     1       5.546   5.289  16.611  0.00  0.00    +0.000 C 
ATOM      7  C   UNL     1       7.014   5.485  16.251  0.00  0.00    +0.000 C 
ATOM      8  C   UNL     1       7.159   4.961  14.831  0.00  0.00    +0.000 C 
ATOM      9  C   UNL     1       6.096   3.885  14.693  0.00  0.00    +0.000 C 
ATOM     10  C   UNL     1       4.938   4.335  15.572  0.00  0.00    +0.000 C 
ATOM     11  C   UNL     1       4.482   6.391  17.000  0.00  0.00    +0.000 C 
ENDBRANCH   2   4
BRANCH   2  12
ATOM     12  C   UNL     1       1.618   4.668  18.720  0.00  0.00    +0.000 C 
ATOM     13  C   UNL     1       1.986   3.744  17.559  0.00  0.00    +0.000 C 
ATOM     14  C   UNL     1       2.663   2.443  17.990  0.00  0.00    +0.000 C 
ATOM     15  C   UNL     1       1.849   1.708  19.044  0.00  0.00    +0.000 C 
ATOM     16  C   UNL     1       1.522   2.597  20.239  0.00  0.00    +0.000 C 
ATOM     17  C   UNL     1       0.858   3.908  19.821  0.00  0.00    +0.000 C 
ENDBRANCH   2  12
TORSDOF 2
ENDMDL
MODEL 4
REMARK VINA RESULT:      -7.0      2.713      3.848
REMARK  Name = 
REMARK  2 active torsions:
REMARK  status: ('A' for Active; 'I' for Inactive)
REMARK    1  A    between atoms: S_2  and  C_4
REMARK    2  A    between atoms: S_2  and  N_10
REMARK                            x       y       z     vdW  Elec       q    Type
REMARK                         _______ _______ _______ _____ _____    ______ ____
ROOT
ATOM      1  O   UNL     1       4.732   2.705  19.876  0.00  0.00    +0.000 OA
ATOM      2  S   UNL     1       4.160   3.272  18.669  0.00  0.00    +0.000 S 
ATOM      3  O   UNL     1       3.925   2.428  17.522  0.00  0.00    +0.000 OA
ENDROOT
BRANCH   2   4
ATOM      4  N   UNL     1       5.184   4.474  18.198  0.00  0.00    +0.000 NA
ATOM      5  C   UNL     1       5.003   5.928  18.263  0.00  0.00    +0.000 C 
ATOM      6  C   UNL     1       6.498   6.095  17.830  0.00  0.00    +0.000 C 
ATOM      7  C   UNL     1       6.611   7.429  17.102  0.00  0.00    +0.000 C 
ATOM      8  C   UNL     1       7.998   7.958  17.432  0.00  0.00    +0.000 C 
ATOM      9  C   UNL     1       8.326   7.387  18.800  0.00  0.00    +0.000 C 
ATOM     10  C   UNL     1       7.639   6.029  18.855  0.00  0.00    +0.000 C 
ATOM     11  C   UNL     1       6.267   4.662  17.207  0.00  0.00    +0.000 C 
ENDBRANCH   2   4
BRANCH   2  12
ATOM     12  C   UNL     1       2.648   4.134  19.135  0.00  0.00    +0.000 C 
ATOM     13  C   UNL     1       1.378   3.340  18.823  0.00  0.00    +0.000 C 
ATOM     14  C   UNL     1       1.090   2.213  19.815  0.00  0.00    +0.000 C 
ATOM     15  C   UNL     1       1.090   2.715  21.251  0.00  0.00    +0.000 C 
ATOM     16  C   UNL     1       2.375   3.459  21.599  0.00  0.00    +0.000 C 
ATOM     17  C   UNL     1       2.682   4.578  20.607  0.00  0.00    +0.000 C 
ENDBRANCH   2  12
TORSDOF 2
ENDMDL
MODEL 5
REMARK VINA RESULT:      -7.0      2.785      3.673
REMARK  Name = 
REMARK  2 active torsions:
REMARK  status: ('A' for Active; 'I' for Inactive)
REMARK    1  A    between atoms: S_2  and  C_4
REMARK    2  A    between atoms: S_2  and  N_10
REMARK                            x       y       z     vdW  Elec       q    Type
REMARK                         _______ _______ _______ _____ _____    ______ ____
ROOT
ATOM      1  O   UNL     1       2.354   3.163  16.309  0.00  0.00    +0.000 OA
ATOM      2  S   UNL     1       2.510   3.847  17.579  0.00  0.00    +0.000 S 
ATOM      3  O   UNL     1       1.482   4.748  18.040  0.00  0.00    +0.000 OA
ENDROOT
BRANCH   2   4
ATOM      4  N   UNL     1       3.910   4.711  17.464  0.00  0.00    +0.000 NA
ATOM      5  C   UNL     1       4.191   6.085  17.890  0.00  0.00    +0.000 C 
ATOM      6  C   UNL     1       5.701   5.836  17.564  0.00  0.00    +0.000 C 
ATOM      7  C   UNL     1       6.314   7.185  17.203  0.00  0.00    +0.000 C 
ATOM      8  C   UNL     1       7.749   7.128  17.704  0.00  0.00    +0.000 C 
ATOM      9  C   UNL     1       7.719   6.183  18.893  0.00  0.00    +0.000 C 
ATOM     10  C   UNL     1       6.636   5.160  18.578  0.00  0.00    +0.000 C 
ATOM     11  C   UNL     1       5.104   4.746  16.590  0.00  0.00    +0.000 C 
ENDBRANCH   2   4
BRANCH   2  12
ATOM     12  C   UNL     1       2.861   2.599  18.831  0.00  0.00    +0.000 C 
ATOM     13  C   UNL     1       3.761   3.108  19.957  0.00  0.00    +0.000 C 
ATOM     14  C   UNL     1       3.042   3.989  20.978  0.00  0.00    +0.000 C 
ATOM     15  C   UNL     1       1.798   3.310  21.529  0.00  0.00    +0.000 C 
ATOM     16  C   UNL     1       0.857   2.848  20.421  0.00  0.00    +0.000 C 
ATOM     17  C   UNL     1       1.567   1.978  19.386  0.00  0.00    +0.000 C 
ENDBRANCH   2  12
TORSDOF 2
ENDMDL
MODEL 6
REMARK VINA RESULT:      -6.8      0.880      1.467
REMARK  Name = 
REMARK  2 active torsions:
REMARK  status: ('A' for Active; 'I' for Inactive)
REMARK    1  A    between atoms: S_2  and  C_4
REMARK    2  A    between atoms: S_2  and  N_10
REMARK                            x       y       z     vdW  Elec       q    Type
REMARK                         _______ _______ _______ _____ _____    ______ ____
ROOT
ATOM      1  O   UNL     1       5.547   6.296  18.505  0.00  0.00    +0.000 OA
ATOM      2  S   UNL     1       5.238   4.974  17.993  0.00  0.00    +0.000 S 
ATOM      3  O   UNL     1       5.805   3.809  18.627  0.00  0.00    +0.000 OA
ENDROOT
BRANCH   2   4
ATOM      4  N   UNL     1       5.725   4.967  16.418  0.00  0.00    +0.000 NA
ATOM      5  C   UNL     1       6.942   4.403  15.824  0.00  0.00    +0.000 C 
ATOM      6  C   UNL     1       6.347   4.711  14.410  0.00  0.00    +0.000 C 
ATOM      7  C   UNL     1       7.522   4.924  13.462  0.00  0.00    +0.000 C 
ATOM      8  C   UNL     1       7.061   4.393  12.114  0.00  0.00    +0.000 C 
ATOM      9  C   UNL     1       6.056   3.302  12.439  0.00  0.00    +0.000 C 
ATOM     10  C   UNL     1       5.371   3.743  13.726  0.00  0.00    +0.000 C 
ATOM     11  C   UNL     1       5.532   5.801  15.211  0.00  0.00    +0.000 C 
ENDBRANCH   2   4
BRANCH   2  12
ATOM     12  C   UNL     1       3.444   4.829  17.903  0.00  0.00    +0.000 C 
ATOM     13  C   UNL     1       2.974   3.593  17.135  0.00  0.00    +0.000 C 
ATOM     14  C   UNL     1       3.081   2.291  17.927  0.00  0.00    +0.000 C 
ATOM     15  C   UNL     1       2.391   2.396  19.278  0.00  0.00    +0.000 C 
ATOM     16  C   UNL     1       2.889   3.590  20.085  0.00  0.00    +0.000 C 
ATOM     17  C   UNL     1       2.801   4.897  19.299  0.00  0.00    +0.000 C 
ENDBRANCH   2  12
TORSDOF 2
ENDMDL
MODEL 7
REMARK VINA RESULT:      -6.7      2.093      2.918
REMARK  Name = 
REMARK  2 active torsions:
REMARK  status: ('A' for Active; 'I' for Inactive)
REMARK    1  A    between atoms: S_2  and  C_4
REMARK    2  A    between atoms: S_2  and  N_10
REMARK                            x       y       z     vdW  Elec       q    Type
REMARK                         _______ _______ _______ _____ _____    ______ ____
ROOT
ATOM      1  O   UNL     1       2.160   2.344  18.046  0.00  0.00    +0.000 OA
ATOM      2  S   UNL     1       2.120   3.783  17.864  0.00  0.00    +0.000 S 
ATOM      3  O   UNL     1       1.073   4.377  17.069  0.00  0.00    +0.000 OA
ENDROOT
BRANCH   2   4
ATOM      4  N   UNL     1       3.560   4.197  17.177  0.00  0.00    +0.000 NA
ATOM      5  C   UNL     1       4.807   3.431  17.099  0.00  0.00    +0.000 C 
ATOM      6  C   UNL     1       5.380   4.531  16.146  0.00  0.00    +0.000 C 
ATOM      7  C   UNL     1       6.894   4.537  16.319  0.00  0.00    +0.000 C 
ATOM      8  C   UNL     1       7.460   4.892  14.954  0.00  0.00    +0.000 C 
ATOM      9  C   UNL     1       6.440   4.377  13.953  0.00  0.00    +0.000 C 
ATOM     10  C   UNL     1       5.087   4.514  14.638  0.00  0.00    +0.000 C 
ATOM     11  C   UNL     1       4.312   5.436  16.878  0.00  0.00    +0.000 C 
ENDBRANCH   2   4
BRANCH   2  12
ATOM     12  C   UNL     1       2.174   4.541  19.498  0.00  0.00    +0.000 C 
ATOM     13  C   UNL     1       0.932   4.251  20.342  0.00  0.00    +0.000 C 
ATOM     14  C   UNL     1       0.905   2.849  20.947  0.00  0.00    +0.000 C 
ATOM     15  C   UNL     1       2.179   2.545  21.720  0.00  0.00    +0.000 C 
ATOM     16  C   UNL     1       3.430   2.771  20.876  0.00  0.00    +0.000 C 
ATOM     17  C   UNL     1       3.462   4.165  20.252  0.00  0.00    +0.000 C 
ENDBRANCH   2  12
TORSDOF 2
ENDMDL
MODEL 8
REMARK VINA RESULT:      -6.6      1.696      5.706
REMARK  Name = 
REMARK  2 active torsions:
REMARK  status: ('A' for Active; 'I' for Inactive)
REMARK    1  A    between atoms: S_2  and  C_4
REMARK    2  A    between atoms: S_2  and  N_10
REMARK                            x       y       z     vdW  Elec       q    Type
REMARK                         _______ _______ _______ _____ _____    ______ ____
ROOT
ATOM      1  O   UNL     1       7.260   3.979  18.203  0.00  0.00    +0.000 OA
ATOM      2  S   UNL     1       6.443   5.070  18.700  0.00  0.00    +0.000 S 
ATOM      3  O   UNL     1       6.918   5.882  19.793  0.00  0.00    +0.000 OA
ENDROOT
BRANCH   2   4
ATOM      4  N   UNL     1       5.015   4.393  19.172  0.00  0.00    +0.000 NA
ATOM      5  C   UNL     1       3.842   5.027  19.782  0.00  0.00    +0.000 C 
ATOM      6  C   UNL     1       3.072   3.676  19.614  0.00  0.00    +0.000 C 
ATOM      7  C   UNL     1       2.016   3.618  20.712  0.00  0.00    +0.000 C 
ATOM      8  C   UNL     1       0.838   2.872  20.106  0.00  0.00    +0.000 C 
ATOM      9  C   UNL     1       0.904   3.165  18.617  0.00  0.00    +0.000 C 
ATOM     10  C   UNL     1       2.385   3.306  18.291  0.00  0.00    +0.000 C 
ATOM     11  C   UNL     1       4.532   3.073  19.634  0.00  0.00    +0.000 C 
ENDBRANCH   2   4
BRANCH   2  12
ATOM     12  C   UNL     1       5.999   6.105  17.293  0.00  0.00    +0.000 C 
ATOM     13  C   UNL     1       7.119   6.232  16.260  0.00  0.00    +0.000 C 
ATOM     14  C   UNL     1       7.278   5.007  15.361  0.00  0.00    +0.000 C 
ATOM     15  C   UNL     1       5.963   4.616  14.705  0.00  0.00    +0.000 C 
ATOM     16  C   UNL     1       4.846   4.426  15.726  0.00  0.00    +0.000 C 
ATOM     17  C   UNL     1       4.687   5.639  16.641  0.00  0.00    +0.000 C 
ENDBRANCH   2  12
TORSDOF 2
ENDMDL
MODEL 9
REMARK VINA RESULT:      -6.6      1.974      2.450
REMARK  Name = 
REMARK  2 active torsions:
REMARK  status: ('A' for Active; 'I' for Inactive)
REMARK    1  A    between atoms: S_2  and  C_4
REMARK    2  A    between atoms: S_2  and  N_10
REMARK                            x       y       z     vdW  Elec       q    Type
REMARK                         _______ _______ _______ _____ _____    ______ ____
ROOT
ATOM      1  O   UNL     1       3.108   1.844  17.719  0.00  0.00    +0.000 OA
ATOM      2  S   UNL     1       3.001   3.290  17.786  0.00  0.00    +0.000 S 
ATOM      3  O   UNL     1       1.768   3.936  17.411  0.00  0.00    +0.000 OA
ENDROOT
BRANCH   2   4
ATOM      4  N   UNL     1       4.188   3.882  16.806  0.00  0.00    +0.000 NA
ATOM      5  C   UNL     1       5.571   3.424  16.640  0.00  0.00    +0.000 C 
ATOM      6  C   UNL     1       5.716   4.418  15.441  0.00  0.00    +0.000 C 
ATOM      7  C   UNL     1       7.187   4.807  15.351  0.00  0.00    +0.000 C 
ATOM      8  C   UNL     1       7.466   5.008  13.870  0.00  0.00    +0.000 C 
ATOM      9  C   UNL     1       6.496   4.085  13.153  0.00  0.00    +0.000 C 
ATOM     10  C   UNL     1       5.250   4.037  14.027  0.00  0.00    +0.000 C 
ATOM     11  C   UNL     1       4.551   5.178  16.191  0.00  0.00    +0.000 C 
ENDBRANCH   2   4
BRANCH   2  12
ATOM     12  C   UNL     1       3.499   3.797  19.442  0.00  0.00    +0.000 C 
ATOM     13  C   UNL     1       3.789   5.294  19.555  0.00  0.00    +0.000 C 
ATOM     14  C   UNL     1       2.537   6.167  19.619  0.00  0.00    +0.000 C 
ATOM     15  C   UNL     1       1.585   5.705  20.712  0.00  0.00    +0.000 C 
ATOM     16  C   UNL     1       1.236   4.226  20.582  0.00  0.00    +0.000 C 
ATOM     17  C   UNL     1       2.480   3.343  20.502  0.00  0.00    +0.000 C 
ENDBRANCH   2  12
TORSDOF 2
ENDMDL
