MODEL 1
REMARK VINA RESULT:      -8.7      0.000      0.000
REMARK  Name = 
REMARK  7 active torsions:
REMARK  status: ('A' for Active; 'I' for Inactive)
REMARK    1  A    between atoms: C_2  and  C_5
REMARK    2  A    between atoms: N_11  and  C_12
REMARK    3  A    between atoms: C_12  and  C_13
REMARK    4  A    between atoms: C_13  and  C_14
REMARK    5  A    between atoms: C_14  and  C_15
REMARK    6  A    between atoms: C_15  and  N_16
REMARK    7  A    between atoms: N_19  and  C_20
REMARK                            x       y       z     vdW  Elec       q    Type
REMARK                         _______ _______ _______ _____ _____    ______ ____
ROOT
ATOM      1  C   UNL     1       6.356   6.608  17.356  0.00  0.00    +0.000 A 
ATOM      2  C   UNL     1       6.245   5.697  16.298  0.00  0.00    +0.000 A 
ATOM      3  C   UNL     1       5.150   4.832  16.224  0.00  0.00    +0.000 A 
ATOM      4  C   UNL     1       4.154   4.861  17.208  0.00  0.00    +0.000 A 
ATOM      5  C   UNL     1       4.217   5.806  18.247  0.00  0.00    +0.000 A 
ATOM      6  C   UNL     1       5.331   6.660  18.314  0.00  0.00    +0.000 A 
ATOM      7  N   UNL     1       3.242   5.848  19.271  0.00  0.00    +0.000 N 
ATOM      8  C   UNL     1       2.520   4.706  19.682  0.00  0.00    +0.000 A 
ATOM      9  C   UNL     1       2.113   4.588  21.024  0.00  0.00    +0.000 A 
ATOM     10  C   UNL     1       1.546   3.405  21.502  0.00  0.00    +0.000 A 
ATOM     11  C   UNL     1       1.359   2.329  20.643  0.00  0.00    +0.000 A 
ATOM     12  C   UNL     1       1.734   2.432  19.303  0.00  0.00    +0.000 A 
ATOM     13  C   UNL     1       2.324   3.609  18.821  0.00  0.00    +0.000 A 
ATOM     14  S   UNL     1       2.820   3.676  17.103  0.00  0.00    +0.000 S 
ENDROOT
BRANCH   1  16
ATOM     15  F   UNL     1       8.362   7.163  18.555  0.00  0.00    +0.000 F 
ATOM     16  C   UNL     1       7.560   7.502  17.508  0.00  0.00    +0.000 C 
ATOM     17  F   UNL     1       7.217   8.805  17.710  0.00  0.00    +0.000 F 
ATOM     18  F   UNL     1       8.361   7.496  16.406  0.00  0.00    +0.000 F 
ENDBRANCH   1  16
BRANCH   7  19
ATOM     19  C   UNL     1       2.553   7.145  19.434  0.00  0.00    +0.000 C 
BRANCH  19  20
ATOM     20  C   UNL     1       1.900   7.645  18.134  0.00  0.00    +0.000 C 
BRANCH  20  21
ATOM     21  C   UNL     1       2.216   9.122  17.865  0.00  0.00    +0.000 C 
BRANCH  21  22
ATOM     22  C   UNL     1       1.378  10.114  18.690  0.00  0.00    +0.000 C 
BRANCH  22  23
ATOM     23  N   UNL     1       0.084   9.574  19.138  0.00  0.00    +0.000 NA
ATOM     24  C   UNL     1      -0.052   9.570  20.617  0.00  0.00    +0.000 C 
ATOM     25  C   UNL     1      -0.066  10.973  21.247  0.00  0.00    +0.000 C 
ATOM     26  N   UNL     1      -1.144  11.777  20.660  0.00  0.00    +0.000 N 
ATOM     27  C   UNL     1      -1.205  11.811  19.189  0.00  0.00    +0.000 C 
ATOM     28  C   UNL     1      -1.044  10.380  18.596  0.00  0.00    +0.000 C 
BRANCH  26  29
ATOM     29  C   UNL     1      -2.136  12.327  21.443  0.00  0.00    +0.000 A 
ATOM     30  C   UNL     1      -3.051  13.264  20.936  0.00  0.00    +0.000 A 
ATOM     31  C   UNL     1      -4.016  13.867  21.748  0.00  0.00    +0.000 A 
ATOM     32  C   UNL     1      -4.094  13.535  23.098  0.00  0.00    +0.000 A 
ATOM     33  C   UNL     1      -3.225  12.592  23.625  0.00  0.00    +0.000 A 
ATOM     34  C   UNL     1      -2.263  11.992  22.803  0.00  0.00    +0.000 A 
ENDBRANCH  26  29
ENDBRANCH  22  23
ENDBRANCH  21  22
ENDBRANCH  20  21
ENDBRANCH  19  20
ENDBRANCH   7  19
TORSDOF 7
ENDMDL
MODEL 2
REMARK VINA RESULT:      -8.6      0.614      1.473
REMARK  Name = 
REMARK  7 active torsions:
REMARK  status: ('A' for Active; 'I' for Inactive)
REMARK    1  A    between atoms: C_2  and  C_5
REMARK    2  A    between atoms: N_11  and  C_12
REMARK    3  A    between atoms: C_12  and  C_13
REMARK    4  A    between atoms: C_13  and  C_14
REMARK    5  A    between atoms: C_14  and  C_15
REMARK    6  A    between atoms: C_15  and  N_16
REMARK    7  A    between atoms: N_19  and  C_20
REMARK                            x       y       z     vdW  Elec       q    Type
REMARK                         _______ _______ _______ _____ _____    ______ ____
ROOT
ATOM      1  C   UNL     1       6.277   6.520  17.353  0.00  0.00    +0.000 A 
ATOM      2  C   UNL     1       6.138   5.623  16.287  0.00  0.00    +0.000 A 
ATOM      3  C   UNL     1       5.042   4.758  16.231  0.00  0.00    +0.000 A 
ATOM      4  C   UNL     1       4.072   4.775  17.240  0.00  0.00    +0.000 A 
ATOM      5  C   UNL     1       4.162   5.706  18.290  0.00  0.00    +0.000 A 
ATOM      6  C   UNL     1       5.277   6.560  18.338  0.00  0.00    +0.000 A 
ATOM      7  N   UNL     1       3.214   5.735  19.339  0.00  0.00    +0.000 N 
ATOM      8  C   UNL     1       2.502   4.588  19.754  0.00  0.00    +0.000 A 
ATOM      9  C   UNL     1       2.131   4.454  21.105  0.00  0.00    +0.000 A 
ATOM     10  C   UNL     1       1.576   3.264  21.583  0.00  0.00    +0.000 A 
ATOM     11  C   UNL     1       1.367   2.199  20.716  0.00  0.00    +0.000 A 
ATOM     12  C   UNL     1       1.707   2.319  19.368  0.00  0.00    +0.000 A 
ATOM     13  C   UNL     1       2.284   3.502  18.885  0.00  0.00    +0.000 A 
ATOM     14  S   UNL     1       2.735   3.591  17.156  0.00  0.00    +0.000 S 
ENDROOT
BRANCH   1  16
ATOM     15  F   UNL     1       8.292   7.403  16.389  0.00  0.00    +0.000 F 
ATOM     16  C   UNL     1       7.484   7.412  17.485  0.00  0.00    +0.000 C 
ATOM     17  F   UNL     1       8.280   7.059  18.534  0.00  0.00    +0.000 F 
ATOM     18  F   UNL     1       7.153   8.717  17.695  0.00  0.00    +0.000 F 
ENDBRANCH   1  16
BRANCH   7  19
ATOM     19  C   UNL     1       2.529   7.030  19.537  0.00  0.00    +0.000 C 
BRANCH  19  20
ATOM     20  C   UNL     1       1.875   7.565  18.252  0.00  0.00    +0.000 C 
BRANCH  20  21
ATOM     21  C   UNL     1       2.311   9.003  17.942  0.00  0.00    +0.000 C 
BRANCH  21  22
ATOM     22  C   UNL     1       1.181  10.043  18.016  0.00  0.00    +0.000 C 
BRANCH  22  23
ATOM     23  N   UNL     1       1.393  11.084  19.034  0.00  0.00    +0.000 NA
ATOM     24  C   UNL     1       0.545  12.283  18.811  0.00  0.00    +0.000 C 
ATOM     25  C   UNL     1      -0.964  12.016  18.950  0.00  0.00    +0.000 C 
ATOM     26  N   UNL     1      -1.254  11.452  20.274  0.00  0.00    +0.000 N 
ATOM     27  C   UNL     1      -0.429  10.303  20.688  0.00  0.00    +0.000 C 
ATOM     28  C   UNL     1       1.076  10.570  20.394  0.00  0.00    +0.000 C 
BRANCH  26  29
ATOM     29  C   UNL     1      -2.130  12.068  21.140  0.00  0.00    +0.000 A 
ATOM     30  C   UNL     1      -1.993  11.970  22.534  0.00  0.00    +0.000 A 
ATOM     31  C   UNL     1      -2.920  12.543  23.409  0.00  0.00    +0.000 A 
ATOM     32  C   UNL     1      -4.012  13.243  22.904  0.00  0.00    +0.000 A 
ATOM     33  C   UNL     1      -4.163  13.384  21.533  0.00  0.00    +0.000 A 
ATOM     34  C   UNL     1      -3.228  12.807  20.665  0.00  0.00    +0.000 A 
ENDBRANCH  26  29
ENDBRANCH  22  23
ENDBRANCH  21  22
ENDBRANCH  20  21
ENDBRANCH  19  20
ENDBRANCH   7  19
TORSDOF 7
ENDMDL
MODEL 3
REMARK VINA RESULT:      -8.6      1.105      1.547
REMARK  Name = 
REMARK  7 active torsions:
REMARK  status: ('A' for Active; 'I' for Inactive)
REMARK    1  A    between atoms: C_2  and  C_5
REMARK    2  A    between atoms: N_11  and  C_12
REMARK    3  A    between atoms: C_12  and  C_13
REMARK    4  A    between atoms: C_13  and  C_14
REMARK    5  A    between atoms: C_14  and  C_15
REMARK    6  A    between atoms: C_15  and  N_16
REMARK    7  A    between atoms: N_19  and  C_20
REMARK                            x       y       z     vdW  Elec       q    Type
REMARK                         _______ _______ _______ _____ _____    ______ ____
ROOT
ATOM      1  C   UNL     1       6.788   6.633  17.524  0.00  0.00    +0.000 A 
ATOM      2  C   UNL     1       7.194   5.421  16.953  0.00  0.00    +0.000 A 
ATOM      3  C   UNL     1       6.305   4.345  16.877  0.00  0.00    +0.000 A 
ATOM      4  C   UNL     1       5.002   4.464  17.374  0.00  0.00    +0.000 A 
ATOM      5  C   UNL     1       4.557   5.690  17.900  0.00  0.00    +0.000 A 
ATOM      6  C   UNL     1       5.466   6.758  17.980  0.00  0.00    +0.000 A 
ATOM      7  N   UNL     1       3.255   5.839  18.434  0.00  0.00    +0.000 N 
ATOM      8  C   UNL     1       2.539   4.765  19.006  0.00  0.00    +0.000 A 
ATOM      9  C   UNL     1       1.645   5.013  20.063  0.00  0.00    +0.000 A 
ATOM     10  C   UNL     1       1.047   3.962  20.762  0.00  0.00    +0.000 A 
ATOM     11  C   UNL     1       1.320   2.647  20.403  0.00  0.00    +0.000 A 
ATOM     12  C   UNL     1       2.186   2.379  19.342  0.00  0.00    +0.000 A 
ATOM     13  C   UNL     1       2.806   3.429  18.651  0.00  0.00    +0.000 A 
ATOM     14  S   UNL     1       3.937   3.029  17.322  0.00  0.00    +0.000 S 
ENDROOT
BRANCH   1  16
ATOM     15  F   UNL     1       8.570   7.662  18.764  0.00  0.00    +0.000 F 
ATOM     16  C   UNL     1       7.742   7.788  17.690  0.00  0.00    +0.000 C 
ATOM     17  F   UNL     1       7.096   8.977  17.858  0.00  0.00    +0.000 F 
ATOM     18  F   UNL     1       8.555   7.958  16.610  0.00  0.00    +0.000 F 
ENDBRANCH   1  16
BRANCH   7  19
ATOM     19  C   UNL     1       2.440   6.908  17.821  0.00  0.00    +0.000 C 
BRANCH  19  20
ATOM     20  C   UNL     1       2.281   8.139  18.730  0.00  0.00    +0.000 C 
BRANCH  20  21
ATOM     21  C   UNL     1       1.451   9.243  18.061  0.00  0.00    +0.000 C 
BRANCH  21  22
ATOM     22  C   UNL     1       0.435   9.928  18.990  0.00  0.00    +0.000 C 
BRANCH  22  23
ATOM     23  N   UNL     1       1.042  10.856  19.958  0.00  0.00    +0.000 NA
ATOM     24  C   UNL     1       0.470  12.224  19.875  0.00  0.00    +0.000 C 
ATOM     25  C   UNL     1      -1.017  12.304  20.259  0.00  0.00    +0.000 C 
ATOM     26  N   UNL     1      -1.216  11.773  21.614  0.00  0.00    +0.000 N 
ATOM     27  C   UNL     1      -0.624  10.453  21.889  0.00  0.00    +0.000 C 
ATOM     28  C   UNL     1       0.836  10.378  21.353  0.00  0.00    +0.000 C 
BRANCH  26  29
ATOM     29  C   UNL     1      -1.776  12.542  22.610  0.00  0.00    +0.000 A 
ATOM     30  C   UNL     1      -3.032  12.244  23.164  0.00  0.00    +0.000 A 
ATOM     31  C   UNL     1      -3.625  13.062  24.129  0.00  0.00    +0.000 A 
ATOM     32  C   UNL     1      -2.965  14.203  24.575  0.00  0.00    +0.000 A 
ATOM     33  C   UNL     1      -1.711  14.513  24.070  0.00  0.00    +0.000 A 
ATOM     34  C   UNL     1      -1.124  13.686  23.104  0.00  0.00    +0.000 A 
ENDBRANCH  26  29
ENDBRANCH  22  23
ENDBRANCH  21  22
ENDBRANCH  20  21
ENDBRANCH  19  20
ENDBRANCH   7  19
TORSDOF 7
ENDMDL
MODEL 4
REMARK VINA RESULT:      -8.6      0.871      1.299
REMARK  Name = 
REMARK  7 active torsions:
REMARK  status: ('A' for Active; 'I' for Inactive)
REMARK    1  A    between atoms: C_2  and  C_5
REMARK    2  A    between atoms: N_11  and  C_12
REMARK    3  A    between atoms: C_12  and  C_13
REMARK    4  A    between atoms: C_13  and  C_14
REMARK    5  A    between atoms: C_14  and  C_15
REMARK    6  A    between atoms: C_15  and  N_16
REMARK    7  A    between atoms: N_19  and  C_20
REMARK                            x       y       z     vdW  Elec       q    Type
REMARK                         _______ _______ _______ _____ _____    ______ ____
ROOT
ATOM      1  C   UNL     1       6.394   6.647  17.402  0.00  0.00    +0.000 A 
ATOM      2  C   UNL     1       6.335   5.716  16.358  0.00  0.00    +0.000 A 
ATOM      3  C   UNL     1       5.258   4.831  16.262  0.00  0.00    +0.000 A 
ATOM      4  C   UNL     1       4.228   4.861  17.211  0.00  0.00    +0.000 A 
ATOM      5  C   UNL     1       4.239   5.825  18.234  0.00  0.00    +0.000 A 
ATOM      6  C   UNL     1       5.336   6.700  18.323  0.00  0.00    +0.000 A 
ATOM      7  N   UNL     1       3.229   5.869  19.223  0.00  0.00    +0.000 N 
ATOM      8  C   UNL     1       2.512   4.723  19.630  0.00  0.00    +0.000 A 
ATOM      9  C   UNL     1       2.061   4.623  20.959  0.00  0.00    +0.000 A 
ATOM     10  C   UNL     1       1.497   3.439  21.440  0.00  0.00    +0.000 A 
ATOM     11  C   UNL     1       1.358   2.344  20.595  0.00  0.00    +0.000 A 
ATOM     12  C   UNL     1       1.777   2.430  19.267  0.00  0.00    +0.000 A 
ATOM     13  C   UNL     1       2.364   3.608  18.784  0.00  0.00    +0.000 A 
ATOM     14  S   UNL     1       2.918   3.652  17.082  0.00  0.00    +0.000 S 
ENDROOT
BRANCH   1  16
ATOM     15  F   UNL     1       8.378   7.226  18.627  0.00  0.00    +0.000 F 
ATOM     16  C   UNL     1       7.578   7.564  17.578  0.00  0.00    +0.000 C 
ATOM     17  F   UNL     1       7.205   8.857  17.799  0.00  0.00    +0.000 F 
ATOM     18  F   UNL     1       8.387   7.593  16.484  0.00  0.00    +0.000 F 
ENDBRANCH   1  16
BRANCH   7  19
ATOM     19  C   UNL     1       2.513   7.157  19.339  0.00  0.00    +0.000 C 
BRANCH  19  20
ATOM     20  C   UNL     1       1.799   7.566  18.039  0.00  0.00    +0.000 C 
BRANCH  20  21
ATOM     21  C   UNL     1       1.856   9.081  17.805  0.00  0.00    +0.000 C 
BRANCH  21  22
ATOM     22  C   UNL     1       0.801   9.886  18.582  0.00  0.00    +0.000 C 
BRANCH  22  23
ATOM     23  N   UNL     1       1.362  10.724  19.655  0.00  0.00    +0.000 NA
ATOM     24  C   UNL     1       0.899  12.134  19.580  0.00  0.00    +0.000 C 
ATOM     25  C   UNL     1      -0.612  12.308  19.807  0.00  0.00    +0.000 C 
ATOM     26  N   UNL     1      -0.995  11.737  21.104  0.00  0.00    +0.000 N 
ATOM     27  C   UNL     1      -0.531  10.365  21.374  0.00  0.00    +0.000 C 
ATOM     28  C   UNL     1       0.970  10.204  20.993  0.00  0.00    +0.000 C 
BRANCH  26  29
ATOM     29  C   UNL     1      -1.606  12.502  22.073  0.00  0.00    +0.000 A 
ATOM     30  C   UNL     1      -0.912  13.487  22.792  0.00  0.00    +0.000 A 
ATOM     31  C   UNL     1      -1.519  14.217  23.818  0.00  0.00    +0.000 A 
ATOM     32  C   UNL     1      -2.852  13.983  24.144  0.00  0.00    +0.000 A 
ATOM     33  C   UNL     1      -3.576  13.037  23.435  0.00  0.00    +0.000 A 
ATOM     34  C   UNL     1      -2.959  12.312  22.407  0.00  0.00    +0.000 A 
ENDBRANCH  26  29
ENDBRANCH  22  23
ENDBRANCH  21  22
ENDBRANCH  20  21
ENDBRANCH  19  20
ENDBRANCH   7  19
TORSDOF 7
ENDMDL
MODEL 5
REMARK VINA RESULT:      -8.5      1.114      1.505
REMARK  Name = 
REMARK  7 active torsions:
REMARK  status: ('A' for Active; 'I' for Inactive)
REMARK    1  A    between atoms: C_2  and  C_5
REMARK    2  A    between atoms: N_11  and  C_12
REMARK    3  A    between atoms: C_12  and  C_13
REMARK    4  A    between atoms: C_13  and  C_14
REMARK    5  A    between atoms: C_14  and  C_15
REMARK    6  A    between atoms: C_15  and  N_16
REMARK    7  A    between atoms: N_19  and  C_20
REMARK                            x       y       z     vdW  Elec       q    Type
REMARK                         _______ _______ _______ _____ _____    ______ ____
ROOT
ATOM      1  C   UNL     1       6.808   6.610  17.508  0.00  0.00    +0.000 A 
ATOM      2  C   UNL     1       7.223   5.395  16.949  0.00  0.00    +0.000 A 
ATOM      3  C   UNL     1       6.342   4.313  16.881  0.00  0.00    +0.000 A 
ATOM      4  C   UNL     1       5.037   4.427  17.374  0.00  0.00    +0.000 A 
ATOM      5  C   UNL     1       4.582   5.655  17.888  0.00  0.00    +0.000 A 
ATOM      6  C   UNL     1       5.484   6.730  17.960  0.00  0.00    +0.000 A 
ATOM      7  N   UNL     1       3.278   5.800  18.417  0.00  0.00    +0.000 N 
ATOM      8  C   UNL     1       2.568   4.727  18.997  0.00  0.00    +0.000 A 
ATOM      9  C   UNL     1       1.669   4.978  20.050  0.00  0.00    +0.000 A 
ATOM     10  C   UNL     1       1.077   3.929  20.758  0.00  0.00    +0.000 A 
ATOM     11  C   UNL     1       1.360   2.613  20.411  0.00  0.00    +0.000 A 
ATOM     12  C   UNL     1       2.230   2.341  19.355  0.00  0.00    +0.000 A 
ATOM     13  C   UNL     1       2.845   3.389  18.655  0.00  0.00    +0.000 A 
ATOM     14  S   UNL     1       3.982   2.985  17.333  0.00  0.00    +0.000 S 
ENDROOT
BRANCH   1  16
ATOM     15  F   UNL     1       8.582   7.951  16.599  0.00  0.00    +0.000 F 
ATOM     16  C   UNL     1       7.754   7.773  17.666  0.00  0.00    +0.000 C 
ATOM     17  F   UNL     1       8.570   7.635  18.749  0.00  0.00    +0.000 F 
ATOM     18  F   UNL     1       7.105   8.958  17.839  0.00  0.00    +0.000 F 
ENDBRANCH   1  16
BRANCH   7  19
ATOM     19  C   UNL     1       2.457   6.858  17.792  0.00  0.00    +0.000 C 
BRANCH  19  20
ATOM     20  C   UNL     1       2.269   8.087  18.698  0.00  0.00    +0.000 C 
BRANCH  20  21
ATOM     21  C   UNL     1       1.489   9.205  17.995  0.00  0.00    +0.000 C 
BRANCH  21  22
ATOM     22  C   UNL     1       1.392  10.515  18.794  0.00  0.00    +0.000 C 
BRANCH  22  23
ATOM     23  N   UNL     1       0.077  11.171  18.706  0.00  0.00    +0.000 NA
ATOM     24  C   UNL     1      -0.937  10.541  19.591  0.00  0.00    +0.000 C 
ATOM     25  C   UNL     1      -0.624  10.673  21.091  0.00  0.00    +0.000 C 
ATOM     26  N   UNL     1      -0.473  12.088  21.452  0.00  0.00    +0.000 N 
ATOM     27  C   UNL     1       0.435  12.882  20.606  0.00  0.00    +0.000 C 
ATOM     28  C   UNL     1       0.171  12.604  19.098  0.00  0.00    +0.000 C 
BRANCH  26  29
ATOM     29  C   UNL     1      -1.264  12.671  22.417  0.00  0.00    +0.000 A 
ATOM     30  C   UNL     1      -2.499  12.122  22.800  0.00  0.00    +0.000 A 
ATOM     31  C   UNL     1      -3.328  12.750  23.733  0.00  0.00    +0.000 A 
ATOM     32  C   UNL     1      -2.932  13.949  24.319  0.00  0.00    +0.000 A 
ATOM     33  C   UNL     1      -1.706  14.505  23.986  0.00  0.00    +0.000 A 
ATOM     34  C   UNL     1      -0.882  13.867  23.050  0.00  0.00    +0.000 A 
ENDBRANCH  26  29
ENDBRANCH  22  23
ENDBRANCH  21  22
ENDBRANCH  20  21
ENDBRANCH  19  20
ENDBRANCH   7  19
TORSDOF 7
ENDMDL
MODEL 6
REMARK VINA RESULT:      -8.4      0.967      1.423
REMARK  Name = 
REMARK  7 active torsions:
REMARK  status: ('A' for Active; 'I' for Inactive)
REMARK    1  A    between atoms: C_2  and  C_5
REMARK    2  A    between atoms: N_11  and  C_12
REMARK    3  A    between atoms: C_12  and  C_13
REMARK    4  A    between atoms: C_13  and  C_14
REMARK    5  A    between atoms: C_14  and  C_15
REMARK    6  A    between atoms: C_15  and  N_16
REMARK    7  A    between atoms: N_19  and  C_20
REMARK                            x       y       z     vdW  Elec       q    Type
REMARK                         _______ _______ _______ _____ _____    ______ ____
ROOT
ATOM      1  C   UNL     1       6.306   6.526  17.364  0.00  0.00    +0.000 A 
ATOM      2  C   UNL     1       6.215   5.597  16.320  0.00  0.00    +0.000 A 
ATOM      3  C   UNL     1       5.133   4.716  16.253  0.00  0.00    +0.000 A 
ATOM      4  C   UNL     1       4.130   4.747  17.230  0.00  0.00    +0.000 A 
ATOM      5  C   UNL     1       4.172   5.709  18.254  0.00  0.00    +0.000 A 
ATOM      6  C   UNL     1       5.273   6.580  18.314  0.00  0.00    +0.000 A 
ATOM      7  N   UNL     1       3.190   5.753  19.271  0.00  0.00    +0.000 N 
ATOM      8  C   UNL     1       2.481   4.608  19.695  0.00  0.00    +0.000 A 
ATOM      9  C   UNL     1       2.067   4.506  21.036  0.00  0.00    +0.000 A 
ATOM     10  C   UNL     1       1.513   3.323  21.531  0.00  0.00    +0.000 A 
ATOM     11  C   UNL     1       1.348   2.230  20.688  0.00  0.00    +0.000 A 
ATOM     12  C   UNL     1       1.730   2.318  19.349  0.00  0.00    +0.000 A 
ATOM     13  C   UNL     1       2.307   3.495  18.852  0.00  0.00    +0.000 A 
ATOM     14  S   UNL     1       2.813   3.542  17.135  0.00  0.00    +0.000 S 
ENDROOT
BRANCH   1  16
ATOM     15  F   UNL     1       8.324   7.432  16.429  0.00  0.00    +0.000 F 
ATOM     16  C   UNL     1       7.496   7.440  17.509  0.00  0.00    +0.000 C 
ATOM     17  F   UNL     1       8.277   7.110  18.577  0.00  0.00    +0.000 F 
ATOM     18  F   UNL     1       7.140   8.741  17.699  0.00  0.00    +0.000 F 
ENDBRANCH   1  16
BRANCH   7  19
ATOM     19  C   UNL     1       2.481   7.043  19.409  0.00  0.00    +0.000 C 
BRANCH  19  20
ATOM     20  C   UNL     1       2.055   7.641  18.057  0.00  0.00    +0.000 C 
BRANCH  20  21
ATOM     21  C   UNL     1       2.239   9.164  18.020  0.00  0.00    +0.000 C 
BRANCH  21  22
ATOM     22  C   UNL     1       0.926   9.965  18.033  0.00  0.00    +0.000 C 
BRANCH  22  23
ATOM     23  N   UNL     1       0.101   9.739  19.230  0.00  0.00    +0.000 NA
ATOM     24  C   UNL     1       0.730  10.269  20.467  0.00  0.00    +0.000 C 
ATOM     25  C   UNL     1       0.886  11.799  20.482  0.00  0.00    +0.000 C 
ATOM     26  N   UNL     1      -0.420  12.439  20.286  0.00  0.00    +0.000 N 
ATOM     27  C   UNL     1      -1.217  11.957  19.145  0.00  0.00    +0.000 C 
ATOM     28  C   UNL     1      -1.225  10.401  19.094  0.00  0.00    +0.000 C 
BRANCH  26  29
ATOM     29  C   UNL     1      -0.935  13.318  21.214  0.00  0.00    +0.000 A 
ATOM     30  C   UNL     1      -0.753  13.135  22.595  0.00  0.00    +0.000 A 
ATOM     31  C   UNL     1      -1.330  13.992  23.535  0.00  0.00    +0.000 A 
ATOM     32  C   UNL     1      -2.103  15.070  23.112  0.00  0.00    +0.000 A 
ATOM     33  C   UNL     1      -2.281  15.297  21.755  0.00  0.00    +0.000 A 
ATOM     34  C   UNL     1      -1.697  14.433  20.821  0.00  0.00    +0.000 A 
ENDBRANCH  26  29
ENDBRANCH  22  23
ENDBRANCH  21  22
ENDBRANCH  20  21
ENDBRANCH  19  20
ENDBRANCH   7  19
TORSDOF 7
ENDMDL
MODEL 7
REMARK VINA RESULT:      -8.3      1.339      1.505
REMARK  Name = 
REMARK  7 active torsions:
REMARK  status: ('A' for Active; 'I' for Inactive)
REMARK    1  A    between atoms: C_2  and  C_5
REMARK    2  A    between atoms: N_11  and  C_12
REMARK    3  A    between atoms: C_12  and  C_13
REMARK    4  A    between atoms: C_13  and  C_14
REMARK    5  A    between atoms: C_14  and  C_15
REMARK    6  A    between atoms: C_15  and  N_16
REMARK    7  A    between atoms: N_19  and  C_20
REMARK                            x       y       z     vdW  Elec       q    Type
REMARK                         _______ _______ _______ _____ _____    ______ ____
ROOT
ATOM      1  C   UNL     1       6.492   6.654  17.417  0.00  0.00    +0.000 A 
ATOM      2  C   UNL     1       6.516   5.664  16.427  0.00  0.00    +0.000 A 
ATOM      3  C   UNL     1       5.473   4.739  16.329  0.00  0.00    +0.000 A 
ATOM      4  C   UNL     1       4.394   4.788  17.221  0.00  0.00    +0.000 A 
ATOM      5  C   UNL     1       4.323   5.808  18.186  0.00  0.00    +0.000 A 
ATOM      6  C   UNL     1       5.386   6.723  18.279  0.00  0.00    +0.000 A 
ATOM      7  N   UNL     1       3.262   5.873  19.119  0.00  0.00    +0.000 N 
ATOM      8  C   UNL     1       2.559   4.728  19.555  0.00  0.00    +0.000 A 
ATOM      9  C   UNL     1       2.043   4.688  20.863  0.00  0.00    +0.000 A 
ATOM     10  C   UNL     1       1.492   3.515  21.383  0.00  0.00    +0.000 A 
ATOM     11  C   UNL     1       1.431   2.370  20.598  0.00  0.00    +0.000 A 
ATOM     12  C   UNL     1       1.916   2.395  19.290  0.00  0.00    +0.000 A 
ATOM     13  C   UNL     1       2.491   3.563  18.769  0.00  0.00    +0.000 A 
ATOM     14  S   UNL     1       3.131   3.530  17.098  0.00  0.00    +0.000 S 
ENDROOT
BRANCH   1  16
ATOM     15  F   UNL     1       8.443   7.316  18.653  0.00  0.00    +0.000 F 
ATOM     16  C   UNL     1       7.635   7.619  17.599  0.00  0.00    +0.000 C 
ATOM     17  F   UNL     1       7.209   8.896  17.816  0.00  0.00    +0.000 F 
ATOM     18  F   UNL     1       8.449   7.680  16.509  0.00  0.00    +0.000 F 
ENDBRANCH   1  16
BRANCH   7  19
ATOM     19  C   UNL     1       2.501   7.140  19.123  0.00  0.00    +0.000 C 
BRANCH  19  20
ATOM     20  C   UNL     1       2.325   7.741  17.717  0.00  0.00    +0.000 C 
BRANCH  20  21
ATOM     21  C   UNL     1       1.430   8.986  17.733  0.00  0.00    +0.000 C 
BRANCH  21  22
ATOM     22  C   UNL     1       1.240   9.618  19.122  0.00  0.00    +0.000 C 
BRANCH  22  23
ATOM     23  N   UNL     1      -0.128  10.095  19.378  0.00  0.00    +0.000 NA
ATOM     24  C   UNL     1      -0.509   9.997  20.811  0.00  0.00    +0.000 C 
ATOM     25  C   UNL     1       0.315  10.904  21.740  0.00  0.00    +0.000 C 
ATOM     26  N   UNL     1       0.210  12.301  21.302  0.00  0.00    +0.000 N 
ATOM     27  C   UNL     1       0.470  12.557  19.875  0.00  0.00    +0.000 C 
ATOM     28  C   UNL     1      -0.276  11.523  18.983  0.00  0.00    +0.000 C 
BRANCH  26  29
ATOM     29  C   UNL     1      -0.267  13.282  22.143  0.00  0.00    +0.000 A 
ATOM     30  C   UNL     1      -1.315  13.044  23.047  0.00  0.00    +0.000 A 
ATOM     31  C   UNL     1      -1.839  14.058  23.853  0.00  0.00    +0.000 A 
ATOM     32  C   UNL     1      -1.315  15.345  23.780  0.00  0.00    +0.000 A 
ATOM     33  C   UNL     1      -0.261  15.610  22.918  0.00  0.00    +0.000 A 
ATOM     34  C   UNL     1       0.258  14.586  22.116  0.00  0.00    +0.000 A 
ENDBRANCH  26  29
ENDBRANCH  22  23
ENDBRANCH  21  22
ENDBRANCH  20  21
ENDBRANCH  19  20
ENDBRANCH   7  19
TORSDOF 7
ENDMDL
MODEL 8
REMARK VINA RESULT:      -8.3      0.802      1.456
REMARK  Name = 
REMARK  7 active torsions:
REMARK  status: ('A' for Active; 'I' for Inactive)
REMARK    1  A    between atoms: C_2  and  C_5
REMARK    2  A    between atoms: N_11  and  C_12
REMARK    3  A    between atoms: C_12  and  C_13
REMARK    4  A    between atoms: C_13  and  C_14
REMARK    5  A    between atoms: C_14  and  C_15
REMARK    6  A    between atoms: C_15  and  N_16
REMARK    7  A    between atoms: N_19  and  C_20
REMARK                            x       y       z     vdW  Elec       q    Type
REMARK                         _______ _______ _______ _____ _____    ______ ____
ROOT
ATOM      1  C   UNL     1       6.707   6.578  17.548  0.00  0.00    +0.000 A 
ATOM      2  C   UNL     1       7.089   5.390  16.913  0.00  0.00    +0.000 A 
ATOM      3  C   UNL     1       6.198   4.318  16.827  0.00  0.00    +0.000 A 
ATOM      4  C   UNL     1       4.915   4.416  17.378  0.00  0.00    +0.000 A 
ATOM      5  C   UNL     1       4.491   5.619  17.971  0.00  0.00    +0.000 A 
ATOM      6  C   UNL     1       5.404   6.683  18.059  0.00  0.00    +0.000 A 
ATOM      7  N   UNL     1       3.211   5.745  18.560  0.00  0.00    +0.000 N 
ATOM      8  C   UNL     1       2.517   4.648  19.114  0.00  0.00    +0.000 A 
ATOM      9  C   UNL     1       1.663   4.852  20.215  0.00  0.00    +0.000 A 
ATOM     10  C   UNL     1       1.092   3.772  20.892  0.00  0.00    +0.000 A 
ATOM     11  C   UNL     1       1.349   2.474  20.469  0.00  0.00    +0.000 A 
ATOM     12  C   UNL     1       2.174   2.250  19.365  0.00  0.00    +0.000 A 
ATOM     13  C   UNL     1       2.769   3.328  18.695  0.00  0.00    +0.000 A 
ATOM     14  S   UNL     1       3.847   2.984  17.308  0.00  0.00    +0.000 S 
ENDROOT
BRANCH   1  16
ATOM     15  F   UNL     1       8.483   7.593  18.808  0.00  0.00    +0.000 F 
ATOM     16  C   UNL     1       7.668   7.726  17.725  0.00  0.00    +0.000 C 
ATOM     17  F   UNL     1       7.030   8.919  17.887  0.00  0.00    +0.000 F 
ATOM     18  F   UNL     1       8.494   7.890  16.654  0.00  0.00    +0.000 F 
ENDBRANCH   1  16
BRANCH   7  19
ATOM     19  C   UNL     1       2.374   6.838  18.023  0.00  0.00    +0.000 C 
BRANCH  19  20
ATOM     20  C   UNL     1       2.215   8.011  19.005  0.00  0.00    +0.000 C 
BRANCH  20  21
ATOM     21  C   UNL     1       2.102   9.358  18.278  0.00  0.00    +0.000 C 
BRANCH  21  22
ATOM     22  C   UNL     1       0.697   9.982  18.305  0.00  0.00    +0.000 C 
BRANCH  22  23
ATOM     23  N   UNL     1       0.682  11.398  18.708  0.00  0.00    +0.000 NA
ATOM     24  C   UNL     1      -0.611  12.064  18.405  0.00  0.00    +0.000 C 
ATOM     25  C   UNL     1      -1.804  11.502  19.197  0.00  0.00    +0.000 C 
ATOM     26  N   UNL     1      -1.536  11.589  20.638  0.00  0.00    +0.000 N 
ATOM     27  C   UNL     1      -0.243  11.050  21.094  0.00  0.00    +0.000 C 
ATOM     28  C   UNL     1       0.913  11.536  20.172  0.00  0.00    +0.000 C 
BRANCH  26  29
ATOM     29  C   UNL     1      -2.374  12.284  21.483  0.00  0.00    +0.000 A 
ATOM     30  C   UNL     1      -2.236  12.230  22.879  0.00  0.00    +0.000 A 
ATOM     31  C   UNL     1      -3.126  12.885  23.735  0.00  0.00    +0.000 A 
ATOM     32  C   UNL     1      -4.180  13.625  23.207  0.00  0.00    +0.000 A 
ATOM     33  C   UNL     1      -4.330  13.723  21.832  0.00  0.00    +0.000 A 
ATOM     34  C   UNL     1      -3.432  13.064  20.983  0.00  0.00    +0.000 A 
ENDBRANCH  26  29
ENDBRANCH  22  23
ENDBRANCH  21  22
ENDBRANCH  20  21
ENDBRANCH  19  20
ENDBRANCH   7  19
TORSDOF 7
ENDMDL
MODEL 9
REMARK VINA RESULT:      -8.2      0.670      1.287
REMARK  Name = 
REMARK  7 active torsions:
REMARK  status: ('A' for Active; 'I' for Inactive)
REMARK    1  A    between atoms: C_2  and  C_5
REMARK    2  A    between atoms: N_11  and  C_12
REMARK    3  A    between atoms: C_12  and  C_13
REMARK    4  A    between atoms: C_13  and  C_14
REMARK    5  A    between atoms: C_14  and  C_15
REMARK    6  A    between atoms: C_15  and  N_16
REMARK    7  A    between atoms: N_19  and  C_20
REMARK                            x       y       z     vdW  Elec       q    Type
REMARK                         _______ _______ _______ _____ _____    ______ ____
ROOT
ATOM      1  C   UNL     1       6.360   6.599  17.334  0.00  0.00    +0.000 A 
ATOM      2  C   UNL     1       6.295   5.673  16.286  0.00  0.00    +0.000 A 
ATOM      3  C   UNL     1       5.211   4.798  16.184  0.00  0.00    +0.000 A 
ATOM      4  C   UNL     1       4.178   4.833  17.129  0.00  0.00    +0.000 A 
ATOM      5  C   UNL     1       4.195   5.793  18.156  0.00  0.00    +0.000 A 
ATOM      6  C   UNL     1       5.299   6.658  18.251  0.00  0.00    +0.000 A 
ATOM      7  N   UNL     1       3.182   5.842  19.142  0.00  0.00    +0.000 N 
ATOM      8  C   UNL     1       2.453   4.701  19.542  0.00  0.00    +0.000 A 
ATOM      9  C   UNL     1       1.997   4.599  20.870  0.00  0.00    +0.000 A 
ATOM     10  C   UNL     1       1.422   3.418  21.345  0.00  0.00    +0.000 A 
ATOM     11  C   UNL     1       1.276   2.328  20.495  0.00  0.00    +0.000 A 
ATOM     12  C   UNL     1       1.700   2.415  19.169  0.00  0.00    +0.000 A 
ATOM     13  C   UNL     1       2.299   3.590  18.692  0.00  0.00    +0.000 A 
ATOM     14  S   UNL     1       2.858   3.636  16.992  0.00  0.00    +0.000 S 
ENDROOT
BRANCH   1  16
ATOM     15  F   UNL     1       8.370   7.555  16.431  0.00  0.00    +0.000 F 
ATOM     16  C   UNL     1       7.550   7.505  17.517  0.00  0.00    +0.000 C 
ATOM     17  F   UNL     1       8.339   7.122  18.560  0.00  0.00    +0.000 F 
ATOM     18  F   UNL     1       7.194   8.794  17.777  0.00  0.00    +0.000 F 
ENDBRANCH   1  16
BRANCH   7  19
ATOM     19  C   UNL     1       2.477   7.135  19.260  0.00  0.00    +0.000 C 
BRANCH  19  20
ATOM     20  C   UNL     1       2.518   7.963  17.964  0.00  0.00    +0.000 C 
BRANCH  20  21
ATOM     21  C   UNL     1       1.436   9.049  17.942  0.00  0.00    +0.000 C 
BRANCH  21  22
ATOM     22  C   UNL     1       1.150   9.693  19.309  0.00  0.00    +0.000 C 
BRANCH  22  23
ATOM     23  N   UNL     1       1.060  11.162  19.269  0.00  0.00    +0.000 NA
ATOM     24  C   UNL     1      -0.216  11.641  18.677  0.00  0.00    +0.000 C 
ATOM     25  C   UNL     1      -1.462  11.275  19.500  0.00  0.00    +0.000 C 
ATOM     26  N   UNL     1      -1.333  11.795  20.867  0.00  0.00    +0.000 N 
ATOM     27  C   UNL     1      -0.074  11.483  21.566  0.00  0.00    +0.000 C 
ATOM     28  C   UNL     1       1.150  11.737  20.639  0.00  0.00    +0.000 C 
BRANCH  26  29
ATOM     29  C   UNL     1      -2.264  12.663  21.395  0.00  0.00    +0.000 A 
ATOM     30  C   UNL     1      -2.505  13.928  20.836  0.00  0.00    +0.000 A 
ATOM     31  C   UNL     1      -3.403  14.830  21.412  0.00  0.00    +0.000 A 
ATOM     32  C   UNL     1      -4.096  14.480  22.567  0.00  0.00    +0.000 A 
ATOM     33  C   UNL     1      -3.904  13.228  23.130  0.00  0.00    +0.000 A 
ATOM     34  C   UNL     1      -3.003  12.330  22.545  0.00  0.00    +0.000 A 
ENDBRANCH  26  29
ENDBRANCH  22  23
ENDBRANCH  21  22
ENDBRANCH  20  21
ENDBRANCH  19  20
ENDBRANCH   7  19
TORSDOF 7
ENDMDL
