MODEL 1
REMARK VINA RESULT:      -7.6      0.000      0.000
REMARK  Name = 
REMARK  5 active torsions:
REMARK  status: ('A' for Active; 'I' for Inactive)
REMARK    1  A    between atoms: C_1  and  C_2
REMARK    2  A    between atoms: C_5  and  N_6
REMARK    3  A    between atoms: N_6  and  C_7
REMARK    4  A    between atoms: C_13  and  C_14
REMARK    5  A    between atoms: C_15  and  C_16
REMARK                            x       y       z     vdW  Elec       q    Type
REMARK                         _______ _______ _______ _____ _____    ______ ____
ROOT
ATOM      1  C   UNL     1       5.745   3.785  16.113  0.00  0.00    +0.000 A 
ATOM      2  N   UNL     1       5.805   3.560  14.771  0.00  0.00    +0.000 NA
ATOM      3  C   UNL     1       6.539   4.365  13.989  0.00  0.00    +0.000 A 
ATOM      4  N   UNL     1       7.264   5.426  14.360  0.00  0.00    +0.000 NA
ATOM      5  C   UNL     1       7.184   5.630  15.681  0.00  0.00    +0.000 A 
ATOM      6  N   UNL     1       7.830   6.641  16.326  0.00  0.00    +0.000 N 
ATOM      7  C   UNL     1       7.557   6.597  17.670  0.00  0.00    +0.000 A 
ATOM      8  C   UNL     1       8.142   7.594  18.605  0.00  0.00    +0.000 C 
ATOM      9  C   UNL     1       6.700   5.523  17.892  0.00  0.00    +0.000 A 
ATOM     10  C   UNL     1       6.123   5.125  19.204  0.00  0.00    +0.000 C 
ATOM     11  C   UNL     1       6.472   4.890  16.616  0.00  0.00    +0.000 A 
ATOM     12  H   UNL     1       8.415   7.314  15.852  0.00  0.00    +0.000 HD
ENDROOT
BRANCH   1  13
ATOM     13  N   UNL     1       5.024   2.908  16.940  0.00  0.00    +0.000 N 
ATOM     14  H   UNL     1       5.215   1.934  16.769  0.00  0.00    +0.000 HD
BRANCH  13  19
ATOM     15  C   UNL     1       0.684   4.179  20.476  0.00  0.00    +0.000 C 
ATOM     16  C   UNL     1       1.796   3.834  19.533  0.00  0.00    +0.000 A 
ATOM     17  C   UNL     1       1.961   4.505  18.319  0.00  0.00    +0.000 A 
ATOM     18  C   UNL     1       3.019   4.174  17.461  0.00  0.00    +0.000 A 
ATOM     19  C   UNL     1       3.935   3.167  17.794  0.00  0.00    +0.000 A 
ATOM     20  C   UNL     1       3.745   2.493  19.005  0.00  0.00    +0.000 A 
ATOM     21  C   UNL     1       2.694   2.819  19.867  0.00  0.00    +0.000 A 
ENDBRANCH  13  19
ENDBRANCH   1  13
TORSDOF 2
ENDMDL
MODEL 2
REMARK VINA RESULT:      -7.6      0.116      1.106
REMARK  Name = 
REMARK  5 active torsions:
REMARK  status: ('A' for Active; 'I' for Inactive)
REMARK    1  A    between atoms: C_1  and  C_2
REMARK    2  A    between atoms: C_5  and  N_6
REMARK    3  A    between atoms: N_6  and  C_7
REMARK    4  A    between atoms: C_13  and  C_14
REMARK    5  A    between atoms: C_15  and  C_16
REMARK                            x       y       z     vdW  Elec       q    Type
REMARK                         _______ _______ _______ _____ _____    ______ ____
ROOT
ATOM      1  C   UNL     1       5.771   3.825  16.121  0.00  0.00    +0.000 A 
ATOM      2  N   UNL     1       5.835   3.586  14.782  0.00  0.00    +0.000 NA
ATOM      3  C   UNL     1       6.573   4.382  13.994  0.00  0.00    +0.000 A 
ATOM      4  N   UNL     1       7.296   5.446  14.356  0.00  0.00    +0.000 NA
ATOM      5  C   UNL     1       7.213   5.665  15.674  0.00  0.00    +0.000 A 
ATOM      6  N   UNL     1       7.857   6.682  16.311  0.00  0.00    +0.000 N 
ATOM      7  C   UNL     1       7.580   6.653  17.654  0.00  0.00    +0.000 A 
ATOM      8  C   UNL     1       8.163   7.659  18.580  0.00  0.00    +0.000 C 
ATOM      9  C   UNL     1       6.722   5.582  17.884  0.00  0.00    +0.000 A 
ATOM     10  C   UNL     1       6.140   5.197  19.200  0.00  0.00    +0.000 C 
ATOM     11  C   UNL     1       6.498   4.935  16.614  0.00  0.00    +0.000 A 
ATOM     12  H   UNL     1       8.445   7.349  15.831  0.00  0.00    +0.000 HD
ENDROOT
BRANCH   1  13
ATOM     13  N   UNL     1       5.047   2.957  16.955  0.00  0.00    +0.000 N 
ATOM     14  H   UNL     1       5.223   1.981  16.782  0.00  0.00    +0.000 HD
BRANCH  13  19
ATOM     15  C   UNL     1       0.565   3.858  20.428  0.00  0.00    +0.000 C 
ATOM     16  C   UNL     1       1.753   3.636  19.543  0.00  0.00    +0.000 A 
ATOM     17  C   UNL     1       2.730   2.685  19.852  0.00  0.00    +0.000 A 
ATOM     18  C   UNL     1       3.824   2.487  18.999  0.00  0.00    +0.000 A 
ATOM     19  C   UNL     1       3.971   3.231  17.821  0.00  0.00    +0.000 A 
ATOM     20  C   UNL     1       2.994   4.191  17.535  0.00  0.00    +0.000 A 
ATOM     21  C   UNL     1       1.898   4.393  18.379  0.00  0.00    +0.000 A 
ENDBRANCH  13  19
ENDBRANCH   1  13
TORSDOF 2
ENDMDL
MODEL 3
REMARK VINA RESULT:      -7.5      3.326      4.942
REMARK  Name = 
REMARK  5 active torsions:
REMARK  status: ('A' for Active; 'I' for Inactive)
REMARK    1  A    between atoms: C_1  and  C_2
REMARK    2  A    between atoms: C_5  and  N_6
REMARK    3  A    between atoms: N_6  and  C_7
REMARK    4  A    between atoms: C_13  and  C_14
REMARK    5  A    between atoms: C_15  and  C_16
REMARK                            x       y       z     vdW  Elec       q    Type
REMARK                         _______ _______ _______ _____ _____    ______ ____
ROOT
ATOM      1  C   UNL     1       3.235   4.998  19.105  0.00  0.00    +0.000 A 
ATOM      2  N   UNL     1       2.395   4.010  19.520  0.00  0.00    +0.000 NA
ATOM      3  C   UNL     1       2.463   2.793  18.960  0.00  0.00    +0.000 A 
ATOM      4  N   UNL     1       3.287   2.385  17.990  0.00  0.00    +0.000 NA
ATOM      5  C   UNL     1       4.099   3.374  17.595  0.00  0.00    +0.000 A 
ATOM      6  N   UNL     1       5.041   3.231  16.622  0.00  0.00    +0.000 N 
ATOM      7  C   UNL     1       5.714   4.413  16.435  0.00  0.00    +0.000 A 
ATOM      8  C   UNL     1       6.800   4.526  15.427  0.00  0.00    +0.000 C 
ATOM      9  C   UNL     1       5.177   5.347  17.315  0.00  0.00    +0.000 A 
ATOM     10  C   UNL     1       5.588   6.774  17.430  0.00  0.00    +0.000 C 
ATOM     11  C   UNL     1       4.149   4.677  18.073  0.00  0.00    +0.000 A 
ATOM     12  H   UNL     1       5.195   2.366  16.125  0.00  0.00    +0.000 HD
ENDROOT
BRANCH   1  13
ATOM     13  N   UNL     1       3.204   6.255  19.731  0.00  0.00    +0.000 N 
ATOM     14  H   UNL     1       3.744   6.303  20.579  0.00  0.00    +0.000 HD
BRANCH  13  19
ATOM     15  C   UNL     1       0.009  10.908  18.684  0.00  0.00    +0.000 C 
ATOM     16  C   UNL     1       0.822   9.677  18.941  0.00  0.00    +0.000 A 
ATOM     17  C   UNL     1       1.540   9.046  17.922  0.00  0.00    +0.000 A 
ATOM     18  C   UNL     1       2.305   7.904  18.192  0.00  0.00    +0.000 A 
ATOM     19  C   UNL     1       2.372   7.363  19.483  0.00  0.00    +0.000 A 
ATOM     20  C   UNL     1       1.632   7.995  20.489  0.00  0.00    +0.000 A 
ATOM     21  C   UNL     1       0.869   9.137  20.228  0.00  0.00    +0.000 A 
ENDBRANCH  13  19
ENDBRANCH   1  13
TORSDOF 2
ENDMDL
MODEL 4
REMARK VINA RESULT:      -7.5      3.456      5.374
REMARK  Name = 
REMARK  5 active torsions:
REMARK  status: ('A' for Active; 'I' for Inactive)
REMARK    1  A    between atoms: C_1  and  C_2
REMARK    2  A    between atoms: C_5  and  N_6
REMARK    3  A    between atoms: N_6  and  C_7
REMARK    4  A    between atoms: C_13  and  C_14
REMARK    5  A    between atoms: C_15  and  C_16
REMARK                            x       y       z     vdW  Elec       q    Type
REMARK                         _______ _______ _______ _____ _____    ______ ____
ROOT
ATOM      1  C   UNL     1       2.891   4.983  19.473  0.00  0.00    +0.000 A 
ATOM      2  N   UNL     1       2.015   4.111  20.044  0.00  0.00    +0.000 NA
ATOM      3  C   UNL     1       1.944   2.846  19.601  0.00  0.00    +0.000 A 
ATOM      4  N   UNL     1       2.650   2.286  18.615  0.00  0.00    +0.000 NA
ATOM      5  C   UNL     1       3.499   3.164  18.065  0.00  0.00    +0.000 A 
ATOM      6  N   UNL     1       4.343   2.855  17.041  0.00  0.00    +0.000 N 
ATOM      7  C   UNL     1       5.085   3.955  16.691  0.00  0.00    +0.000 A 
ATOM      8  C   UNL     1       6.089   3.885  15.596  0.00  0.00    +0.000 C 
ATOM      9  C   UNL     1       4.697   5.006  17.515  0.00  0.00    +0.000 A 
ATOM     10  C   UNL     1       5.223   6.398  17.460  0.00  0.00    +0.000 C 
ATOM     11  C   UNL     1       3.688   4.495  18.410  0.00  0.00    +0.000 A 
ATOM     12  H   UNL     1       4.388   1.939  16.621  0.00  0.00    +0.000 HD
ENDROOT
BRANCH   1  13
ATOM     13  N   UNL     1       3.007   6.290  19.975  0.00  0.00    +0.000 N 
ATOM     14  H   UNL     1       3.577   6.361  20.802  0.00  0.00    +0.000 HD
BRANCH  13  19
ATOM     15  C   UNL     1      -0.143  10.900  18.643  0.00  0.00    +0.000 C 
ATOM     16  C   UNL     1       0.699   9.716  19.006  0.00  0.00    +0.000 A 
ATOM     17  C   UNL     1       0.759   9.233  20.316  0.00  0.00    +0.000 A 
ATOM     18  C   UNL     1       1.543   8.114  20.626  0.00  0.00    +0.000 A 
ATOM     19  C   UNL     1       2.285   7.450  19.640  0.00  0.00    +0.000 A 
ATOM     20  C   UNL     1       2.228   7.958  18.337  0.00  0.00    +0.000 A 
ATOM     21  C   UNL     1       1.447   9.072  18.019  0.00  0.00    +0.000 A 
ENDBRANCH  13  19
ENDBRANCH   1  13
TORSDOF 2
ENDMDL
MODEL 5
REMARK VINA RESULT:      -7.3      3.354      5.177
REMARK  Name = 
REMARK  5 active torsions:
REMARK  status: ('A' for Active; 'I' for Inactive)
REMARK    1  A    between atoms: C_1  and  C_2
REMARK    2  A    between atoms: C_5  and  N_6
REMARK    3  A    between atoms: N_6  and  C_7
REMARK    4  A    between atoms: C_13  and  C_14
REMARK    5  A    between atoms: C_15  and  C_16
REMARK                            x       y       z     vdW  Elec       q    Type
REMARK                         _______ _______ _______ _____ _____    ______ ____
ROOT
ATOM      1  C   UNL     1       4.432   6.372  17.754  0.00  0.00    +0.000 A 
ATOM      2  N   UNL     1       5.724   6.791  17.849  0.00  0.00    +0.000 NA
ATOM      3  C   UNL     1       6.693   5.912  18.145  0.00  0.00    +0.000 A 
ATOM      4  N   UNL     1       6.564   4.602  18.380  0.00  0.00    +0.000 NA
ATOM      5  C   UNL     1       5.285   4.216  18.288  0.00  0.00    +0.000 A 
ATOM      6  N   UNL     1       4.872   2.932  18.476  0.00  0.00    +0.000 N 
ATOM      7  C   UNL     1       3.511   2.844  18.320  0.00  0.00    +0.000 A 
ATOM      8  C   UNL     1       2.804   1.545  18.472  0.00  0.00    +0.000 C 
ATOM      9  C   UNL     1       3.037   4.119  18.028  0.00  0.00    +0.000 A 
ATOM     10  C   UNL     1       1.612   4.491  17.812  0.00  0.00    +0.000 C 
ATOM     11  C   UNL     1       4.179   5.000  17.991  0.00  0.00    +0.000 A 
ATOM     12  H   UNL     1       5.502   2.176  18.702  0.00  0.00    +0.000 HD
ENDROOT
BRANCH   1  13
ATOM     13  N   UNL     1       3.425   7.280  17.387  0.00  0.00    +0.000 N 
ATOM     14  H   UNL     1       3.428   7.520  16.409  0.00  0.00    +0.000 HD
BRANCH  13  19
ATOM     15  C   UNL     1      -0.200  10.285  20.671  0.00  0.00    +0.000 C 
ATOM     16  C   UNL     1       0.770   9.510  19.832  0.00  0.00    +0.000 A 
ATOM     17  C   UNL     1       1.383   8.347  20.306  0.00  0.00    +0.000 A 
ATOM     18  C   UNL     1       2.275   7.633  19.495  0.00  0.00    +0.000 A 
ATOM     19  C   UNL     1       2.577   8.060  18.195  0.00  0.00    +0.000 A 
ATOM     20  C   UNL     1       1.969   9.236  17.743  0.00  0.00    +0.000 A 
ATOM     21  C   UNL     1       1.076   9.953  18.544  0.00  0.00    +0.000 A 
ENDBRANCH  13  19
ENDBRANCH   1  13
TORSDOF 2
ENDMDL
MODEL 6
REMARK VINA RESULT:      -7.3      3.868      5.784
REMARK  Name = 
REMARK  5 active torsions:
REMARK  status: ('A' for Active; 'I' for Inactive)
REMARK    1  A    between atoms: C_1  and  C_2
REMARK    2  A    between atoms: C_5  and  N_6
REMARK    3  A    between atoms: N_6  and  C_7
REMARK    4  A    between atoms: C_13  and  C_14
REMARK    5  A    between atoms: C_15  and  C_16
REMARK                            x       y       z     vdW  Elec       q    Type
REMARK                         _______ _______ _______ _____ _____    ______ ____
ROOT
ATOM      1  C   UNL     1       2.528   5.457  19.699  0.00  0.00    +0.000 A 
ATOM      2  N   UNL     1       1.658   4.675  20.397  0.00  0.00    +0.000 NA
ATOM      3  C   UNL     1       1.544   3.371  20.101  0.00  0.00    +0.000 A 
ATOM      4  N   UNL     1       2.199   2.687  19.158  0.00  0.00    +0.000 NA
ATOM      5  C   UNL     1       3.042   3.477  18.482  0.00  0.00    +0.000 A 
ATOM      6  N   UNL     1       3.838   3.036  17.469  0.00  0.00    +0.000 N 
ATOM      7  C   UNL     1       4.588   4.071  16.969  0.00  0.00    +0.000 A 
ATOM      8  C   UNL     1       5.545   3.855  15.852  0.00  0.00    +0.000 C 
ATOM      9  C   UNL     1       4.254   5.217  17.684  0.00  0.00    +0.000 A 
ATOM     10  C   UNL     1       4.805   6.580  17.453  0.00  0.00    +0.000 C 
ATOM     11  C   UNL     1       3.272   4.834  18.668  0.00  0.00    +0.000 A 
ATOM     12  H   UNL     1       3.848   2.077  17.152  0.00  0.00    +0.000 HD
ENDROOT
BRANCH   1  13
ATOM     13  N   UNL     1       2.690   6.808  20.046  0.00  0.00    +0.000 N 
ATOM     14  H   UNL     1       3.385   6.967  20.758  0.00  0.00    +0.000 HD
BRANCH  13  19
ATOM     15  C   UNL     1      -0.357  11.486  18.708  0.00  0.00    +0.000 C 
ATOM     16  C   UNL     1       0.419  10.248  19.039  0.00  0.00    +0.000 A 
ATOM     17  C   UNL     1       1.219   9.607  18.089  0.00  0.00    +0.000 A 
ATOM     18  C   UNL     1       1.946   8.459  18.429  0.00  0.00    +0.000 A 
ATOM     19  C   UNL     1       1.894   7.922  19.722  0.00  0.00    +0.000 A 
ATOM     20  C   UNL     1       1.075   8.565  20.657  0.00  0.00    +0.000 A 
ATOM     21  C   UNL     1       0.348   9.713  20.326  0.00  0.00    +0.000 A 
ENDBRANCH  13  19
ENDBRANCH   1  13
TORSDOF 2
ENDMDL
MODEL 7
REMARK VINA RESULT:      -7.3      3.352      4.938
REMARK  Name = 
REMARK  5 active torsions:
REMARK  status: ('A' for Active; 'I' for Inactive)
REMARK    1  A    between atoms: C_1  and  C_2
REMARK    2  A    between atoms: C_5  and  N_6
REMARK    3  A    between atoms: N_6  and  C_7
REMARK    4  A    between atoms: C_13  and  C_14
REMARK    5  A    between atoms: C_15  and  C_16
REMARK                            x       y       z     vdW  Elec       q    Type
REMARK                         _______ _______ _______ _____ _____    ______ ____
ROOT
ATOM      1  C   UNL     1       4.233   6.685  17.476  0.00  0.00    +0.000 A 
ATOM      2  N   UNL     1       5.481   7.225  17.410  0.00  0.00    +0.000 NA
ATOM      3  C   UNL     1       6.560   6.433  17.500  0.00  0.00    +0.000 A 
ATOM      4  N   UNL     1       6.588   5.106  17.659  0.00  0.00    +0.000 NA
ATOM      5  C   UNL     1       5.351   4.599  17.727  0.00  0.00    +0.000 A 
ATOM      6  N   UNL     1       5.089   3.271  17.884  0.00  0.00    +0.000 N 
ATOM      7  C   UNL     1       3.735   3.056  17.922  0.00  0.00    +0.000 A 
ATOM      8  C   UNL     1       3.180   1.686  18.083  0.00  0.00    +0.000 C 
ATOM      9  C   UNL     1       3.107   4.291  17.792  0.00  0.00    +0.000 A 
ATOM     10  C   UNL     1       1.638   4.529  17.813  0.00  0.00    +0.000 C 
ATOM     11  C   UNL     1       4.145   5.283  17.651  0.00  0.00    +0.000 A 
ATOM     12  H   UNL     1       5.813   2.571  17.962  0.00  0.00    +0.000 HD
ENDROOT
BRANCH   1  13
ATOM     13  N   UNL     1       3.104   7.506  17.324  0.00  0.00    +0.000 N 
ATOM     14  H   UNL     1       2.966   7.842  16.385  0.00  0.00    +0.000 HD
BRANCH  13  19
ATOM     15  C   UNL     1      -0.090  10.114  21.318  0.00  0.00    +0.000 C 
ATOM     16  C   UNL     1       0.717   9.424  20.261  0.00  0.00    +0.000 A 
ATOM     17  C   UNL     1       0.774   9.905  18.951  0.00  0.00    +0.000 A 
ATOM     18  C   UNL     1       1.548   9.249  17.985  0.00  0.00    +0.000 A 
ATOM     19  C   UNL     1       2.284   8.099  18.302  0.00  0.00    +0.000 A 
ATOM     20  C   UNL     1       2.202   7.620  19.614  0.00  0.00    +0.000 A 
ATOM     21  C   UNL     1       1.434   8.270  20.584  0.00  0.00    +0.000 A 
ENDBRANCH  13  19
ENDBRANCH   1  13
TORSDOF 2
ENDMDL
MODEL 8
REMARK VINA RESULT:      -7.2      1.235      3.177
REMARK  Name = 
REMARK  5 active torsions:
REMARK  status: ('A' for Active; 'I' for Inactive)
REMARK    1  A    between atoms: C_1  and  C_2
REMARK    2  A    between atoms: C_5  and  N_6
REMARK    3  A    between atoms: N_6  and  C_7
REMARK    4  A    between atoms: C_13  and  C_14
REMARK    5  A    between atoms: C_15  and  C_16
REMARK                            x       y       z     vdW  Elec       q    Type
REMARK                         _______ _______ _______ _____ _____    ______ ____
ROOT
ATOM      1  C   UNL     1       6.506   4.959  18.276  0.00  0.00    +0.000 A 
ATOM      2  N   UNL     1       7.123   6.037  18.833  0.00  0.00    +0.000 NA
ATOM      3  C   UNL     1       7.738   6.936  18.050  0.00  0.00    +0.000 A 
ATOM      4  N   UNL     1       7.842   6.923  16.718  0.00  0.00    +0.000 NA
ATOM      5  C   UNL     1       7.233   5.851  16.193  0.00  0.00    +0.000 A 
ATOM      6  N   UNL     1       7.183   5.593  14.857  0.00  0.00    +0.000 N 
ATOM      7  C   UNL     1       6.497   4.428  14.624  0.00  0.00    +0.000 A 
ATOM      8  C   UNL     1       6.295   3.919  13.242  0.00  0.00    +0.000 C 
ATOM      9  C   UNL     1       6.100   3.919  15.857  0.00  0.00    +0.000 A 
ATOM     10  C   UNL     1       5.355   2.649  16.078  0.00  0.00    +0.000 C 
ATOM     11  C   UNL     1       6.559   4.841  16.866  0.00  0.00    +0.000 A 
ATOM     12  H   UNL     1       7.604   6.193  14.163  0.00  0.00    +0.000 HD
ENDROOT
BRANCH   1  13
ATOM     13  N   UNL     1       5.812   4.049  19.091  0.00  0.00    +0.000 N 
ATOM     14  H   UNL     1       6.410   3.442  19.627  0.00  0.00    +0.000 HD
BRANCH  13  19
ATOM     15  C   UNL     1       0.279   2.526  18.950  0.00  0.00    +0.000 C 
ATOM     16  C   UNL     1       1.722   2.923  19.018  0.00  0.00    +0.000 A 
ATOM     17  C   UNL     1       2.710   2.027  19.435  0.00  0.00    +0.000 A 
ATOM     18  C   UNL     1       4.054   2.419  19.476  0.00  0.00    +0.000 A 
ATOM     19  C   UNL     1       4.446   3.712  19.102  0.00  0.00    +0.000 A 
ATOM     20  C   UNL     1       3.442   4.602  18.704  0.00  0.00    +0.000 A 
ATOM     21  C   UNL     1       2.099   4.218  18.659  0.00  0.00    +0.000 A 
ENDBRANCH  13  19
ENDBRANCH   1  13
TORSDOF 2
ENDMDL
MODEL 9
REMARK VINA RESULT:      -7.1      2.340      5.638
REMARK  Name = 
REMARK  5 active torsions:
REMARK  status: ('A' for Active; 'I' for Inactive)
REMARK    1  A    between atoms: C_1  and  C_2
REMARK    2  A    between atoms: C_5  and  N_6
REMARK    3  A    between atoms: N_6  and  C_7
REMARK    4  A    between atoms: C_13  and  C_14
REMARK    5  A    between atoms: C_15  and  C_16
REMARK                            x       y       z     vdW  Elec       q    Type
REMARK                         _______ _______ _______ _____ _____    ______ ____
ROOT
ATOM      1  C   UNL     1       5.122   4.212  18.628  0.00  0.00    +0.000 A 
ATOM      2  N   UNL     1       4.890   3.146  19.443  0.00  0.00    +0.000 NA
ATOM      3  C   UNL     1       3.770   3.097  20.180  0.00  0.00    +0.000 A 
ATOM      4  N   UNL     1       2.790   4.004  20.236  0.00  0.00    +0.000 NA
ATOM      5  C   UNL     1       3.043   5.044  19.432  0.00  0.00    +0.000 A 
ATOM      6  N   UNL     1       2.206   6.110  19.294  0.00  0.00    +0.000 N 
ATOM      7  C   UNL     1       2.732   7.015  18.407  0.00  0.00    +0.000 A 
ATOM      8  C   UNL     1       2.012   8.272  18.075  0.00  0.00    +0.000 C 
ATOM      9  C   UNL     1       3.954   6.513  17.968  0.00  0.00    +0.000 A 
ATOM     10  C   UNL     1       4.883   7.187  17.020  0.00  0.00    +0.000 C 
ATOM     11  C   UNL     1       4.148   5.238  18.614  0.00  0.00    +0.000 A 
ATOM     12  H   UNL     1       1.331   6.193  19.791  0.00  0.00    +0.000 HD
ENDROOT
BRANCH   1  13
ATOM     13  N   UNL     1       6.266   4.236  17.813  0.00  0.00    +0.000 N 
ATOM     14  H   UNL     1       7.121   4.414  18.313  0.00  0.00    +0.000 HD
BRANCH  13  19
ATOM     15  C   UNL     1       6.748   4.153  12.093  0.00  0.00    +0.000 C 
ATOM     16  C   UNL     1       6.597   4.193  13.583  0.00  0.00    +0.000 A 
ATOM     17  C   UNL     1       5.545   3.541  14.231  0.00  0.00    +0.000 A 
ATOM     18  C   UNL     1       5.435   3.582  15.627  0.00  0.00    +0.000 A 
ATOM     19  C   UNL     1       6.370   4.273  16.410  0.00  0.00    +0.000 A 
ATOM     20  C   UNL     1       7.407   4.936  15.744  0.00  0.00    +0.000 A 
ATOM     21  C   UNL     1       7.525   4.898  14.352  0.00  0.00    +0.000 A 
ENDBRANCH  13  19
ENDBRANCH   1  13
TORSDOF 2
ENDMDL
