MODEL 1
REMARK VINA RESULT:      -6.8      0.000      0.000
REMARK  Name = 
REMARK  3 active torsions:
REMARK  status: ('A' for Active; 'I' for Inactive)
REMARK    1  A    between atoms: C_1  and  N_2
REMARK    2  A    between atoms: N_5  and  C_6
REMARK    3  A    between atoms: C_7  and  C_8
REMARK                            x       y       z     vdW  Elec       q    Type
REMARK                         _______ _______ _______ _____ _____    ______ ____
ROOT
ATOM      1  C   UNL     1       7.442   7.168  17.549  0.00  0.00    +0.000 A 
ATOM      2  N   UNL     1       7.796   6.628  16.364  0.00  0.00    +0.000 NA
ATOM      3  N   UNL     1       7.097   5.562  15.886  0.00  0.00    +0.000 NA
ATOM      4  C   UNL     1       6.078   5.068  16.602  0.00  0.00    +0.000 A 
ATOM      5  C   UNL     1       5.383   3.947  16.177  0.00  0.00    +0.000 A 
ATOM      6  C   UNL     1       4.355   3.462  16.961  0.00  0.00    +0.000 A 
ATOM      7  N   UNL     1       3.971   4.043  18.111  0.00  0.00    +0.000 NA
ATOM      8  C   UNL     1       4.669   5.141  18.495  0.00  0.00    +0.000 A 
ATOM      9  C   UNL     1       5.735   5.690  17.809  0.00  0.00    +0.000 A 
ATOM     10  N   UNL     1       6.406   6.749  18.293  0.00  0.00    +0.000 NA
ENDROOT
BRANCH   1  12
ATOM     11  C   UNL     1       8.130   9.546  17.762  0.00  0.00    +0.000 C 
ATOM     12  C   UNL     1       8.229   8.258  18.110  0.00  0.00    +0.000 C 
BRANCH  11  17
ATOM     13  C   UNL     1      12.046  13.386  18.868  0.00  0.00    +0.000 C 
ATOM     14  N   UNL     1      10.757  12.713  18.976  0.00  0.00    +0.000 NA
ATOM     15  C   UNL     1      10.919  11.317  19.441  0.00  0.00    +0.000 C 
ATOM     16  C   UNL     1       9.571  10.563  19.544  0.00  0.00    +0.000 C 
ATOM     17  N   UNL     1       8.829  10.632  18.267  0.00  0.00    +0.000 N 
ATOM     18  C   UNL     1       8.687  12.014  17.764  0.00  0.00    +0.000 C 
ATOM     19  C   UNL     1      10.066  12.696  17.670  0.00  0.00    +0.000 C 
ENDBRANCH  11  17
ENDBRANCH   1  12
TORSDOF 2
ENDMDL
MODEL 2
REMARK VINA RESULT:      -6.7      1.501      2.031
REMARK  Name = 
REMARK  3 active torsions:
REMARK  status: ('A' for Active; 'I' for Inactive)
REMARK    1  A    between atoms: C_1  and  N_2
REMARK    2  A    between atoms: N_5  and  C_6
REMARK    3  A    between atoms: C_7  and  C_8
REMARK                            x       y       z     vdW  Elec       q    Type
REMARK                         _______ _______ _______ _____ _____    ______ ____
ROOT
ATOM      1  C   UNL     1       7.797   7.901  17.897  0.00  0.00    +0.000 A 
ATOM      2  N   UNL     1       8.238   6.999  18.799  0.00  0.00    +0.000 NA
ATOM      3  N   UNL     1       7.639   5.778  18.863  0.00  0.00    +0.000 NA
ATOM      4  C   UNL     1       6.622   5.499  18.037  0.00  0.00    +0.000 A 
ATOM      5  C   UNL     1       5.949   4.291  18.114  0.00  0.00    +0.000 A 
ATOM      6  C   UNL     1       4.894   4.058  17.256  0.00  0.00    +0.000 A 
ATOM      7  N   UNL     1       4.500   4.940  16.320  0.00  0.00    +0.000 NA
ATOM      8  C   UNL     1       5.184   6.110  16.267  0.00  0.00    +0.000 A 
ATOM      9  C   UNL     1       6.229   6.462  17.099  0.00  0.00    +0.000 A 
ATOM     10  N   UNL     1       6.814   7.669  17.013  0.00  0.00    +0.000 NA
ENDROOT
BRANCH   1  12
ATOM     11  C   UNL     1       8.962   9.852  18.903  0.00  0.00    +0.000 C 
ATOM     12  C   UNL     1       8.376   9.238  17.869  0.00  0.00    +0.000 C 
BRANCH  11  17
ATOM     13  C   UNL     1       9.908  15.361  18.659  0.00  0.00    +0.000 C 
ATOM     14  N   UNL     1      10.227  13.951  18.848  0.00  0.00    +0.000 NA
ATOM     15  C   UNL     1       9.978  13.174  17.613  0.00  0.00    +0.000 C 
ATOM     16  C   UNL     1      10.283  11.666  17.785  0.00  0.00    +0.000 C 
ATOM     17  N   UNL     1       9.548  11.108  18.941  0.00  0.00    +0.000 N 
ATOM     18  C   UNL     1       9.753  11.889  20.177  0.00  0.00    +0.000 C 
ATOM     19  C   UNL     1       9.414  13.374  19.939  0.00  0.00    +0.000 C 
ENDBRANCH  11  17
ENDBRANCH   1  12
TORSDOF 2
ENDMDL
MODEL 3
REMARK VINA RESULT:      -6.7      0.916      1.317
REMARK  Name = 
REMARK  3 active torsions:
REMARK  status: ('A' for Active; 'I' for Inactive)
REMARK    1  A    between atoms: C_1  and  N_2
REMARK    2  A    between atoms: N_5  and  C_6
REMARK    3  A    between atoms: C_7  and  C_8
REMARK                            x       y       z     vdW  Elec       q    Type
REMARK                         _______ _______ _______ _____ _____    ______ ____
ROOT
ATOM      1  C   UNL     1       7.491   7.055  17.858  0.00  0.00    +0.000 A 
ATOM      2  N   UNL     1       7.475   6.862  16.524  0.00  0.00    +0.000 NA
ATOM      3  N   UNL     1       6.690   5.877  16.005  0.00  0.00    +0.000 NA
ATOM      4  C   UNL     1       5.956   5.118  16.830  0.00  0.00    +0.000 A 
ATOM      5  C   UNL     1       5.193   4.068  16.346  0.00  0.00    +0.000 A 
ATOM      6  C   UNL     1       4.471   3.301  17.237  0.00  0.00    +0.000 A 
ATOM      7  N   UNL     1       4.446   3.539  18.561  0.00  0.00    +0.000 NA
ATOM      8  C   UNL     1       5.200   4.577  19.000  0.00  0.00    +0.000 A 
ATOM      9  C   UNL     1       5.987   5.387  18.205  0.00  0.00    +0.000 A 
ATOM     10  N   UNL     1       6.748   6.360  18.734  0.00  0.00    +0.000 NA
ENDROOT
BRANCH   1  12
ATOM     11  C   UNL     1       8.368   9.361  18.157  0.00  0.00    +0.000 C 
ATOM     12  C   UNL     1       8.385   8.052  18.434  0.00  0.00    +0.000 C 
BRANCH  11  17
ATOM     13  C   UNL     1      10.366  14.263  19.970  0.00  0.00    +0.000 C 
ATOM     14  N   UNL     1      10.382  12.838  19.660  0.00  0.00    +0.000 NA
ATOM     15  C   UNL     1      10.165  12.602  18.215  0.00  0.00    +0.000 C 
ATOM     16  C   UNL     1      10.152  11.097  17.852  0.00  0.00    +0.000 C 
ATOM     17  N   UNL     1       9.171  10.363  18.681  0.00  0.00    +0.000 N 
ATOM     18  C   UNL     1       9.346  10.613  20.125  0.00  0.00    +0.000 C 
ATOM     19  C   UNL     1       9.331  12.127  20.416  0.00  0.00    +0.000 C 
ENDBRANCH  11  17
ENDBRANCH   1  12
TORSDOF 2
ENDMDL
MODEL 4
REMARK VINA RESULT:      -6.7      1.552      8.331
REMARK  Name = 
REMARK  3 active torsions:
REMARK  status: ('A' for Active; 'I' for Inactive)
REMARK    1  A    between atoms: C_1  and  N_2
REMARK    2  A    between atoms: N_5  and  C_6
REMARK    3  A    between atoms: C_7  and  C_8
REMARK                            x       y       z     vdW  Elec       q    Type
REMARK                         _______ _______ _______ _____ _____    ______ ____
ROOT
ATOM      1  C   UNL     1       9.118  10.316  18.570  0.00  0.00    +0.000 A 
ATOM      2  N   UNL     1       9.404  10.349  19.888  0.00  0.00    +0.000 NA
ATOM      3  N   UNL     1      10.237  11.316  20.362  0.00  0.00    +0.000 NA
ATOM      4  C   UNL     1      10.761  12.208  19.511  0.00  0.00    +0.000 A 
ATOM      5  C   UNL     1      11.660  13.168  19.946  0.00  0.00    +0.000 A 
ATOM      6  C   UNL     1      12.189  14.053  19.028  0.00  0.00    +0.000 A 
ATOM      7  N   UNL     1      11.851  14.050  17.726  0.00  0.00    +0.000 NA
ATOM      8  C   UNL     1      10.964  13.101  17.335  0.00  0.00    +0.000 A 
ATOM      9  C   UNL     1      10.402  12.146  18.159  0.00  0.00    +0.000 A 
ATOM     10  N   UNL     1       9.573  11.205  17.673  0.00  0.00    +0.000 NA
ENDROOT
BRANCH   1  12
ATOM     11  C   UNL     1       8.262   7.984  18.492  0.00  0.00    +0.000 C 
ATOM     12  C   UNL     1       8.291   9.241  18.036  0.00  0.00    +0.000 C 
BRANCH  11  17
ATOM     13  C   UNL     1       6.131   3.749  15.521  0.00  0.00    +0.000 C 
ATOM     14  N   UNL     1       6.235   4.697  16.624  0.00  0.00    +0.000 NA
ATOM     15  C   UNL     1       6.106   6.092  16.145  0.00  0.00    +0.000 C 
ATOM     16  C   UNL     1       6.236   7.128  17.288  0.00  0.00    +0.000 C 
ATOM     17  N   UNL     1       7.488   6.923  18.047  0.00  0.00    +0.000 N 
ATOM     18  C   UNL     1       7.656   5.528  18.503  0.00  0.00    +0.000 C 
ATOM     19  C   UNL     1       7.533   4.554  17.315  0.00  0.00    +0.000 C 
ENDBRANCH  11  17
ENDBRANCH   1  12
TORSDOF 2
ENDMDL
MODEL 5
REMARK VINA RESULT:      -6.6      1.314      1.922
REMARK  Name = 
REMARK  3 active torsions:
REMARK  status: ('A' for Active; 'I' for Inactive)
REMARK    1  A    between atoms: C_1  and  N_2
REMARK    2  A    between atoms: N_5  and  C_6
REMARK    3  A    between atoms: C_7  and  C_8
REMARK                            x       y       z     vdW  Elec       q    Type
REMARK                         _______ _______ _______ _____ _____    ______ ____
ROOT
ATOM      1  C   UNL     1       7.647   7.743  17.805  0.00  0.00    +0.000 A 
ATOM      2  N   UNL     1       8.156   6.948  18.769  0.00  0.00    +0.000 NA
ATOM      3  N   UNL     1       7.522   5.782  19.071  0.00  0.00    +0.000 NA
ATOM      4  C   UNL     1       6.405   5.450  18.410  0.00  0.00    +0.000 A 
ATOM      5  C   UNL     1       5.699   4.302  18.730  0.00  0.00    +0.000 A 
ATOM      6  C   UNL     1       4.542   4.013  18.035  0.00  0.00    +0.000 A 
ATOM      7  N   UNL     1       4.076   4.780  17.034  0.00  0.00    +0.000 NA
ATOM      8  C   UNL     1       4.794   5.893  16.742  0.00  0.00    +0.000 A 
ATOM      9  C   UNL     1       5.942   6.297  17.395  0.00  0.00    +0.000 A 
ATOM     10  N   UNL     1       6.559   7.448  17.076  0.00  0.00    +0.000 NA
ENDROOT
BRANCH   1  12
ATOM     11  C   UNL     1       8.690   9.905  18.446  0.00  0.00    +0.000 C 
ATOM     12  C   UNL     1       8.270   9.030  17.525  0.00  0.00    +0.000 C 
BRANCH  11  17
ATOM     13  C   UNL     1      10.809  15.036  19.144  0.00  0.00    +0.000 C 
ATOM     14  N   UNL     1      10.456  13.815  18.430  0.00  0.00    +0.000 NA
ATOM     15  C   UNL     1       8.991  13.599  18.430  0.00  0.00    +0.000 C 
ATOM     16  C   UNL     1       8.581  12.297  17.700  0.00  0.00    +0.000 C 
ATOM     17  N   UNL     1       9.307  11.132  18.251  0.00  0.00    +0.000 N 
ATOM     18  C   UNL     1      10.768  11.340  18.295  0.00  0.00    +0.000 C 
ATOM     19  C   UNL     1      11.105  12.641  19.050  0.00  0.00    +0.000 C 
ENDBRANCH  11  17
ENDBRANCH   1  12
TORSDOF 2
ENDMDL
MODEL 6
REMARK VINA RESULT:      -6.6      1.402      8.317
REMARK  Name = 
REMARK  3 active torsions:
REMARK  status: ('A' for Active; 'I' for Inactive)
REMARK    1  A    between atoms: C_1  and  N_2
REMARK    2  A    between atoms: N_5  and  C_6
REMARK    3  A    between atoms: C_7  and  C_8
REMARK                            x       y       z     vdW  Elec       q    Type
REMARK                         _______ _______ _______ _____ _____    ______ ____
ROOT
ATOM      1  C   UNL     1       9.184  10.356  18.639  0.00  0.00    +0.000 A 
ATOM      2  N   UNL     1       9.303  10.577  19.965  0.00  0.00    +0.000 NA
ATOM      3  N   UNL     1      10.111  11.583  20.400  0.00  0.00    +0.000 NA
ATOM      4  C   UNL     1      10.775  12.328  19.506  0.00  0.00    +0.000 A 
ATOM      5  C   UNL     1      11.653  13.319  19.912  0.00  0.00    +0.000 A 
ATOM      6  C   UNL     1      12.330  14.046  18.954  0.00  0.00    +0.000 A 
ATOM      7  N   UNL     1      12.159  13.859  17.633  0.00  0.00    +0.000 NA
ATOM      8  C   UNL     1      11.289  12.884  17.270  0.00  0.00    +0.000 A 
ATOM      9  C   UNL     1      10.587  12.074  18.141  0.00  0.00    +0.000 A 
ATOM     10  N   UNL     1       9.786  11.093  17.691  0.00  0.00    +0.000 NA
ENDROOT
BRANCH   1  12
ATOM     11  C   UNL     1       8.420   7.992  18.654  0.00  0.00    +0.000 C 
ATOM     12  C   UNL     1       8.386   9.235  18.161  0.00  0.00    +0.000 C 
BRANCH  11  17
ATOM     13  C   UNL     1       4.262   4.393  17.623  0.00  0.00    +0.000 C 
ATOM     14  N   UNL     1       5.635   4.883  17.665  0.00  0.00    +0.000 NA
ATOM     15  C   UNL     1       6.063   5.160  19.054  0.00  0.00    +0.000 C 
ATOM     16  C   UNL     1       7.509   5.706  19.135  0.00  0.00    +0.000 C 
ATOM     17  N   UNL     1       7.677   6.889  18.263  0.00  0.00    +0.000 N 
ATOM     18  C   UNL     1       7.222   6.645  16.880  0.00  0.00    +0.000 C 
ATOM     19  C   UNL     1       5.771   6.123  16.873  0.00  0.00    +0.000 C 
ENDBRANCH  11  17
ENDBRANCH   1  12
TORSDOF 2
ENDMDL
MODEL 7
REMARK VINA RESULT:      -6.5      1.218      1.439
REMARK  Name = 
REMARK  3 active torsions:
REMARK  status: ('A' for Active; 'I' for Inactive)
REMARK    1  A    between atoms: C_1  and  N_2
REMARK    2  A    between atoms: N_5  and  C_6
REMARK    3  A    between atoms: C_7  and  C_8
REMARK                            x       y       z     vdW  Elec       q    Type
REMARK                         _______ _______ _______ _____ _____    ______ ____
ROOT
ATOM      1  C   UNL     1       7.709   7.706  17.879  0.00  0.00    +0.000 A 
ATOM      2  N   UNL     1       8.260   6.741  18.644  0.00  0.00    +0.000 NA
ATOM      3  N   UNL     1       7.662   5.519  18.703  0.00  0.00    +0.000 NA
ATOM      4  C   UNL     1       6.538   5.301  18.007  0.00  0.00    +0.000 A 
ATOM      5  C   UNL     1       5.869   4.091  18.089  0.00  0.00    +0.000 A 
ATOM      6  C   UNL     1       4.703   3.923  17.370  0.00  0.00    +0.000 A 
ATOM      7  N   UNL     1       4.193   4.870  16.564  0.00  0.00    +0.000 NA
ATOM      8  C   UNL     1       4.876   6.041  16.501  0.00  0.00    +0.000 A 
ATOM      9  C   UNL     1       6.030   6.330  17.204  0.00  0.00    +0.000 A 
ATOM     10  N   UNL     1       6.611   7.540  17.124  0.00  0.00    +0.000 NA
ENDROOT
BRANCH   1  12
ATOM     11  C   UNL     1       8.735   9.703  18.942  0.00  0.00    +0.000 C 
ATOM     12  C   UNL     1       8.292   9.041  17.868  0.00  0.00    +0.000 C 
BRANCH  11  17
ATOM     13  C   UNL     1      12.333  13.984  18.747  0.00  0.00    +0.000 C 
ATOM     14  N   UNL     1      11.058  13.310  18.964  0.00  0.00    +0.000 NA
ATOM     15  C   UNL     1      11.170  12.281  20.022  0.00  0.00    +0.000 C 
ATOM     16  C   UNL     1       9.839  11.527  20.263  0.00  0.00    +0.000 C 
ATOM     17  N   UNL     1       9.318  10.961  19.000  0.00  0.00    +0.000 N 
ATOM     18  C   UNL     1       9.233  11.963  17.919  0.00  0.00    +0.000 C 
ATOM     19  C   UNL     1      10.593  12.660  17.722  0.00  0.00    +0.000 C 
ENDBRANCH  11  17
ENDBRANCH   1  12
TORSDOF 2
ENDMDL
MODEL 8
REMARK VINA RESULT:      -6.5      4.689      6.765
REMARK  Name = 
REMARK  3 active torsions:
REMARK  status: ('A' for Active; 'I' for Inactive)
REMARK    1  A    between atoms: C_1  and  N_2
REMARK    2  A    between atoms: N_5  and  C_6
REMARK    3  A    between atoms: C_7  and  C_8
REMARK                            x       y       z     vdW  Elec       q    Type
REMARK                         _______ _______ _______ _____ _____    ______ ____
ROOT
ATOM      1  C   UNL     1       3.316   6.032  18.073  0.00  0.00    +0.000 A 
ATOM      2  N   UNL     1       2.946   4.776  17.746  0.00  0.00    +0.000 NA
ATOM      3  N   UNL     1       3.778   4.016  16.982  0.00  0.00    +0.000 NA
ATOM      4  C   UNL     1       4.943   4.532  16.566  0.00  0.00    +0.000 A 
ATOM      5  C   UNL     1       5.788   3.811  15.738  0.00  0.00    +0.000 A 
ATOM      6  C   UNL     1       6.967   4.393  15.318  0.00  0.00    +0.000 A 
ATOM      7  N   UNL     1       7.356   5.623  15.698  0.00  0.00    +0.000 NA
ATOM      8  C   UNL     1       6.508   6.298  16.513  0.00  0.00    +0.000 A 
ATOM      9  C   UNL     1       5.290   5.829  16.964  0.00  0.00    +0.000 A 
ATOM     10  N   UNL     1       4.486   6.591  17.726  0.00  0.00    +0.000 NA
ENDROOT
BRANCH   1  12
ATOM     11  C   UNL     1       2.181   8.181  18.588  0.00  0.00    +0.000 C 
ATOM     12  C   UNL     1       2.402   6.883  18.823  0.00  0.00    +0.000 C 
BRANCH  11  17
ATOM     13  C   UNL     1      -0.029  12.482  21.405  0.00  0.00    +0.000 C 
ATOM     14  N   UNL     1      -0.006  11.194  20.720  0.00  0.00    +0.000 NA
ATOM     15  C   UNL     1       0.911  10.246  21.392  0.00  0.00    +0.000 C 
ATOM     16  C   UNL     1       0.978   8.875  20.677  0.00  0.00    +0.000 C 
ATOM     17  N   UNL     1       1.315   9.041  19.246  0.00  0.00    +0.000 N 
ATOM     18  C   UNL     1       0.436  10.012  18.564  0.00  0.00    +0.000 C 
ATOM     19  C   UNL     1       0.430  11.357  19.317  0.00  0.00    +0.000 C 
ENDBRANCH  11  17
ENDBRANCH   1  12
TORSDOF 2
ENDMDL
MODEL 9
REMARK VINA RESULT:      -6.4      1.541      8.289
REMARK  Name = 
REMARK  3 active torsions:
REMARK  status: ('A' for Active; 'I' for Inactive)
REMARK    1  A    between atoms: C_1  and  N_2
REMARK    2  A    between atoms: N_5  and  C_6
REMARK    3  A    between atoms: C_7  and  C_8
REMARK                            x       y       z     vdW  Elec       q    Type
REMARK                         _______ _______ _______ _____ _____    ______ ____
ROOT
ATOM      1  C   UNL     1       9.170  10.681  18.392  0.00  0.00    +0.000 A 
ATOM      2  N   UNL     1       8.437  11.558  17.675  0.00  0.00    +0.000 NA
ATOM      3  N   UNL     1       8.856  12.850  17.578  0.00  0.00    +0.000 NA
ATOM      4  C   UNL     1       9.983  13.225  18.199  0.00  0.00    +0.000 A 
ATOM      5  C   UNL     1      10.409  14.543  18.172  0.00  0.00    +0.000 A 
ATOM      6  C   UNL     1      11.564  14.885  18.845  0.00  0.00    +0.000 A 
ATOM      7  N   UNL     1      12.321  13.991  19.507  0.00  0.00    +0.000 NA
ATOM      8  C   UNL     1      11.879  12.709  19.507  0.00  0.00    +0.000 A 
ATOM      9  C   UNL     1      10.721  12.263  18.900  0.00  0.00    +0.000 A 
ATOM     10  N   UNL     1      10.329  10.981  19.000  0.00  0.00    +0.000 NA
ENDROOT
BRANCH   1  12
ATOM     11  C   UNL     1       7.892   8.658  17.726  0.00  0.00    +0.000 C 
ATOM     12  C   UNL     1       8.694   9.316  18.570  0.00  0.00    +0.000 C 
BRANCH  11  17
ATOM     13  C   UNL     1       4.973   4.076  19.067  0.00  0.00    +0.000 C 
ATOM     14  N   UNL     1       6.018   4.861  18.420  0.00  0.00    +0.000 NA
ATOM     15  C   UNL     1       6.892   5.516  19.419  0.00  0.00    +0.000 C 
ATOM     16  C   UNL     1       8.000   6.379  18.767  0.00  0.00    +0.000 C 
ATOM     17  N   UNL     1       7.419   7.357  17.823  0.00  0.00    +0.000 N 
ATOM     18  C   UNL     1       6.514   6.730  16.839  0.00  0.00    +0.000 C 
ATOM     19  C   UNL     1       5.428   5.904  17.555  0.00  0.00    +0.000 C 
ENDBRANCH  11  17
ENDBRANCH   1  12
TORSDOF 2
ENDMDL
