MODEL 1
REMARK VINA RESULT:      -8.0      0.000      0.000
REMARK  Name = 
REMARK  6 active torsions:
REMARK  status: ('A' for Active; 'I' for Inactive)
REMARK    1  A    between atoms: C_2  and  C_3
REMARK    2  A    between atoms: C_5  and  C_6
REMARK    3  A    between atoms: C_9  and  O_10
REMARK    4  A    between atoms: O_10  and  C_11
REMARK    5  A    between atoms: C_11  and  C_12
REMARK    6  A    between atoms: C_22  and  N_23
REMARK                            x       y       z     vdW  Elec       q    Type
REMARK                         _______ _______ _______ _____ _____    ______ ____
ROOT
ATOM      1  C   UNL     1       1.925   7.955  19.297  0.00  0.00    +0.000 A 
ATOM      2  C   UNL     1       1.808   8.864  18.237  0.00  0.00    +0.000 A 
ATOM      3  C   UNL     1       1.145  10.087  18.402  0.00  0.00    +0.000 A 
ATOM      4  C   UNL     1       0.561  10.413  19.625  0.00  0.00    +0.000 A 
ATOM      5  C   UNL     1       0.697   9.529  20.699  0.00  0.00    +0.000 A 
ATOM      6  C   UNL     1       1.364   8.307  20.534  0.00  0.00    +0.000 A 
ENDROOT
BRANCH   1   9
ATOM      7  C   UNL     1       3.337   4.695  19.010  0.00  0.00    +0.000 A 
ATOM      8  N   UNL     1       2.341   5.490  19.540  0.00  0.00    +0.000 NA
ATOM      9  C   UNL     1       2.635   6.694  19.086  0.00  0.00    +0.000 A 
ATOM     10  O   UNL     1       3.762   6.740  18.311  0.00  0.00    +0.000 OA
ATOM     11  C   UNL     1       4.216   5.445  18.251  0.00  0.00    +0.000 A 
BRANCH  11  12
ATOM     12  N   UNL     1       5.361   5.219  17.557  0.00  0.00    +0.000 N 
ATOM     13  C   UNL     1       5.383   5.104  16.089  0.00  0.00    +0.000 C 
ATOM     14  C   UNL     1       6.503   4.135  15.667  0.00  0.00    +0.000 C 
ATOM     15  O   UNL     1       7.775   4.515  16.216  0.00  0.00    +0.000 OA
ATOM     16  C   UNL     1       7.709   4.564  17.651  0.00  0.00    +0.000 C 
ATOM     17  C   UNL     1       6.668   5.592  18.121  0.00  0.00    +0.000 C 
ENDBRANCH  11  12
BRANCH   7  19
ATOM     18  N   UNL     1       3.482   2.182  19.605  0.00  0.00    +0.000 NA
ATOM     19  C   UNL     1       3.411   3.305  19.322  0.00  0.00    +0.000 C 
ENDBRANCH   7  19
ENDBRANCH   1   9
BRANCH   4  20
ATOM     20  O   UNL     1      -0.152  11.557  19.869  0.00  0.00    +0.000 OA
BRANCH  20  21
ATOM     21  C   UNL     1      -0.723  12.177  18.709  0.00  0.00    +0.000 C 
BRANCH  21  22
ATOM     22  C   UNL     1      -2.194  11.847  18.616  0.00  0.00    +0.000 A 
ATOM     23  C   UNL     1      -3.121  12.401  19.513  0.00  0.00    +0.000 A 
ATOM     24  C   UNL     1      -4.482  12.106  19.394  0.00  0.00    +0.000 A 
ATOM     25  C   UNL     1      -4.924  11.265  18.375  0.00  0.00    +0.000 A 
ATOM     26 CL   UNL     1      -6.597  10.885  18.243  0.00  0.00    +0.000 Cl
ATOM     27  C   UNL     1      -4.019  10.728  17.463  0.00  0.00    +0.000 A 
ATOM     28  C   UNL     1      -2.660  11.020  17.581  0.00  0.00    +0.000 A 
ENDBRANCH  21  22
ENDBRANCH  20  21
ENDBRANCH   4  20
TORSDOF 6
ENDMDL
MODEL 2
REMARK VINA RESULT:      -7.9      0.491      1.036
REMARK  Name = 
REMARK  6 active torsions:
REMARK  status: ('A' for Active; 'I' for Inactive)
REMARK    1  A    between atoms: C_2  and  C_3
REMARK    2  A    between atoms: C_5  and  C_6
REMARK    3  A    between atoms: C_9  and  O_10
REMARK    4  A    between atoms: O_10  and  C_11
REMARK    5  A    between atoms: C_11  and  C_12
REMARK    6  A    between atoms: C_22  and  N_23
REMARK                            x       y       z     vdW  Elec       q    Type
REMARK                         _______ _______ _______ _____ _____    ______ ____
ROOT
ATOM      1  C   UNL     1       1.901   7.825  19.602  0.00  0.00    +0.000 A 
ATOM      2  C   UNL     1       1.614   8.705  18.551  0.00  0.00    +0.000 A 
ATOM      3  C   UNL     1       0.824   9.844  18.756  0.00  0.00    +0.000 A 
ATOM      4  C   UNL     1       0.284  10.111  20.013  0.00  0.00    +0.000 A 
ATOM      5  C   UNL     1       0.588   9.258  21.076  0.00  0.00    +0.000 A 
ATOM      6  C   UNL     1       1.381   8.119  20.871  0.00  0.00    +0.000 A 
ENDROOT
BRANCH   1   9
ATOM      7  C   UNL     1       3.689   4.760  19.269  0.00  0.00    +0.000 A 
ATOM      8  N   UNL     1       2.686   5.459  19.909  0.00  0.00    +0.000 NA
ATOM      9  C   UNL     1       2.738   6.652  19.347  0.00  0.00    +0.000 A 
ATOM     10  O   UNL     1       3.715   6.783  18.398  0.00  0.00    +0.000 OA
ATOM     11  C   UNL     1       4.329   5.556  18.337  0.00  0.00    +0.000 A 
BRANCH  11  12
ATOM     12  N   UNL     1       5.374   5.426  17.480  0.00  0.00    +0.000 N 
ATOM     13  C   UNL     1       5.269   5.770  16.051  0.00  0.00    +0.000 C 
ATOM     14  C   UNL     1       6.202   4.858  15.234  0.00  0.00    +0.000 C 
ATOM     15  O   UNL     1       7.554   4.900  15.720  0.00  0.00    +0.000 OA
ATOM     16  C   UNL     1       7.604   4.509  17.103  0.00  0.00    +0.000 C 
ATOM     17  C   UNL     1       6.760   5.454  17.974  0.00  0.00    +0.000 C 
ENDBRANCH  11  12
BRANCH   7  19
ATOM     18  N   UNL     1       4.287   2.337  19.949  0.00  0.00    +0.000 NA
ATOM     19  C   UNL     1       4.002   3.418  19.640  0.00  0.00    +0.000 C 
ENDBRANCH   7  19
ENDBRANCH   1   9
BRANCH   4  20
ATOM     20  O   UNL     1      -0.540  11.167  20.299  0.00  0.00    +0.000 OA
BRANCH  20  21
ATOM     21  C   UNL     1      -0.928  11.961  19.171  0.00  0.00    +0.000 C 
BRANCH  21  22
ATOM     22  C   UNL     1      -2.402  11.779  18.891  0.00  0.00    +0.000 A 
ATOM     23  C   UNL     1      -2.847  10.904  17.887  0.00  0.00    +0.000 A 
ATOM     24  C   UNL     1      -4.214  10.727  17.660  0.00  0.00    +0.000 A 
ATOM     25  C   UNL     1      -5.142  11.415  18.440  0.00  0.00    +0.000 A 
ATOM     26 CL   UNL     1      -6.826  11.213  18.146  0.00  0.00    +0.000 Cl
ATOM     27  C   UNL     1      -4.716  12.266  19.456  0.00  0.00    +0.000 A 
ATOM     28  C   UNL     1      -3.350  12.445  19.682  0.00  0.00    +0.000 A 
ENDBRANCH  21  22
ENDBRANCH  20  21
ENDBRANCH   4  20
TORSDOF 6
ENDMDL
MODEL 3
REMARK VINA RESULT:      -7.9      0.569      1.070
REMARK  Name = 
REMARK  6 active torsions:
REMARK  status: ('A' for Active; 'I' for Inactive)
REMARK    1  A    between atoms: C_2  and  C_3
REMARK    2  A    between atoms: C_5  and  C_6
REMARK    3  A    between atoms: C_9  and  O_10
REMARK    4  A    between atoms: O_10  and  C_11
REMARK    5  A    between atoms: C_11  and  C_12
REMARK    6  A    between atoms: C_22  and  N_23
REMARK                            x       y       z     vdW  Elec       q    Type
REMARK                         _______ _______ _______ _____ _____    ______ ____
ROOT
ATOM      1  C   UNL     1       1.961   7.816  19.133  0.00  0.00    +0.000 A 
ATOM      2  C   UNL     1       1.887   8.751  18.092  0.00  0.00    +0.000 A 
ATOM      3  C   UNL     1       1.357  10.030  18.304  0.00  0.00    +0.000 A 
ATOM      4  C   UNL     1       0.866  10.391  19.557  0.00  0.00    +0.000 A 
ATOM      5  C   UNL     1       0.962   9.480  20.611  0.00  0.00    +0.000 A 
ATOM      6  C   UNL     1       1.495   8.200  20.399  0.00  0.00    +0.000 A 
ENDROOT
BRANCH   1   9
ATOM      7  C   UNL     1       2.968   4.434  18.631  0.00  0.00    +0.000 A 
ATOM      8  N   UNL     1       1.996   5.305  19.079  0.00  0.00    +0.000 NA
ATOM      9  C   UNL     1       2.530   6.494  18.872  0.00  0.00    +0.000 A 
ATOM     10  O   UNL     1       3.789   6.457  18.336  0.00  0.00    +0.000 OA
ATOM     11  C   UNL     1       4.074   5.124  18.170  0.00  0.00    +0.000 A 
BRANCH  11  12
ATOM     12  N   UNL     1       5.299   4.808  17.675  0.00  0.00    +0.000 N 
ATOM     13  C   UNL     1       6.457   4.546  18.547  0.00  0.00    +0.000 C 
ATOM     14  C   UNL     1       7.747   4.986  17.831  0.00  0.00    +0.000 C 
ATOM     15  O   UNL     1       7.876   4.378  16.535  0.00  0.00    +0.000 OA
ATOM     16  C   UNL     1       6.744   4.706  15.712  0.00  0.00    +0.000 C 
ATOM     17  C   UNL     1       5.437   4.199  16.343  0.00  0.00    +0.000 C 
ENDBRANCH  11  12
BRANCH   7  19
ATOM     18  N   UNL     1       2.642   1.878  18.857  0.00  0.00    +0.000 NA
ATOM     19  C   UNL     1       2.797   3.022  18.741  0.00  0.00    +0.000 C 
ENDBRANCH   7  19
ENDBRANCH   1   9
BRANCH   4  20
ATOM     20  O   UNL     1       0.283  11.596  19.849  0.00  0.00    +0.000 OA
BRANCH  20  21
ATOM     21  C   UNL     1      -0.255  12.301  18.722  0.00  0.00    +0.000 C 
BRANCH  21  22
ATOM     22  C   UNL     1      -1.724  11.988  18.568  0.00  0.00    +0.000 A 
ATOM     23  C   UNL     1      -2.663  12.430  19.512  0.00  0.00    +0.000 A 
ATOM     24  C   UNL     1      -4.023  12.155  19.339  0.00  0.00    +0.000 A 
ATOM     25  C   UNL     1      -4.450  11.446  18.219  0.00  0.00    +0.000 A 
ATOM     26 CL   UNL     1      -6.121  11.088  18.016  0.00  0.00    +0.000 Cl
ATOM     27  C   UNL     1      -3.533  11.022  17.260  0.00  0.00    +0.000 A 
ATOM     28  C   UNL     1      -2.175  11.295  17.434  0.00  0.00    +0.000 A 
ENDBRANCH  21  22
ENDBRANCH  20  21
ENDBRANCH   4  20
TORSDOF 6
ENDMDL
MODEL 4
REMARK VINA RESULT:      -7.8      3.188      4.303
REMARK  Name = 
REMARK  6 active torsions:
REMARK  status: ('A' for Active; 'I' for Inactive)
REMARK    1  A    between atoms: C_2  and  C_3
REMARK    2  A    between atoms: C_5  and  C_6
REMARK    3  A    between atoms: C_9  and  O_10
REMARK    4  A    between atoms: O_10  and  C_11
REMARK    5  A    between atoms: C_11  and  C_12
REMARK    6  A    between atoms: C_22  and  N_23
REMARK                            x       y       z     vdW  Elec       q    Type
REMARK                         _______ _______ _______ _____ _____    ______ ____
ROOT
ATOM      1  C   UNL     1       1.667   8.517  19.177  0.00  0.00    +0.000 A 
ATOM      2  C   UNL     1       1.431   8.361  20.550  0.00  0.00    +0.000 A 
ATOM      3  C   UNL     1       0.567   9.221  21.238  0.00  0.00    +0.000 A 
ATOM      4  C   UNL     1      -0.060  10.273  20.572  0.00  0.00    +0.000 A 
ATOM      5  C   UNL     1       0.141  10.421  19.198  0.00  0.00    +0.000 A 
ATOM      6  C   UNL     1       1.005   9.557  18.508  0.00  0.00    +0.000 A 
ENDROOT
BRANCH   1   9
ATOM      7  C   UNL     1       4.030   6.609  17.313  0.00  0.00    +0.000 A 
ATOM      8  N   UNL     1       3.475   7.847  17.569  0.00  0.00    +0.000 NA
ATOM      9  C   UNL     1       2.569   7.591  18.493  0.00  0.00    +0.000 A 
ATOM     10  O   UNL     1       2.483   6.271  18.844  0.00  0.00    +0.000 OA
ATOM     11  C   UNL     1       3.434   5.631  18.088  0.00  0.00    +0.000 A 
BRANCH  11  12
ATOM     12  N   UNL     1       3.534   4.284  18.225  0.00  0.00    +0.000 N 
ATOM     13  C   UNL     1       2.857   3.347  17.312  0.00  0.00    +0.000 C 
ATOM     14  C   UNL     1       2.482   2.065  18.078  0.00  0.00    +0.000 C 
ATOM     15  O   UNL     1       3.619   1.480  18.735  0.00  0.00    +0.000 OA
ATOM     16  C   UNL     1       4.211   2.421  19.648  0.00  0.00    +0.000 C 
ATOM     17  C   UNL     1       4.689   3.681  18.909  0.00  0.00    +0.000 C 
ENDBRANCH  11  12
BRANCH   7  19
ATOM     18  N   UNL     1       5.864   6.317  15.512  0.00  0.00    +0.000 NA
ATOM     19  C   UNL     1       5.029   6.445  16.308  0.00  0.00    +0.000 C 
ENDBRANCH   7  19
ENDBRANCH   1   9
BRANCH   4  20
ATOM     20  O   UNL     1      -0.878  11.196  21.168  0.00  0.00    +0.000 OA
BRANCH  20  21
ATOM     21  C   UNL     1      -1.106  10.995  22.569  0.00  0.00    +0.000 C 
BRANCH  21  22
ATOM     22  C   UNL     1      -1.761  12.217  23.168  0.00  0.00    +0.000 A 
ATOM     23  C   UNL     1      -1.094  13.450  23.212  0.00  0.00    +0.000 A 
ATOM     24  C   UNL     1      -1.726  14.577  23.746  0.00  0.00    +0.000 A 
ATOM     25  C   UNL     1      -3.029  14.479  24.228  0.00  0.00    +0.000 A 
ATOM     26 CL   UNL     1      -3.800  15.860  24.904  0.00  0.00    +0.000 Cl
ATOM     27  C   UNL     1      -3.713  13.267  24.168  0.00  0.00    +0.000 A 
ATOM     28  C   UNL     1      -3.082  12.141  23.637  0.00  0.00    +0.000 A 
ENDBRANCH  21  22
ENDBRANCH  20  21
ENDBRANCH   4  20
TORSDOF 6
ENDMDL
MODEL 5
REMARK VINA RESULT:      -7.8      1.231      1.495
REMARK  Name = 
REMARK  6 active torsions:
REMARK  status: ('A' for Active; 'I' for Inactive)
REMARK    1  A    between atoms: C_2  and  C_3
REMARK    2  A    between atoms: C_5  and  C_6
REMARK    3  A    between atoms: C_9  and  O_10
REMARK    4  A    between atoms: O_10  and  C_11
REMARK    5  A    between atoms: C_11  and  C_12
REMARK    6  A    between atoms: C_22  and  N_23
REMARK                            x       y       z     vdW  Elec       q    Type
REMARK                         _______ _______ _______ _____ _____    ______ ____
ROOT
ATOM      1  C   UNL     1       2.023   8.045  19.105  0.00  0.00    +0.000 A 
ATOM      2  C   UNL     1       2.072   8.954  18.039  0.00  0.00    +0.000 A 
ATOM      3  C   UNL     1       1.335  10.145  18.070  0.00  0.00    +0.000 A 
ATOM      4  C   UNL     1       0.513  10.438  19.157  0.00  0.00    +0.000 A 
ATOM      5  C   UNL     1       0.479   9.556  20.239  0.00  0.00    +0.000 A 
ATOM      6  C   UNL     1       1.220   8.365  20.209  0.00  0.00    +0.000 A 
ENDROOT
BRANCH   1   9
ATOM      7  C   UNL     1       3.667   4.885  19.218  0.00  0.00    +0.000 A 
ATOM      8  N   UNL     1       2.647   5.685  19.692  0.00  0.00    +0.000 NA
ATOM      9  C   UNL     1       2.816   6.818  19.038  0.00  0.00    +0.000 A 
ATOM     10  O   UNL     1       3.885   6.817  18.183  0.00  0.00    +0.000 OA
ATOM     11  C   UNL     1       4.435   5.564  18.290  0.00  0.00    +0.000 A 
BRANCH  11  12
ATOM     12  N   UNL     1       5.549   5.309  17.556  0.00  0.00    +0.000 N 
ATOM     13  C   UNL     1       5.553   5.370  16.084  0.00  0.00    +0.000 C 
ATOM     14  C   UNL     1       6.568   4.351  15.532  0.00  0.00    +0.000 C 
ATOM     15  O   UNL     1       7.874   4.532  16.102  0.00  0.00    +0.000 OA
ATOM     16  C   UNL     1       7.819   4.414  17.534  0.00  0.00    +0.000 C 
ATOM     17  C   UNL     1       6.889   5.478  18.139  0.00  0.00    +0.000 C 
ENDBRANCH  11  12
BRANCH   7  19
ATOM     18  N   UNL     1       4.067   2.508  20.156  0.00  0.00    +0.000 NA
ATOM     19  C   UNL     1       3.871   3.571  19.734  0.00  0.00    +0.000 C 
ENDBRANCH   7  19
ENDBRANCH   1   9
BRANCH   4  20
ATOM     20  O   UNL     1      -0.284  11.548  19.255  0.00  0.00    +0.000 OA
BRANCH  20  21
ATOM     21  C   UNL     1      -1.680  11.282  19.437  0.00  0.00    +0.000 C 
BRANCH  21  22
ATOM     22  C   UNL     1      -2.326  10.966  18.109  0.00  0.00    +0.000 A 
ATOM     23  C   UNL     1      -3.469  11.656  17.676  0.00  0.00    +0.000 A 
ATOM     24  C   UNL     1      -4.037  11.370  16.431  0.00  0.00    +0.000 A 
ATOM     25  C   UNL     1      -3.461  10.402  15.610  0.00  0.00    +0.000 A 
ATOM     26 CL   UNL     1      -4.173  10.036  14.087  0.00  0.00    +0.000 Cl
ATOM     27  C   UNL     1      -2.312   9.728  16.016  0.00  0.00    +0.000 A 
ATOM     28  C   UNL     1      -1.745  10.011  17.260  0.00  0.00    +0.000 A 
ENDBRANCH  21  22
ENDBRANCH  20  21
ENDBRANCH   4  20
TORSDOF 6
ENDMDL
MODEL 6
REMARK VINA RESULT:      -7.8      1.303      1.732
REMARK  Name = 
REMARK  6 active torsions:
REMARK  status: ('A' for Active; 'I' for Inactive)
REMARK    1  A    between atoms: C_2  and  C_3
REMARK    2  A    between atoms: C_5  and  C_6
REMARK    3  A    between atoms: C_9  and  O_10
REMARK    4  A    between atoms: O_10  and  C_11
REMARK    5  A    between atoms: C_11  and  C_12
REMARK    6  A    between atoms: C_22  and  N_23
REMARK                            x       y       z     vdW  Elec       q    Type
REMARK                         _______ _______ _______ _____ _____    ______ ____
ROOT
ATOM      1  C   UNL     1       2.022   7.922  19.226  0.00  0.00    +0.000 A 
ATOM      2  C   UNL     1       1.471   8.224  20.479  0.00  0.00    +0.000 A 
ATOM      3  C   UNL     1       0.741   9.402  20.683  0.00  0.00    +0.000 A 
ATOM      4  C   UNL     1       0.570  10.315  19.644  0.00  0.00    +0.000 A 
ATOM      5  C   UNL     1       1.088  10.012  18.383  0.00  0.00    +0.000 A 
ATOM      6  C   UNL     1       1.816   8.831  18.178  0.00  0.00    +0.000 A 
ENDROOT
BRANCH   1   9
ATOM      7  C   UNL     1       3.539   4.702  19.051  0.00  0.00    +0.000 A 
ATOM      8  N   UNL     1       2.534   5.489  19.577  0.00  0.00    +0.000 NA
ATOM      9  C   UNL     1       2.769   6.677  19.052  0.00  0.00    +0.000 A 
ATOM     10  O   UNL     1       3.866   6.722  18.235  0.00  0.00    +0.000 OA
ATOM     11  C   UNL     1       4.364   5.442  18.224  0.00  0.00    +0.000 A 
BRANCH  11  12
ATOM     12  N   UNL     1       5.491   5.220  17.501  0.00  0.00    +0.000 N 
ATOM     13  C   UNL     1       5.490   5.188  16.028  0.00  0.00    +0.000 C 
ATOM     14  C   UNL     1       6.572   4.210  15.535  0.00  0.00    +0.000 C 
ATOM     15  O   UNL     1       7.864   4.517  16.085  0.00  0.00    +0.000 OA
ATOM     16  C   UNL     1       7.819   4.487  17.522  0.00  0.00    +0.000 C 
ATOM     17  C   UNL     1       6.817   5.519  18.065  0.00  0.00    +0.000 C 
ENDBRANCH  11  12
BRANCH   7  19
ATOM     18  N   UNL     1       3.786   2.211  19.705  0.00  0.00    +0.000 NA
ATOM     19  C   UNL     1       3.673   3.332  19.428  0.00  0.00    +0.000 C 
ENDBRANCH   7  19
ENDBRANCH   1   9
BRANCH   4  20
ATOM     20  O   UNL     1      -0.080  11.516  19.760  0.00  0.00    +0.000 OA
BRANCH  20  21
ATOM     21  C   UNL     1      -1.508  11.429  19.856  0.00  0.00    +0.000 C 
BRANCH  21  22
ATOM     22  C   UNL     1      -2.098  11.078  18.511  0.00  0.00    +0.000 A 
ATOM     23  C   UNL     1      -1.939  11.928  17.405  0.00  0.00    +0.000 A 
ATOM     24  C   UNL     1      -2.468  11.575  16.161  0.00  0.00    +0.000 A 
ATOM     25  C   UNL     1      -3.150  10.369  16.013  0.00  0.00    +0.000 A 
ATOM     26 CL   UNL     1      -3.819   9.944  14.486  0.00  0.00    +0.000 Cl
ATOM     27  C   UNL     1      -3.293   9.503  17.095  0.00  0.00    +0.000 A 
ATOM     28  C   UNL     1      -2.766   9.856  18.338  0.00  0.00    +0.000 A 
ENDBRANCH  21  22
ENDBRANCH  20  21
ENDBRANCH   4  20
TORSDOF 6
ENDMDL
MODEL 7
REMARK VINA RESULT:      -7.8      1.404      1.758
REMARK  Name = 
REMARK  6 active torsions:
REMARK  status: ('A' for Active; 'I' for Inactive)
REMARK    1  A    between atoms: C_2  and  C_3
REMARK    2  A    between atoms: C_5  and  C_6
REMARK    3  A    between atoms: C_9  and  O_10
REMARK    4  A    between atoms: O_10  and  C_11
REMARK    5  A    between atoms: C_11  and  C_12
REMARK    6  A    between atoms: C_22  and  N_23
REMARK                            x       y       z     vdW  Elec       q    Type
REMARK                         _______ _______ _______ _____ _____    ______ ____
ROOT
ATOM      1  C   UNL     1       2.023   7.769  19.091  0.00  0.00    +0.000 A 
ATOM      2  C   UNL     1       2.065   8.754  18.095  0.00  0.00    +0.000 A 
ATOM      3  C   UNL     1       1.533  10.031  18.317  0.00  0.00    +0.000 A 
ATOM      4  C   UNL     1       0.926  10.340  19.533  0.00  0.00    +0.000 A 
ATOM      5  C   UNL     1       0.905   9.377  20.545  0.00  0.00    +0.000 A 
ATOM      6  C   UNL     1       1.440   8.100  20.322  0.00  0.00    +0.000 A 
ENDROOT
BRANCH   1   9
ATOM      7  C   UNL     1       3.053   4.394  18.587  0.00  0.00    +0.000 A 
ATOM      8  N   UNL     1       2.090   5.259  19.067  0.00  0.00    +0.000 NA
ATOM      9  C   UNL     1       2.598   6.451  18.821  0.00  0.00    +0.000 A 
ATOM     10  O   UNL     1       3.833   6.423  18.230  0.00  0.00    +0.000 OA
ATOM     11  C   UNL     1       4.128   5.092  18.068  0.00  0.00    +0.000 A 
BRANCH  11  12
ATOM     12  N   UNL     1       5.333   4.785  17.524  0.00  0.00    +0.000 N 
ATOM     13  C   UNL     1       6.487   4.376  18.343  0.00  0.00    +0.000 C 
ATOM     14  C   UNL     1       7.789   4.843  17.666  0.00  0.00    +0.000 C 
ATOM     15  O   UNL     1       7.880   4.385  16.306  0.00  0.00    +0.000 OA
ATOM     16  C   UNL     1       6.755   4.853  15.542  0.00  0.00    +0.000 C 
ATOM     17  C   UNL     1       5.434   4.330  16.128  0.00  0.00    +0.000 C 
ENDBRANCH  11  12
BRANCH   7  19
ATOM     18  N   UNL     1       2.811   1.829  18.812  0.00  0.00    +0.000 NA
ATOM     19  C   UNL     1       2.906   2.981  18.722  0.00  0.00    +0.000 C 
ENDBRANCH   7  19
ENDBRANCH   1   9
BRANCH   4  20
ATOM     20  O   UNL     1       0.333  11.539  19.826  0.00  0.00    +0.000 OA
BRANCH  20  21
ATOM     21  C   UNL     1      -1.088  11.488  20.009  0.00  0.00    +0.000 C 
BRANCH  21  22
ATOM     22  C   UNL     1      -1.767  11.139  18.706  0.00  0.00    +0.000 A 
ATOM     23  C   UNL     1      -1.708  12.004  17.602  0.00  0.00    +0.000 A 
ATOM     24  C   UNL     1      -2.318  11.652  16.395  0.00  0.00    +0.000 A 
ATOM     25  C   UNL     1      -2.982  10.432  16.283  0.00  0.00    +0.000 A 
ATOM     26 CL   UNL     1      -3.752  10.008  14.803  0.00  0.00    +0.000 Cl
ATOM     27  C   UNL     1      -3.027   9.552  17.361  0.00  0.00    +0.000 A 
ATOM     28  C   UNL     1      -2.419   9.904  18.568  0.00  0.00    +0.000 A 
ENDBRANCH  21  22
ENDBRANCH  20  21
ENDBRANCH   4  20
TORSDOF 6
ENDMDL
MODEL 8
REMARK VINA RESULT:      -7.8      2.037      2.597
REMARK  Name = 
REMARK  6 active torsions:
REMARK  status: ('A' for Active; 'I' for Inactive)
REMARK    1  A    between atoms: C_2  and  C_3
REMARK    2  A    between atoms: C_5  and  C_6
REMARK    3  A    between atoms: C_9  and  O_10
REMARK    4  A    between atoms: O_10  and  C_11
REMARK    5  A    between atoms: C_11  and  C_12
REMARK    6  A    between atoms: C_22  and  N_23
REMARK                            x       y       z     vdW  Elec       q    Type
REMARK                         _______ _______ _______ _____ _____    ______ ____
ROOT
ATOM      1  C   UNL     1       2.015   7.893  19.075  0.00  0.00    +0.000 A 
ATOM      2  C   UNL     1       1.985   8.941  18.146  0.00  0.00    +0.000 A 
ATOM      3  C   UNL     1       1.526  10.215  18.506  0.00  0.00    +0.000 A 
ATOM      4  C   UNL     1       1.063  10.458  19.797  0.00  0.00    +0.000 A 
ATOM      5  C   UNL     1       1.116   9.431  20.742  0.00  0.00    +0.000 A 
ATOM      6  C   UNL     1       1.579   8.157  20.382  0.00  0.00    +0.000 A 
ENDROOT
BRANCH   1   9
ATOM      7  C   UNL     1       2.827   4.547  18.157  0.00  0.00    +0.000 A 
ATOM      8  N   UNL     1       1.888   5.418  18.671  0.00  0.00    +0.000 NA
ATOM      9  C   UNL     1       2.511   6.581  18.661  0.00  0.00    +0.000 A 
ATOM     10  O   UNL     1       3.796   6.524  18.193  0.00  0.00    +0.000 OA
ATOM     11  C   UNL     1       4.003   5.209  17.856  0.00  0.00    +0.000 A 
BRANCH  11  12
ATOM     12  N   UNL     1       5.232   4.873  17.387  0.00  0.00    +0.000 N 
ATOM     13  C   UNL     1       6.292   4.345  18.263  0.00  0.00    +0.000 C 
ATOM     14  C   UNL     1       7.667   4.783  17.727  0.00  0.00    +0.000 C 
ATOM     15  O   UNL     1       7.848   4.417  16.349  0.00  0.00    +0.000 OA
ATOM     16  C   UNL     1       6.815   4.999  15.535  0.00  0.00    +0.000 C 
ATOM     17  C   UNL     1       5.425   4.512  15.974  0.00  0.00    +0.000 C 
ENDBRANCH  11  12
BRANCH   7  19
ATOM     18  N   UNL     1       2.307   2.018  17.987  0.00  0.00    +0.000 NA
ATOM     19  C   UNL     1       2.557   3.149  18.057  0.00  0.00    +0.000 C 
ENDBRANCH   7  19
ENDBRANCH   1   9
BRANCH   4  20
ATOM     20  O   UNL     1       0.547  11.652  20.229  0.00  0.00    +0.000 OA
BRANCH  20  21
ATOM     21  C   UNL     1      -0.793  11.927  19.800  0.00  0.00    +0.000 C 
BRANCH  21  22
ATOM     22  C   UNL     1      -1.702  12.069  20.999  0.00  0.00    +0.000 A 
ATOM     23  C   UNL     1      -1.302  11.626  22.269  0.00  0.00    +0.000 A 
ATOM     24  C   UNL     1      -2.145  11.791  23.372  0.00  0.00    +0.000 A 
ATOM     25  C   UNL     1      -3.384  12.407  23.213  0.00  0.00    +0.000 A 
ATOM     26 CL   UNL     1      -4.430  12.592  24.567  0.00  0.00    +0.000 Cl
ATOM     27  C   UNL     1      -3.784  12.875  21.963  0.00  0.00    +0.000 A 
ATOM     28  C   UNL     1      -2.943  12.709  20.861  0.00  0.00    +0.000 A 
ENDBRANCH  21  22
ENDBRANCH  20  21
ENDBRANCH   4  20
TORSDOF 6
ENDMDL
MODEL 9
REMARK VINA RESULT:      -7.8      1.840      2.618
REMARK  Name = 
REMARK  6 active torsions:
REMARK  status: ('A' for Active; 'I' for Inactive)
REMARK    1  A    between atoms: C_2  and  C_3
REMARK    2  A    between atoms: C_5  and  C_6
REMARK    3  A    between atoms: C_9  and  O_10
REMARK    4  A    between atoms: O_10  and  C_11
REMARK    5  A    between atoms: C_11  and  C_12
REMARK    6  A    between atoms: C_22  and  N_23
REMARK                            x       y       z     vdW  Elec       q    Type
REMARK                         _______ _______ _______ _____ _____    ______ ____
ROOT
ATOM      1  C   UNL     1       1.959   7.831  19.038  0.00  0.00    +0.000 A 
ATOM      2  C   UNL     1       1.508   8.144  20.327  0.00  0.00    +0.000 A 
ATOM      3  C   UNL     1       0.955   9.398  20.616  0.00  0.00    +0.000 A 
ATOM      4  C   UNL     1       0.866  10.374  19.625  0.00  0.00    +0.000 A 
ATOM      5  C   UNL     1       1.283  10.065  18.328  0.00  0.00    +0.000 A 
ATOM      6  C   UNL     1       1.834   8.808  18.040  0.00  0.00    +0.000 A 
ENDROOT
BRANCH   1   9
ATOM      7  C   UNL     1       2.944   4.444  18.527  0.00  0.00    +0.000 A 
ATOM      8  N   UNL     1       1.972   5.321  18.965  0.00  0.00    +0.000 NA
ATOM      9  C   UNL     1       2.520   6.506  18.776  0.00  0.00    +0.000 A 
ATOM     10  O   UNL     1       3.788   6.461  18.261  0.00  0.00    +0.000 OA
ATOM     11  C   UNL     1       4.064   5.127  18.089  0.00  0.00    +0.000 A 
BRANCH  11  12
ATOM     12  N   UNL     1       5.294   4.803  17.613  0.00  0.00    +0.000 N 
ATOM     13  C   UNL     1       6.428   4.499  18.502  0.00  0.00    +0.000 C 
ATOM     14  C   UNL     1       7.741   4.936  17.827  0.00  0.00    +0.000 C 
ATOM     15  O   UNL     1       7.888   4.361  16.518  0.00  0.00    +0.000 OA
ATOM     16  C   UNL     1       6.780   4.730  15.679  0.00  0.00    +0.000 C 
ATOM     17  C   UNL     1       5.451   4.228  16.268  0.00  0.00    +0.000 C 
ENDBRANCH  11  12
BRANCH   7  19
ATOM     18  N   UNL     1       2.629   1.884  18.722  0.00  0.00    +0.000 NA
ATOM     19  C   UNL     1       2.758   3.033  18.622  0.00  0.00    +0.000 C 
ENDBRANCH   7  19
ENDBRANCH   1   9
BRANCH   4  20
ATOM     20  O   UNL     1       0.391  11.644  19.822  0.00  0.00    +0.000 OA
BRANCH  20  21
ATOM     21  C   UNL     1       0.324  12.064  21.191  0.00  0.00    +0.000 C 
BRANCH  21  22
ATOM     22  C   UNL     1      -1.114  12.297  21.592  0.00  0.00    +0.000 A 
ATOM     23  C   UNL     1      -2.068  12.724  20.656  0.00  0.00    +0.000 A 
ATOM     24  C   UNL     1      -3.400  12.907  21.038  0.00  0.00    +0.000 A 
ATOM     25  C   UNL     1      -3.786  12.656  22.353  0.00  0.00    +0.000 A 
ATOM     26 CL   UNL     1      -5.421  12.902  22.829  0.00  0.00    +0.000 Cl
ATOM     27  C   UNL     1      -2.855  12.208  23.287  0.00  0.00    +0.000 A 
ATOM     28  C   UNL     1      -1.525  12.026  22.906  0.00  0.00    +0.000 A 
ENDBRANCH  21  22
ENDBRANCH  20  21
ENDBRANCH   4  20
TORSDOF 6
ENDMDL
