MODEL 1
REMARK VINA RESULT:      -8.3      0.000      0.000
REMARK  Name = 
REMARK  11 active torsions:
REMARK  status: ('A' for Active; 'I' for Inactive)
REMARK    1  A    between atoms: C_2  and  O_3
REMARK    2  A    between atoms: C_2  and  C_4
REMARK    3  A    between atoms: C_4  and  C_5
REMARK    4  A    between atoms: C_10  and  O_11
REMARK    5  A    between atoms: O_11  and  C_12
REMARK    6  A    between atoms: C_12  and  C_13
REMARK    7  A    between atoms: C_13  and  C_14
REMARK    8  A    between atoms: N_22  and  C_23
REMARK    9  A    between atoms: C_23  and  C_24
REMARK   10  A    between atoms: C_24  and  C_25
REMARK   11  A    between atoms: C_25  and  C_26
REMARK                            x       y       z     vdW  Elec       q    Type
REMARK                         _______ _______ _______ _____ _____    ______ ____
ROOT
ATOM      1  C   UNL     1       7.697   6.833  17.708  0.00  0.00    +0.000 C 
ATOM      2  O   UNL     1       7.212   6.743  16.372  0.00  0.00    +0.000 OA
ATOM      3  C   UNL     1       6.609   5.552  16.083  0.00  0.00    +0.000 A 
ATOM      4  C   UNL     1       6.667   5.142  14.752  0.00  0.00    +0.000 A 
ATOM      5  C   UNL     1       6.093   3.931  14.375  0.00  0.00    +0.000 A 
ATOM      6  C   UNL     1       5.436   3.148  15.326  0.00  0.00    +0.000 A 
ATOM      7  C   UNL     1       5.336   3.585  16.656  0.00  0.00    +0.000 A 
ATOM      8  C   UNL     1       5.924   4.794  17.037  0.00  0.00    +0.000 A 
ATOM      9  N   UNL     1       5.943   5.202  18.406  0.00  0.00    +0.000 N 
ATOM     10  C   UNL     1       7.136   5.840  18.767  0.00  0.00    +0.000 C 
ATOM     11  O   UNL     1       7.664   5.683  19.875  0.00  0.00    +0.000 OA
ENDROOT
BRANCH   1  12
ATOM     12  C   UNL     1       7.517   8.312  18.135  0.00  0.00    +0.000 C 
BRANCH  12  13
ATOM     13  C   UNL     1       8.856   8.982  18.417  0.00  0.00    +0.000 C 
BRANCH  13  14
ATOM     14  O   UNL     1       8.948  10.347  18.050  0.00  0.00    +0.000 OA
BRANCH  14  20
ATOM     15  C   UNL     1      10.581  12.182  18.700  0.00  0.00    +0.000 A 
ATOM     16  C   UNL     1      11.036  12.945  19.806  0.00  0.00    +0.000 A 
ATOM     17  C   UNL     1      10.611  12.697  21.105  0.00  0.00    +0.000 A 
ATOM     18  C   UNL     1       9.705  11.674  21.339  0.00  0.00    +0.000 A 
ATOM     19  C   UNL     1       9.207  10.931  20.262  0.00  0.00    +0.000 A 
ATOM     20  C   UNL     1       9.608  11.182  18.933  0.00  0.00    +0.000 A 
BRANCH  15  21
ATOM     21  C   UNL     1      11.258  12.559  17.392  0.00  0.00    +0.000 C 
BRANCH  21  23
ATOM     22  O   UNL     1      12.328  14.700  16.947  0.00  0.00    +0.000 OA
ATOM     23  C   UNL     1      11.308  14.033  17.090  0.00  0.00    +0.000 C 
BRANCH  23  24
ATOM     24  O   UNL     1      10.072  14.589  16.901  0.00  0.00    +0.000 OA
ATOM     25  H   UNL     1      10.042  15.572  17.001  0.00  0.00    +0.000 HD
ENDBRANCH  23  24
ENDBRANCH  21  23
ENDBRANCH  15  21
ENDBRANCH  14  20
ENDBRANCH  13  14
ENDBRANCH  12  13
ENDBRANCH   1  12
BRANCH   9  26
ATOM     26  C   UNL     1       4.769   5.984  18.829  0.00  0.00    +0.000 C 
BRANCH  26  27
ATOM     27  C   UNL     1       3.701   6.231  17.769  0.00  0.00    +0.000 C 
BRANCH  27  28
ATOM     28  C   UNL     1       2.281   5.809  18.167  0.00  0.00    +0.000 C 
BRANCH  28  29
ATOM     29  C   UNL     1       2.166   4.452  18.876  0.00  0.00    +0.000 C 
ATOM     30  C   UNL     1       1.268   4.484  20.112  0.00  0.00    +0.000 C 
ATOM     31  C   UNL     1       0.862   3.032  20.331  0.00  0.00    +0.000 C 
ATOM     32  C   UNL     1       0.936   2.358  18.963  0.00  0.00    +0.000 C 
ATOM     33  C   UNL     1       1.480   3.405  17.995  0.00  0.00    +0.000 C 
ENDBRANCH  28  29
ENDBRANCH  27  28
ENDBRANCH  26  27
ENDBRANCH   9  26
TORSDOF 11
ENDMDL
MODEL 2
REMARK VINA RESULT:      -8.2      4.876      7.470
REMARK  Name = 
REMARK  11 active torsions:
REMARK  status: ('A' for Active; 'I' for Inactive)
REMARK    1  A    between atoms: C_2  and  O_3
REMARK    2  A    between atoms: C_2  and  C_4
REMARK    3  A    between atoms: C_4  and  C_5
REMARK    4  A    between atoms: C_10  and  O_11
REMARK    5  A    between atoms: O_11  and  C_12
REMARK    6  A    between atoms: C_12  and  C_13
REMARK    7  A    between atoms: C_13  and  C_14
REMARK    8  A    between atoms: N_22  and  C_23
REMARK    9  A    between atoms: C_23  and  C_24
REMARK   10  A    between atoms: C_24  and  C_25
REMARK   11  A    between atoms: C_25  and  C_26
REMARK                            x       y       z     vdW  Elec       q    Type
REMARK                         _______ _______ _______ _____ _____    ______ ____
ROOT
ATOM      1  C   UNL     1       3.098   7.719  18.468  0.00  0.00    +0.000 C 
ATOM      2  O   UNL     1       4.170   7.832  17.537  0.00  0.00    +0.000 OA
ATOM      3  C   UNL     1       5.019   6.761  17.541  0.00  0.00    +0.000 A 
ATOM      4  C   UNL     1       6.337   7.022  17.171  0.00  0.00    +0.000 A 
ATOM      5  C   UNL     1       7.271   5.990  17.166  0.00  0.00    +0.000 A 
ATOM      6  C   UNL     1       6.877   4.694  17.501  0.00  0.00    +0.000 A 
ATOM      7  C   UNL     1       5.538   4.423  17.826  0.00  0.00    +0.000 A 
ATOM      8  C   UNL     1       4.603   5.462  17.845  0.00  0.00    +0.000 A 
ATOM      9  N   UNL     1       3.265   5.236  18.290  0.00  0.00    +0.000 N 
ATOM     10  C   UNL     1       2.749   6.309  19.027  0.00  0.00    +0.000 C 
ATOM     11  O   UNL     1       2.009   6.147  20.005  0.00  0.00    +0.000 OA
ENDROOT
BRANCH   1  12
ATOM     12  C   UNL     1       1.878   8.409  17.808  0.00  0.00    +0.000 C 
BRANCH  12  13
ATOM     13  C   UNL     1       1.352   9.557  18.660  0.00  0.00    +0.000 C 
BRANCH  13  14
ATOM     14  O   UNL     1       0.019   9.421  19.117  0.00  0.00    +0.000 OA
BRANCH  14  20
ATOM     15  C   UNL     1      -0.658  11.264  20.731  0.00  0.00    +0.000 A 
ATOM     16  C   UNL     1      -0.960  11.512  22.095  0.00  0.00    +0.000 A 
ATOM     17  C   UNL     1      -0.821  10.539  23.075  0.00  0.00    +0.000 A 
ATOM     18  C   UNL     1      -0.376   9.275  22.719  0.00  0.00    +0.000 A 
ATOM     19  C   UNL     1      -0.109   8.989  21.375  0.00  0.00    +0.000 A 
ATOM     20  C   UNL     1      -0.267   9.956  20.361  0.00  0.00    +0.000 A 
BRANCH  15  21
ATOM     21  C   UNL     1      -0.781  12.501  19.855  0.00  0.00    +0.000 C 
BRANCH  21  23
ATOM     22  O   UNL     1      -2.737  11.836  18.566  0.00  0.00    +0.000 OA
ATOM     23  C   UNL     1      -1.616  12.333  18.613  0.00  0.00    +0.000 C 
BRANCH  23  24
ATOM     24  O   UNL     1      -1.036  12.870  17.495  0.00  0.00    +0.000 OA
ATOM     25  H   UNL     1      -0.599  13.746  17.637  0.00  0.00    +0.000 HD
ENDBRANCH  23  24
ENDBRANCH  21  23
ENDBRANCH  15  21
ENDBRANCH  14  20
ENDBRANCH  13  14
ENDBRANCH  12  13
ENDBRANCH   1  12
BRANCH   9  26
ATOM     26  C   UNL     1       2.331   4.815  17.233  0.00  0.00    +0.000 C 
BRANCH  26  27
ATOM     27  C   UNL     1       1.368   3.686  17.588  0.00  0.00    +0.000 C 
BRANCH  27  28
ATOM     28  C   UNL     1       2.036   2.367  17.995  0.00  0.00    +0.000 C 
BRANCH  28  29
ATOM     29  C   UNL     1       2.014   2.048  19.497  0.00  0.00    +0.000 C 
ATOM     30  C   UNL     1       3.264   2.518  20.240  0.00  0.00    +0.000 C 
ATOM     31  C   UNL     1       2.835   2.606  21.699  0.00  0.00    +0.000 C 
ATOM     32  C   UNL     1       1.328   2.848  21.686  0.00  0.00    +0.000 C 
ATOM     33  C   UNL     1       0.895   2.796  20.224  0.00  0.00    +0.000 C 
ENDBRANCH  28  29
ENDBRANCH  27  28
ENDBRANCH  26  27
ENDBRANCH   9  26
TORSDOF 11
ENDMDL
MODEL 3
REMARK VINA RESULT:      -8.2      1.525      2.090
REMARK  Name = 
REMARK  11 active torsions:
REMARK  status: ('A' for Active; 'I' for Inactive)
REMARK    1  A    between atoms: C_2  and  O_3
REMARK    2  A    between atoms: C_2  and  C_4
REMARK    3  A    between atoms: C_4  and  C_5
REMARK    4  A    between atoms: C_10  and  O_11
REMARK    5  A    between atoms: O_11  and  C_12
REMARK    6  A    between atoms: C_12  and  C_13
REMARK    7  A    between atoms: C_13  and  C_14
REMARK    8  A    between atoms: N_22  and  C_23
REMARK    9  A    between atoms: C_23  and  C_24
REMARK   10  A    between atoms: C_24  and  C_25
REMARK   11  A    between atoms: C_25  and  C_26
REMARK                            x       y       z     vdW  Elec       q    Type
REMARK                         _______ _______ _______ _____ _____    ______ ____
ROOT
ATOM      1  C   UNL     1       7.740   6.922  17.584  0.00  0.00    +0.000 C 
ATOM      2  O   UNL     1       7.502   6.736  16.192  0.00  0.00    +0.000 OA
ATOM      3  C   UNL     1       6.813   5.593  15.897  0.00  0.00    +0.000 A 
ATOM      4  C   UNL     1       7.062   5.033  14.646  0.00  0.00    +0.000 A 
ATOM      5  C   UNL     1       6.415   3.857  14.274  0.00  0.00    +0.000 A 
ATOM      6  C   UNL     1       5.499   3.263  15.142  0.00  0.00    +0.000 A 
ATOM      7  C   UNL     1       5.213   3.855  16.383  0.00  0.00    +0.000 A 
ATOM      8  C   UNL     1       5.872   5.028  16.763  0.00  0.00    +0.000 A 
ATOM      9  N   UNL     1       5.692   5.582  18.067  0.00  0.00    +0.000 N 
ATOM     10  C   UNL     1       6.869   6.122  18.597  0.00  0.00    +0.000 C 
ATOM     11  O   UNL     1       7.160   6.032  19.796  0.00  0.00    +0.000 OA
ENDROOT
BRANCH   1  12
ATOM     12  C   UNL     1       7.677   8.450  17.833  0.00  0.00    +0.000 C 
BRANCH  12  13
ATOM     13  C   UNL     1       8.861   8.933  18.662  0.00  0.00    +0.000 C 
BRANCH  13  14
ATOM     14  O   UNL     1       8.766  10.257  19.153  0.00  0.00    +0.000 OA
BRANCH  14  20
ATOM     15  C   UNL     1       9.203  12.344  17.770  0.00  0.00    +0.000 A 
ATOM     16  C   UNL     1      10.242  13.193  17.311  0.00  0.00    +0.000 A 
ATOM     17  C   UNL     1      11.584  12.909  17.526  0.00  0.00    +0.000 A 
ATOM     18  C   UNL     1      11.932  11.759  18.218  0.00  0.00    +0.000 A 
ATOM     19  C   UNL     1      10.927  10.923  18.720  0.00  0.00    +0.000 A 
ATOM     20  C   UNL     1       9.558  11.206  18.532  0.00  0.00    +0.000 A 
BRANCH  15  21
ATOM     21  C   UNL     1       7.820  12.796  17.330  0.00  0.00    +0.000 C 
BRANCH  21  23
ATOM     22  O   UNL     1       6.626  14.917  17.393  0.00  0.00    +0.000 OA
ATOM     23  C   UNL     1       7.331  14.080  17.948  0.00  0.00    +0.000 C 
BRANCH  23  24
ATOM     24  O   UNL     1       7.684  14.216  19.263  0.00  0.00    +0.000 OA
ATOM     25  H   UNL     1       8.609  13.938  19.473  0.00  0.00    +0.000 HD
ENDBRANCH  23  24
ENDBRANCH  21  23
ENDBRANCH  15  21
ENDBRANCH  14  20
ENDBRANCH  13  14
ENDBRANCH  12  13
ENDBRANCH   1  12
BRANCH   9  26
ATOM     26  C   UNL     1       4.571   6.530  18.179  0.00  0.00    +0.000 C 
BRANCH  26  27
ATOM     27  C   UNL     1       3.320   6.023  18.888  0.00  0.00    +0.000 C 
BRANCH  27  28
ATOM     28  C   UNL     1       2.316   5.291  17.989  0.00  0.00    +0.000 C 
BRANCH  28  29
ATOM     29  C   UNL     1       1.419   4.264  18.693  0.00  0.00    +0.000 C 
ATOM     30  C   UNL     1       1.676   2.824  18.253  0.00  0.00    +0.000 C 
ATOM     31  C   UNL     1       1.125   1.969  19.387  0.00  0.00    +0.000 C 
ATOM     32  C   UNL     1       1.195   2.832  20.644  0.00  0.00    +0.000 C 
ATOM     33  C   UNL     1       1.691   4.204  20.198  0.00  0.00    +0.000 C 
ENDBRANCH  28  29
ENDBRANCH  27  28
ENDBRANCH  26  27
ENDBRANCH   9  26
TORSDOF 11
ENDMDL
MODEL 4
REMARK VINA RESULT:      -8.1      1.780      2.626
REMARK  Name = 
REMARK  11 active torsions:
REMARK  status: ('A' for Active; 'I' for Inactive)
REMARK    1  A    between atoms: C_2  and  O_3
REMARK    2  A    between atoms: C_2  and  C_4
REMARK    3  A    between atoms: C_4  and  C_5
REMARK    4  A    between atoms: C_10  and  O_11
REMARK    5  A    between atoms: O_11  and  C_12
REMARK    6  A    between atoms: C_12  and  C_13
REMARK    7  A    between atoms: C_13  and  C_14
REMARK    8  A    between atoms: N_22  and  C_23
REMARK    9  A    between atoms: C_23  and  C_24
REMARK   10  A    between atoms: C_24  and  C_25
REMARK   11  A    between atoms: C_25  and  C_26
REMARK                            x       y       z     vdW  Elec       q    Type
REMARK                         _______ _______ _______ _____ _____    ______ ____
ROOT
ATOM      1  C   UNL     1       7.751   6.360  18.087  0.00  0.00    +0.000 C 
ATOM      2  O   UNL     1       7.811   6.525  16.673  0.00  0.00    +0.000 OA
ATOM      3  C   UNL     1       6.984   5.684  15.984  0.00  0.00    +0.000 A 
ATOM      4  C   UNL     1       7.393   5.340  14.696  0.00  0.00    +0.000 A 
ATOM      5  C   UNL     1       6.617   4.473  13.933  0.00  0.00    +0.000 A 
ATOM      6  C   UNL     1       5.418   3.977  14.447  0.00  0.00    +0.000 A 
ATOM      7  C   UNL     1       4.983   4.362  15.725  0.00  0.00    +0.000 A 
ATOM      8  C   UNL     1       5.769   5.222  16.498  0.00  0.00    +0.000 A 
ATOM      9  N   UNL     1       5.410   5.532  17.845  0.00  0.00    +0.000 N 
ATOM     10  C   UNL     1       6.519   5.628  18.694  0.00  0.00    +0.000 C 
ATOM     11  O   UNL     1       6.495   5.228  19.865  0.00  0.00    +0.000 OA
ENDROOT
BRANCH   1  12
ATOM     12  C   UNL     1       7.958   7.769  18.696  0.00  0.00    +0.000 C 
BRANCH  12  13
ATOM     13  C   UNL     1       8.282   8.802  17.624  0.00  0.00    +0.000 C 
BRANCH  13  14
ATOM     14  O   UNL     1       8.168  10.156  18.022  0.00  0.00    +0.000 OA
BRANCH  14  20
ATOM     15  C   UNL     1       9.707  10.955  19.880  0.00  0.00    +0.000 A 
ATOM     16  C   UNL     1      10.982  11.529  20.117  0.00  0.00    +0.000 A 
ATOM     17  C   UNL     1      11.811  11.950  19.085  0.00  0.00    +0.000 A 
ATOM     18  C   UNL     1      11.389  11.803  17.773  0.00  0.00    +0.000 A 
ATOM     19  C   UNL     1      10.153  11.202  17.507  0.00  0.00    +0.000 A 
ATOM     20  C   UNL     1       9.307  10.747  18.539  0.00  0.00    +0.000 A 
BRANCH  15  21
ATOM     21  C   UNL     1       8.932  10.667  21.156  0.00  0.00    +0.000 C 
BRANCH  21  23
ATOM     22  O   UNL     1       8.239  12.957  21.611  0.00  0.00    +0.000 OA
ATOM     23  C   UNL     1       8.632  11.867  22.015  0.00  0.00    +0.000 C 
BRANCH  23  24
ATOM     24  O   UNL     1       8.764  11.619  23.355  0.00  0.00    +0.000 OA
ATOM     25  H   UNL     1       8.921  10.671  23.586  0.00  0.00    +0.000 HD
ENDBRANCH  23  24
ENDBRANCH  21  23
ENDBRANCH  15  21
ENDBRANCH  14  20
ENDBRANCH  13  14
ENDBRANCH  12  13
ENDBRANCH   1  12
BRANCH   9  26
ATOM     26  C   UNL     1       4.522   6.697  17.990  0.00  0.00    +0.000 C 
BRANCH  26  27
ATOM     27  C   UNL     1       3.031   6.402  18.123  0.00  0.00    +0.000 C 
BRANCH  27  28
ATOM     28  C   UNL     1       2.565   6.038  19.537  0.00  0.00    +0.000 C 
BRANCH  28  29
ATOM     29  C   UNL     1       2.417   4.537  19.823  0.00  0.00    +0.000 C 
ATOM     30  C   UNL     1       2.970   4.117  21.183  0.00  0.00    +0.000 C 
ATOM     31  C   UNL     1       2.274   2.798  21.492  0.00  0.00    +0.000 C 
ATOM     32  C   UNL     1       0.951   2.826  20.732  0.00  0.00    +0.000 C 
ATOM     33  C   UNL     1       0.948   4.116  19.917  0.00  0.00    +0.000 C 
ENDBRANCH  28  29
ENDBRANCH  27  28
ENDBRANCH  26  27
ENDBRANCH   9  26
TORSDOF 11
ENDMDL
MODEL 5
REMARK VINA RESULT:      -8.0      5.002      7.866
REMARK  Name = 
REMARK  11 active torsions:
REMARK  status: ('A' for Active; 'I' for Inactive)
REMARK    1  A    between atoms: C_2  and  O_3
REMARK    2  A    between atoms: C_2  and  C_4
REMARK    3  A    between atoms: C_4  and  C_5
REMARK    4  A    between atoms: C_10  and  O_11
REMARK    5  A    between atoms: O_11  and  C_12
REMARK    6  A    between atoms: C_12  and  C_13
REMARK    7  A    between atoms: C_13  and  C_14
REMARK    8  A    between atoms: N_22  and  C_23
REMARK    9  A    between atoms: C_23  and  C_24
REMARK   10  A    between atoms: C_24  and  C_25
REMARK   11  A    between atoms: C_25  and  C_26
REMARK                            x       y       z     vdW  Elec       q    Type
REMARK                         _______ _______ _______ _____ _____    ______ ____
ROOT
ATOM      1  C   UNL     1       1.621   6.220  19.875  0.00  0.00    +0.000 C 
ATOM      2  O   UNL     1       1.502   4.907  20.414  0.00  0.00    +0.000 OA
ATOM      3  C   UNL     1       2.005   3.930  19.603  0.00  0.00    +0.000 A 
ATOM      4  C   UNL     1       1.420   2.671  19.723  0.00  0.00    +0.000 A 
ATOM      5  C   UNL     1       1.861   1.623  18.919  0.00  0.00    +0.000 A 
ATOM      6  C   UNL     1       2.908   1.830  18.020  0.00  0.00    +0.000 A 
ATOM      7  C   UNL     1       3.530   3.086  17.935  0.00  0.00    +0.000 A 
ATOM      8  C   UNL     1       3.078   4.142  18.731  0.00  0.00    +0.000 A 
ATOM      9  N   UNL     1       3.610   5.458  18.577  0.00  0.00    +0.000 N 
ATOM     10  C   UNL     1       2.641   6.458  18.724  0.00  0.00    +0.000 C 
ATOM     11  O   UNL     1       2.641   7.488  18.039  0.00  0.00    +0.000 OA
ENDROOT
BRANCH   1  12
ATOM     12  C   UNL     1       1.865   7.162  21.081  0.00  0.00    +0.000 C 
BRANCH  12  13
ATOM     13  C   UNL     1       0.772   8.217  21.200  0.00  0.00    +0.000 C 
BRANCH  13  14
ATOM     14  O   UNL     1       1.131   9.396  21.896  0.00  0.00    +0.000 OA
BRANCH  14  20
ATOM     15  C   UNL     1       0.210  11.440  20.698  0.00  0.00    +0.000 A 
ATOM     16  C   UNL     1      -0.811  12.422  20.768  0.00  0.00    +0.000 A 
ATOM     17  C   UNL     1      -1.679  12.515  21.849  0.00  0.00    +0.000 A 
ATOM     18  C   UNL     1      -1.554  11.619  22.899  0.00  0.00    +0.000 A 
ATOM     19  C   UNL     1      -0.582  10.613  22.839  0.00  0.00    +0.000 A 
ATOM     20  C   UNL     1       0.293  10.487  21.739  0.00  0.00    +0.000 A 
BRANCH  15  21
ATOM     21  C   UNL     1       1.105  11.591  19.478  0.00  0.00    +0.000 C 
BRANCH  21  23
ATOM     22  O   UNL     1      -0.085   9.883  18.216  0.00  0.00    +0.000 OA
ATOM     23  C   UNL     1       0.932  10.541  18.413  0.00  0.00    +0.000 C 
BRANCH  23  24
ATOM     24  O   UNL     1       2.020  10.418  17.592  0.00  0.00    +0.000 OA
ATOM     25  H   UNL     1       2.739   9.839  17.944  0.00  0.00    +0.000 HD
ENDBRANCH  23  24
ENDBRANCH  21  23
ENDBRANCH  15  21
ENDBRANCH  14  20
ENDBRANCH  13  14
ENDBRANCH  12  13
ENDBRANCH   1  12
BRANCH   9  26
ATOM     26  C   UNL     1       4.798   5.739  19.401  0.00  0.00    +0.000 C 
BRANCH  26  27
ATOM     27  C   UNL     1       6.151   5.428  18.770  0.00  0.00    +0.000 C 
BRANCH  27  28
ATOM     28  C   UNL     1       6.595   6.401  17.672  0.00  0.00    +0.000 C 
BRANCH  28  29
ATOM     29  C   UNL     1       6.693   5.808  16.259  0.00  0.00    +0.000 C 
ATOM     30  C   UNL     1       6.990   4.310  16.244  0.00  0.00    +0.000 C 
ATOM     31  C   UNL     1       6.525   3.837  14.873  0.00  0.00    +0.000 C 
ATOM     32  C   UNL     1       5.437   4.813  14.433  0.00  0.00    +0.000 C 
ATOM     33  C   UNL     1       5.360   5.890  15.511  0.00  0.00    +0.000 C 
ENDBRANCH  28  29
ENDBRANCH  27  28
ENDBRANCH  26  27
ENDBRANCH   9  26
TORSDOF 11
ENDMDL
MODEL 6
REMARK VINA RESULT:      -8.0      6.127      9.741
REMARK  Name = 
REMARK  11 active torsions:
REMARK  status: ('A' for Active; 'I' for Inactive)
REMARK    1  A    between atoms: C_2  and  O_3
REMARK    2  A    between atoms: C_2  and  C_4
REMARK    3  A    between atoms: C_4  and  C_5
REMARK    4  A    between atoms: C_10  and  O_11
REMARK    5  A    between atoms: O_11  and  C_12
REMARK    6  A    between atoms: C_12  and  C_13
REMARK    7  A    between atoms: C_13  and  C_14
REMARK    8  A    between atoms: N_22  and  C_23
REMARK    9  A    between atoms: C_23  and  C_24
REMARK   10  A    between atoms: C_24  and  C_25
REMARK   11  A    between atoms: C_25  and  C_26
REMARK                            x       y       z     vdW  Elec       q    Type
REMARK                         _______ _______ _______ _____ _____    ______ ____
ROOT
ATOM      1  C   UNL     1       1.657   9.608  19.110  0.00  0.00    +0.000 C 
ATOM      2  O   UNL     1       1.140   8.810  20.172  0.00  0.00    +0.000 OA
ATOM      3  C   UNL     1       0.412   9.515  21.088  0.00  0.00    +0.000 A 
ATOM      4  C   UNL     1       0.402   9.007  22.386  0.00  0.00    +0.000 A 
ATOM      5  C   UNL     1      -0.301   9.675  23.384  0.00  0.00    +0.000 A 
ATOM      6  C   UNL     1      -1.019  10.832  23.074  0.00  0.00    +0.000 A 
ATOM      7  C   UNL     1      -1.048  11.315  21.756  0.00  0.00    +0.000 A 
ATOM      8  C   UNL     1      -0.330  10.652  20.756  0.00  0.00    +0.000 A 
ATOM      9  N   UNL     1      -0.244  11.190  19.436  0.00  0.00    +0.000 N 
ATOM     10  C   UNL     1       1.015  11.002  18.853  0.00  0.00    +0.000 C 
ATOM     11  O   UNL     1       1.544  11.852  18.127  0.00  0.00    +0.000 OA
ENDROOT
BRANCH   1  12
ATOM     12  C   UNL     1       1.639   8.710  17.847  0.00  0.00    +0.000 C 
BRANCH  12  13
ATOM     13  C   UNL     1       2.965   7.984  17.656  0.00  0.00    +0.000 C 
BRANCH  13  14
ATOM     14  O   UNL     1       3.274   7.005  18.631  0.00  0.00    +0.000 OA
BRANCH  14  20
ATOM     15  C   UNL     1       4.747   5.074  17.880  0.00  0.00    +0.000 A 
ATOM     16  C   UNL     1       4.703   3.714  17.480  0.00  0.00    +0.000 A 
ATOM     17  C   UNL     1       3.507   3.031  17.298  0.00  0.00    +0.000 A 
ATOM     18  C   UNL     1       2.309   3.691  17.516  0.00  0.00    +0.000 A 
ATOM     19  C   UNL     1       2.320   5.022  17.951  0.00  0.00    +0.000 A 
ATOM     20  C   UNL     1       3.524   5.726  18.165  0.00  0.00    +0.000 A 
BRANCH  15  21
ATOM     21  C   UNL     1       6.156   5.644  17.914  0.00  0.00    +0.000 C 
BRANCH  21  23
ATOM     22  O   UNL     1       7.386   5.006  15.913  0.00  0.00    +0.000 OA
ATOM     23  C   UNL     1       7.181   4.884  17.116  0.00  0.00    +0.000 C 
BRANCH  23  24
ATOM     24  O   UNL     1       7.960   4.059  17.882  0.00  0.00    +0.000 OA
ATOM     25  H   UNL     1       8.919   4.055  17.640  0.00  0.00    +0.000 HD
ENDBRANCH  23  24
ENDBRANCH  21  23
ENDBRANCH  15  21
ENDBRANCH  14  20
ENDBRANCH  13  14
ENDBRANCH  12  13
ENDBRANCH   1  12
BRANCH   9  26
ATOM     26  C   UNL     1      -1.322  10.763  18.529  0.00  0.00    +0.000 C 
BRANCH  26  27
ATOM     27  C   UNL     1      -2.130  11.873  17.864  0.00  0.00    +0.000 C 
BRANCH  27  28
ATOM     28  C   UNL     1      -3.433  11.417  17.196  0.00  0.00    +0.000 C 
BRANCH  28  29
ATOM     29  C   UNL     1      -4.725  11.791  17.935  0.00  0.00    +0.000 C 
ATOM     30  C   UNL     1      -5.760  12.479  17.047  0.00  0.00    +0.000 C 
ATOM     31  C   UNL     1      -7.085  12.276  17.770  0.00  0.00    +0.000 C 
ATOM     32  C   UNL     1      -6.926  11.007  18.603  0.00  0.00    +0.000 C 
ATOM     33  C   UNL     1      -5.480  10.554  18.427  0.00  0.00    +0.000 C 
ENDBRANCH  28  29
ENDBRANCH  27  28
ENDBRANCH  26  27
ENDBRANCH   9  26
TORSDOF 11
ENDMDL
MODEL 7
REMARK VINA RESULT:      -8.0      4.959      7.882
REMARK  Name = 
REMARK  11 active torsions:
REMARK  status: ('A' for Active; 'I' for Inactive)
REMARK    1  A    between atoms: C_2  and  O_3
REMARK    2  A    between atoms: C_2  and  C_4
REMARK    3  A    between atoms: C_4  and  C_5
REMARK    4  A    between atoms: C_10  and  O_11
REMARK    5  A    between atoms: O_11  and  C_12
REMARK    6  A    between atoms: C_12  and  C_13
REMARK    7  A    between atoms: C_13  and  C_14
REMARK    8  A    between atoms: N_22  and  C_23
REMARK    9  A    between atoms: C_23  and  C_24
REMARK   10  A    between atoms: C_24  and  C_25
REMARK   11  A    between atoms: C_25  and  C_26
REMARK                            x       y       z     vdW  Elec       q    Type
REMARK                         _______ _______ _______ _____ _____    ______ ____
ROOT
ATOM      1  C   UNL     1       2.974   7.833  18.418  0.00  0.00    +0.000 C 
ATOM      2  O   UNL     1       3.998   7.797  17.428  0.00  0.00    +0.000 OA
ATOM      3  C   UNL     1       4.840   6.727  17.544  0.00  0.00    +0.000 A 
ATOM      4  C   UNL     1       6.139   6.916  17.075  0.00  0.00    +0.000 A 
ATOM      5  C   UNL     1       7.066   5.882  17.172  0.00  0.00    +0.000 A 
ATOM      6  C   UNL     1       6.682   4.652  17.709  0.00  0.00    +0.000 A 
ATOM      7  C   UNL     1       5.361   4.448  18.137  0.00  0.00    +0.000 A 
ATOM      8  C   UNL     1       4.433   5.490  18.052  0.00  0.00    +0.000 A 
ATOM      9  N   UNL     1       3.118   5.348  18.592  0.00  0.00    +0.000 N 
ATOM     10  C   UNL     1       2.646   6.522  19.191  0.00  0.00    +0.000 C 
ATOM     11  O   UNL     1       1.957   6.511  20.218  0.00  0.00    +0.000 OA
ENDROOT
BRANCH   1  12
ATOM     12  C   UNL     1       1.725   8.436  17.726  0.00  0.00    +0.000 C 
BRANCH  12  13
ATOM     13  C   UNL     1       1.531   9.900  18.098  0.00  0.00    +0.000 C 
BRANCH  13  14
ATOM     14  O   UNL     1       0.784  10.140  19.277  0.00  0.00    +0.000 OA
BRANCH  14  20
ATOM     15  C   UNL     1      -1.193  11.607  19.908  0.00  0.00    +0.000 A 
ATOM     16  C   UNL     1      -2.460  12.048  19.447  0.00  0.00    +0.000 A 
ATOM     17  C   UNL     1      -3.041  11.557  18.286  0.00  0.00    +0.000 A 
ATOM     18  C   UNL     1      -2.365  10.604  17.540  0.00  0.00    +0.000 A 
ATOM     19  C   UNL     1      -1.095  10.178  17.947  0.00  0.00    +0.000 A 
ATOM     20  C   UNL     1      -0.478  10.683  19.111  0.00  0.00    +0.000 A 
BRANCH  15  21
ATOM     21  C   UNL     1      -0.803  12.200  21.253  0.00  0.00    +0.000 C 
BRANCH  21  23
ATOM     22  O   UNL     1      -1.515  10.911  23.192  0.00  0.00    +0.000 OA
ATOM     23  C   UNL     1      -0.648  11.210  22.376  0.00  0.00    +0.000 C 
BRANCH  23  24
ATOM     24  O   UNL     1       0.567  10.581  22.379  0.00  0.00    +0.000 OA
ATOM     25  H   UNL     1       1.330  11.154  22.118  0.00  0.00    +0.000 HD
ENDBRANCH  23  24
ENDBRANCH  21  23
ENDBRANCH  15  21
ENDBRANCH  14  20
ENDBRANCH  13  14
ENDBRANCH  12  13
ENDBRANCH   1  12
BRANCH   9  26
ATOM     26  C   UNL     1       2.129   4.791  17.654  0.00  0.00    +0.000 C 
BRANCH  26  27
ATOM     27  C   UNL     1       2.152   3.278  17.462  0.00  0.00    +0.000 C 
BRANCH  27  28
ATOM     28  C   UNL     1       1.125   2.502  18.295  0.00  0.00    +0.000 C 
BRANCH  28  29
ATOM     29  C   UNL     1       1.543   2.184  19.738  0.00  0.00    +0.000 C 
ATOM     30  C   UNL     1       3.055   2.208  19.955  0.00  0.00    +0.000 C 
ATOM     31  C   UNL     1       3.226   2.410  21.455  0.00  0.00    +0.000 C 
ATOM     32  C   UNL     1       1.969   3.133  21.934  0.00  0.00    +0.000 C 
ATOM     33  C   UNL     1       1.049   3.247  20.722  0.00  0.00    +0.000 C 
ENDBRANCH  28  29
ENDBRANCH  27  28
ENDBRANCH  26  27
ENDBRANCH   9  26
TORSDOF 11
ENDMDL
MODEL 8
REMARK VINA RESULT:      -7.9      6.121      9.626
REMARK  Name = 
REMARK  11 active torsions:
REMARK  status: ('A' for Active; 'I' for Inactive)
REMARK    1  A    between atoms: C_2  and  O_3
REMARK    2  A    between atoms: C_2  and  C_4
REMARK    3  A    between atoms: C_4  and  C_5
REMARK    4  A    between atoms: C_10  and  O_11
REMARK    5  A    between atoms: O_11  and  C_12
REMARK    6  A    between atoms: C_12  and  C_13
REMARK    7  A    between atoms: C_13  and  C_14
REMARK    8  A    between atoms: N_22  and  C_23
REMARK    9  A    between atoms: C_23  and  C_24
REMARK   10  A    between atoms: C_24  and  C_25
REMARK   11  A    between atoms: C_25  and  C_26
REMARK                            x       y       z     vdW  Elec       q    Type
REMARK                         _______ _______ _______ _____ _____    ______ ____
ROOT
ATOM      1  C   UNL     1       1.762  10.075  19.104  0.00  0.00    +0.000 C 
ATOM      2  O   UNL     1       1.438   9.147  20.136  0.00  0.00    +0.000 OA
ATOM      3  C   UNL     1       0.602   9.653  21.091  0.00  0.00    +0.000 A 
ATOM      4  C   UNL     1       0.722   9.101  22.365  0.00  0.00    +0.000 A 
ATOM      5  C   UNL     1      -0.079   9.573  23.401  0.00  0.00    +0.000 A 
ATOM      6  C   UNL     1      -1.020  10.573  23.152  0.00  0.00    +0.000 A 
ATOM      7  C   UNL     1      -1.173  11.094  21.857  0.00  0.00    +0.000 A 
ATOM      8  C   UNL     1      -0.359  10.631  20.820  0.00  0.00    +0.000 A 
ATOM      9  N   UNL     1      -0.410  11.229  19.523  0.00  0.00    +0.000 N 
ATOM     10  C   UNL     1       0.848  11.321  18.917  0.00  0.00    +0.000 C 
ATOM     11  O   UNL     1       1.181  12.289  18.223  0.00  0.00    +0.000 OA
ENDROOT
BRANCH   1  12
ATOM     12  C   UNL     1       1.897   9.244  17.803  0.00  0.00    +0.000 C 
BRANCH  12  13
ATOM     13  C   UNL     1       2.227   7.786  18.099  0.00  0.00    +0.000 C 
BRANCH  13  14
ATOM     14  O   UNL     1       3.472   7.327  17.605  0.00  0.00    +0.000 OA
BRANCH  14  20
ATOM     15  C   UNL     1       4.574   5.209  16.734  0.00  0.00    +0.000 A 
ATOM     16  C   UNL     1       4.505   3.794  16.802  0.00  0.00    +0.000 A 
ATOM     17  C   UNL     1       3.490   3.131  17.479  0.00  0.00    +0.000 A 
ATOM     18  C   UNL     1       2.507   3.869  18.119  0.00  0.00    +0.000 A 
ATOM     19  C   UNL     1       2.571   5.268  18.104  0.00  0.00    +0.000 A 
ATOM     20  C   UNL     1       3.607   5.960  17.442  0.00  0.00    +0.000 A 
BRANCH  15  21
ATOM     21  C   UNL     1       5.707   5.713  15.854  0.00  0.00    +0.000 C 
BRANCH  21  23
ATOM     22  O   UNL     1       7.598   6.917  16.804  0.00  0.00    +0.000 OA
ATOM     23  C   UNL     1       7.042   5.856  16.535  0.00  0.00    +0.000 C 
BRANCH  23  24
ATOM     24  O   UNL     1       7.584   4.660  16.919  0.00  0.00    +0.000 OA
ATOM     25  H   UNL     1       7.555   4.487  17.892  0.00  0.00    +0.000 HD
ENDBRANCH  23  24
ENDBRANCH  21  23
ENDBRANCH  15  21
ENDBRANCH  14  20
ENDBRANCH  13  14
ENDBRANCH  12  13
ENDBRANCH   1  12
BRANCH   9  26
ATOM     26  C   UNL     1      -1.400  10.632  18.612  0.00  0.00    +0.000 C 
BRANCH  26  27
ATOM     27  C   UNL     1      -2.494  11.561  18.095  0.00  0.00    +0.000 C 
BRANCH  27  28
ATOM     28  C   UNL     1      -3.367  12.202  19.180  0.00  0.00    +0.000 C 
BRANCH  28  29
ATOM     29  C   UNL     1      -4.880  12.165  18.924  0.00  0.00    +0.000 C 
ATOM     30  C   UNL     1      -5.335  10.944  18.126  0.00  0.00    +0.000 C 
ATOM     31  C   UNL     1      -6.819  10.809  18.439  0.00  0.00    +0.000 C 
ATOM     32  C   UNL     1      -7.025  11.444  19.811  0.00  0.00    +0.000 C 
ATOM     33  C   UNL     1      -5.676  12.026  20.224  0.00  0.00    +0.000 C 
ENDBRANCH  28  29
ENDBRANCH  27  28
ENDBRANCH  26  27
ENDBRANCH   9  26
TORSDOF 11
ENDMDL
MODEL 9
REMARK VINA RESULT:      -7.8      5.922     10.095
REMARK  Name = 
REMARK  11 active torsions:
REMARK  status: ('A' for Active; 'I' for Inactive)
REMARK    1  A    between atoms: C_2  and  O_3
REMARK    2  A    between atoms: C_2  and  C_4
REMARK    3  A    between atoms: C_4  and  C_5
REMARK    4  A    between atoms: C_10  and  O_11
REMARK    5  A    between atoms: O_11  and  C_12
REMARK    6  A    between atoms: C_12  and  C_13
REMARK    7  A    between atoms: C_13  and  C_14
REMARK    8  A    between atoms: N_22  and  C_23
REMARK    9  A    between atoms: C_23  and  C_24
REMARK   10  A    between atoms: C_24  and  C_25
REMARK   11  A    between atoms: C_25  and  C_26
REMARK                            x       y       z     vdW  Elec       q    Type
REMARK                         _______ _______ _______ _____ _____    ______ ____
ROOT
ATOM      1  C   UNL     1       1.715   8.837  19.376  0.00  0.00    +0.000 C 
ATOM      2  O   UNL     1       0.921   8.414  20.481  0.00  0.00    +0.000 OA
ATOM      3  C   UNL     1       0.182   9.415  21.045  0.00  0.00    +0.000 A 
ATOM      4  C   UNL     1      -0.108   9.275  22.401  0.00  0.00    +0.000 A 
ATOM      5  C   UNL     1      -0.841  10.260  23.057  0.00  0.00    +0.000 A 
ATOM      6  C   UNL     1      -1.309  11.367  22.347  0.00  0.00    +0.000 A 
ATOM      7  C   UNL     1      -1.058  11.483  20.971  0.00  0.00    +0.000 A 
ATOM      8  C   UNL     1      -0.310  10.501  20.315  0.00  0.00    +0.000 A 
ATOM      9  N   UNL     1       0.063  10.656  18.944  0.00  0.00    +0.000 N 
ATOM     10  C   UNL     1       1.350  10.177  18.674  0.00  0.00    +0.000 C 
ATOM     11  O   UNL     1       2.113  10.738  17.878  0.00  0.00    +0.000 OA
ENDROOT
BRANCH   1  12
ATOM     12  C   UNL     1       1.749   7.645  18.387  0.00  0.00    +0.000 C 
BRANCH  12  13
ATOM     13  C   UNL     1       3.117   6.974  18.363  0.00  0.00    +0.000 C 
BRANCH  13  14
ATOM     14  O   UNL     1       3.313   5.947  19.317  0.00  0.00    +0.000 OA
BRANCH  14  20
ATOM     15  C   UNL     1       2.989   3.761  18.062  0.00  0.00    +0.000 A 
ATOM     16  C   UNL     1       2.240   2.556  18.073  0.00  0.00    +0.000 A 
ATOM     17  C   UNL     1       1.206   2.332  18.972  0.00  0.00    +0.000 A 
ATOM     18  C   UNL     1       0.890   3.312  19.901  0.00  0.00    +0.000 A 
ATOM     19  C   UNL     1       1.639   4.495  19.941  0.00  0.00    +0.000 A 
ATOM     20  C   UNL     1       2.708   4.731  19.051  0.00  0.00    +0.000 A 
BRANCH  15  21
ATOM     21  C   UNL     1       3.997   3.830  16.926  0.00  0.00    +0.000 C 
BRANCH  21  23
ATOM     22  O   UNL     1       6.204   4.833  16.697  0.00  0.00    +0.000 OA
ATOM     23  C   UNL     1       5.412   4.144  17.334  0.00  0.00    +0.000 C 
BRANCH  23  24
ATOM     24  O   UNL     1       5.744   3.644  18.563  0.00  0.00    +0.000 OA
ATOM     25  H   UNL     1       5.678   4.294  19.305  0.00  0.00    +0.000 HD
ENDBRANCH  23  24
ENDBRANCH  21  23
ENDBRANCH  15  21
ENDBRANCH  14  20
ENDBRANCH  13  14
ENDBRANCH  12  13
ENDBRANCH   1  12
BRANCH   9  26
ATOM     26  C   UNL     1      -0.917  10.131  17.980  0.00  0.00    +0.000 C 
BRANCH  26  27
ATOM     27  C   UNL     1      -2.388  10.332  18.328  0.00  0.00    +0.000 C 
BRANCH  27  28
ATOM     28  C   UNL     1      -3.039  11.573  17.705  0.00  0.00    +0.000 C 
BRANCH  28  29
ATOM     29  C   UNL     1      -4.468  11.880  18.173  0.00  0.00    +0.000 C 
ATOM     30  C   UNL     1      -5.376  10.651  18.210  0.00  0.00    +0.000 C 
ATOM     31  C   UNL     1      -6.501  11.032  19.163  0.00  0.00    +0.000 C 
ATOM     32  C   UNL     1      -5.922  12.080  20.110  0.00  0.00    +0.000 C 
ATOM     33  C   UNL     1      -4.503  12.362  19.626  0.00  0.00    +0.000 C 
ENDBRANCH  28  29
ENDBRANCH  27  28
ENDBRANCH  26  27
ENDBRANCH   9  26
TORSDOF 11
ENDMDL
