MODEL 1
REMARK VINA RESULT:      -8.0      0.000      0.000
REMARK  Name = 
REMARK  7 active torsions:
REMARK  status: ('A' for Active; 'I' for Inactive)
REMARK    1  A    between atoms: C_2  and  C_3
REMARK    2  A    between atoms: C_3  and  N_4
REMARK    3  A    between atoms: C_6  and  C_7
REMARK    4  A    between atoms: C_11  and  C_12
REMARK    5  A    between atoms: N_15  and  C_16
REMARK    6  A    between atoms: C_16  and  C_17
REMARK    7  A    between atoms: C_17  and  C_18
REMARK                            x       y       z     vdW  Elec       q    Type
REMARK                         _______ _______ _______ _____ _____    ______ ____
ROOT
ATOM      1  O   UNL     1       6.568   7.962  16.875  0.00  0.00    +0.000 OA
ATOM      2  C   UNL     1       7.420   7.403  17.563  0.00  0.00    +0.000 C 
ATOM      3  N   UNL     1       8.384   8.101  18.250  0.00  0.00    +0.000 N 
ATOM      4  H   UNL     1       9.014   7.561  18.848  0.00  0.00    +0.000 HD
ENDROOT
BRANCH   2   5
ATOM      5  C   UNL     1       7.527   5.887  17.601  0.00  0.00    +0.000 C 
BRANCH   5   6
ATOM      6  N   UNL     1       6.695   5.199  16.625  0.00  0.00    +0.000 N 
ATOM      7  N   UNL     1       7.199   4.951  15.386  0.00  0.00    +0.000 NA
ATOM      8  C   UNL     1       6.233   4.251  14.765  0.00  0.00    +0.000 A 
ATOM      9  C   UNL     1       5.092   4.116  15.592  0.00  0.00    +0.000 A 
ATOM     10  C   UNL     1       5.397   4.781  16.758  0.00  0.00    +0.000 A 
BRANCH   8  11
ATOM     11  C   UNL     1       6.407   3.726  13.374  0.00  0.00    +0.000 C 
ATOM     12  F   UNL     1       5.213   3.659  12.721  0.00  0.00    +0.000 F 
ATOM     13  F   UNL     1       7.198   4.548  12.626  0.00  0.00    +0.000 F 
ENDBRANCH   8  11
BRANCH  10  14
ATOM     14  C   UNL     1       4.470   5.006  17.945  0.00  0.00    +0.000 C 
ATOM     15  C   UNL     1       3.577   6.231  17.940  0.00  0.00    +0.000 C 
ATOM     16  C   UNL     1       2.975   4.881  17.741  0.00  0.00    +0.000 C 
ENDBRANCH  10  14
ENDBRANCH   5   6
ENDBRANCH   2   5
BRANCH   3  17
ATOM     17  C   UNL     1       8.437   9.545  18.284  0.00  0.00    +0.000 C 
BRANCH  17  18
ATOM     18  C   UNL     1       9.244  10.049  19.483  0.00  0.00    +0.000 C 
BRANCH  18  19
ATOM     19  C   UNL     1      10.200  11.165  19.131  0.00  0.00    +0.000 C 
ATOM     20  C   UNL     1      10.482  11.478  17.853  0.00  0.00    +0.000 C 
ATOM     21  C   UNL     1      11.440  12.563  17.451  0.00  0.00    +0.000 C 
ATOM     22  C   UNL     1      12.315  13.045  18.608  0.00  0.00    +0.000 C 
ATOM     23  C   UNL     1      11.489  13.235  19.874  0.00  0.00    +0.000 C 
ATOM     24  C   UNL     1      10.805  11.929  20.286  0.00  0.00    +0.000 C 
ENDBRANCH  18  19
ENDBRANCH  17  18
ENDBRANCH   3  17
TORSDOF 7
ENDMDL
MODEL 2
REMARK VINA RESULT:      -7.6      2.535      3.172
REMARK  Name = 
REMARK  7 active torsions:
REMARK  status: ('A' for Active; 'I' for Inactive)
REMARK    1  A    between atoms: C_2  and  C_3
REMARK    2  A    between atoms: C_3  and  N_4
REMARK    3  A    between atoms: C_6  and  C_7
REMARK    4  A    between atoms: C_11  and  C_12
REMARK    5  A    between atoms: N_15  and  C_16
REMARK    6  A    between atoms: C_16  and  C_17
REMARK    7  A    between atoms: C_17  and  C_18
REMARK                            x       y       z     vdW  Elec       q    Type
REMARK                         _______ _______ _______ _____ _____    ______ ____
ROOT
ATOM      1  O   UNL     1       7.232   6.151  18.646  0.00  0.00    +0.000 OA
ATOM      2  C   UNL     1       6.952   6.751  17.609  0.00  0.00    +0.000 C 
ATOM      3  N   UNL     1       7.446   8.002  17.328  0.00  0.00    +0.000 N 
ATOM      4  H   UNL     1       7.213   8.401  16.415  0.00  0.00    +0.000 HD
ENDROOT
BRANCH   2   5
ATOM      5  C   UNL     1       5.942   6.186  16.624  0.00  0.00    +0.000 C 
BRANCH   5   6
ATOM      6  N   UNL     1       4.850   5.444  17.238  0.00  0.00    +0.000 N 
ATOM      7  N   UNL     1       4.812   4.091  17.100  0.00  0.00    +0.000 NA
ATOM      8  C   UNL     1       3.749   3.709  17.831  0.00  0.00    +0.000 A 
ATOM      9  C   UNL     1       3.078   4.831  18.374  0.00  0.00    +0.000 A 
ATOM     10  C   UNL     1       3.775   5.932  17.932  0.00  0.00    +0.000 A 
BRANCH   8  11
ATOM     11  C   UNL     1       3.377   2.268  17.992  0.00  0.00    +0.000 C 
ATOM     12  F   UNL     1       2.993   2.000  19.271  0.00  0.00    +0.000 F 
ATOM     13  F   UNL     1       2.314   1.938  17.204  0.00  0.00    +0.000 F 
ENDBRANCH   8  11
BRANCH  10  14
ATOM     14  C   UNL     1       3.412   7.392  18.168  0.00  0.00    +0.000 C 
ATOM     15  C   UNL     1       2.097   7.906  17.614  0.00  0.00    +0.000 C 
ATOM     16  C   UNL     1       2.253   7.721  19.085  0.00  0.00    +0.000 C 
ENDBRANCH  10  14
ENDBRANCH   5   6
ENDBRANCH   2   5
BRANCH   3  17
ATOM     17  C   UNL     1       8.389   8.688  18.183  0.00  0.00    +0.000 C 
BRANCH  17  18
ATOM     18  C   UNL     1       8.431  10.189  17.882  0.00  0.00    +0.000 C 
BRANCH  18  19
ATOM     19  C   UNL     1       9.597  10.894  18.534  0.00  0.00    +0.000 C 
ATOM     20  C   UNL     1      10.544  11.516  17.808  0.00  0.00    +0.000 C 
ATOM     21  C   UNL     1      11.733  12.212  18.408  0.00  0.00    +0.000 C 
ATOM     22  C   UNL     1      11.949  11.862  19.880  0.00  0.00    +0.000 C 
ATOM     23  C   UNL     1      10.631  11.882  20.644  0.00  0.00    +0.000 C 
ATOM     24  C   UNL     1       9.633  10.888  20.045  0.00  0.00    +0.000 C 
ENDBRANCH  18  19
ENDBRANCH  17  18
ENDBRANCH   3  17
TORSDOF 7
ENDMDL
MODEL 3
REMARK VINA RESULT:      -7.4      1.477      2.040
REMARK  Name = 
REMARK  7 active torsions:
REMARK  status: ('A' for Active; 'I' for Inactive)
REMARK    1  A    between atoms: C_2  and  C_3
REMARK    2  A    between atoms: C_3  and  N_4
REMARK    3  A    between atoms: C_6  and  C_7
REMARK    4  A    between atoms: C_11  and  C_12
REMARK    5  A    between atoms: N_15  and  C_16
REMARK    6  A    between atoms: C_16  and  C_17
REMARK    7  A    between atoms: C_17  and  C_18
REMARK                            x       y       z     vdW  Elec       q    Type
REMARK                         _______ _______ _______ _____ _____    ______ ____
ROOT
ATOM      1  O   UNL     1       7.306   5.561  19.888  0.00  0.00    +0.000 OA
ATOM      2  C   UNL     1       7.738   5.606  18.736  0.00  0.00    +0.000 C 
ATOM      3  N   UNL     1       8.092   6.787  18.130  0.00  0.00    +0.000 N 
ATOM      4  H   UNL     1       8.502   6.727  17.195  0.00  0.00    +0.000 HD
ENDROOT
BRANCH   2   5
ATOM      5  C   UNL     1       7.797   4.358  17.871  0.00  0.00    +0.000 C 
BRANCH   5   6
ATOM      6  N   UNL     1       7.012   4.435  16.647  0.00  0.00    +0.000 N 
ATOM      7  N   UNL     1       7.629   4.792  15.489  0.00  0.00    +0.000 NA
ATOM      8  C   UNL     1       6.668   4.695  14.553  0.00  0.00    +0.000 A 
ATOM      9  C   UNL     1       5.427   4.342  15.135  0.00  0.00    +0.000 A 
ATOM     10  C   UNL     1       5.667   4.235  16.486  0.00  0.00    +0.000 A 
BRANCH   8  11
ATOM     11  C   UNL     1       6.945   4.956  13.105  0.00  0.00    +0.000 C 
ATOM     12  F   UNL     1       8.188   5.486  12.930  0.00  0.00    +0.000 F 
ATOM     13  F   UNL     1       6.923   3.802  12.378  0.00  0.00    +0.000 F 
ENDBRANCH   8  11
BRANCH  10  14
ATOM     14  C   UNL     1       4.636   3.957  17.572  0.00  0.00    +0.000 C 
ATOM     15  C   UNL     1       4.001   5.137  18.282  0.00  0.00    +0.000 C 
ATOM     16  C   UNL     1       3.190   4.333  17.324  0.00  0.00    +0.000 C 
ENDBRANCH  10  14
ENDBRANCH   5   6
ENDBRANCH   2   5
BRANCH   3  17
ATOM     17  C   UNL     1       8.059   8.063  18.811  0.00  0.00    +0.000 C 
BRANCH  17  18
ATOM     18  C   UNL     1       8.306   9.223  17.841  0.00  0.00    +0.000 C 
BRANCH  18  19
ATOM     19  C   UNL     1       8.916  10.434  18.506  0.00  0.00    +0.000 C 
ATOM     20  C   UNL     1       9.520  10.354  19.706  0.00  0.00    +0.000 C 
ATOM     21  C   UNL     1      10.122  11.532  20.417  0.00  0.00    +0.000 C 
ATOM     22  C   UNL     1       9.692  12.873  19.822  0.00  0.00    +0.000 C 
ATOM     23  C   UNL     1       9.745  12.835  18.300  0.00  0.00    +0.000 C 
ATOM     24  C   UNL     1       8.837  11.737  17.744  0.00  0.00    +0.000 C 
ENDBRANCH  18  19
ENDBRANCH  17  18
ENDBRANCH   3  17
TORSDOF 7
ENDMDL
MODEL 4
REMARK VINA RESULT:      -7.4      2.557      3.548
REMARK  Name = 
REMARK  7 active torsions:
REMARK  status: ('A' for Active; 'I' for Inactive)
REMARK    1  A    between atoms: C_2  and  C_3
REMARK    2  A    between atoms: C_3  and  N_4
REMARK    3  A    between atoms: C_6  and  C_7
REMARK    4  A    between atoms: C_11  and  C_12
REMARK    5  A    between atoms: N_15  and  C_16
REMARK    6  A    between atoms: C_16  and  C_17
REMARK    7  A    between atoms: C_17  and  C_18
REMARK                            x       y       z     vdW  Elec       q    Type
REMARK                         _______ _______ _______ _____ _____    ______ ____
ROOT
ATOM      1  O   UNL     1       6.826   6.034  18.652  0.00  0.00    +0.000 OA
ATOM      2  C   UNL     1       6.610   6.601  17.582  0.00  0.00    +0.000 C 
ATOM      3  N   UNL     1       7.220   7.784  17.241  0.00  0.00    +0.000 N 
ATOM      4  H   UNL     1       7.032   8.153  16.305  0.00  0.00    +0.000 HD
ENDROOT
BRANCH   2   5
ATOM      5  C   UNL     1       5.560   6.078  16.615  0.00  0.00    +0.000 C 
BRANCH   5   6
ATOM      6  N   UNL     1       4.386   5.501  17.254  0.00  0.00    +0.000 N 
ATOM      7  N   UNL     1       4.169   4.162  17.150  0.00  0.00    +0.000 NA
ATOM      8  C   UNL     1       3.072   3.941  17.895  0.00  0.00    +0.000 A 
ATOM      9  C   UNL     1       2.558   5.154  18.414  0.00  0.00    +0.000 A 
ATOM     10  C   UNL     1       3.390   6.143  17.941  0.00  0.00    +0.000 A 
BRANCH   8  11
ATOM     11  C   UNL     1       2.514   2.566  18.094  0.00  0.00    +0.000 C 
ATOM     12  F   UNL     1       3.324   1.622  17.538  0.00  0.00    +0.000 F 
ATOM     13  F   UNL     1       2.426   2.252  19.418  0.00  0.00    +0.000 F 
ENDBRANCH   8  11
BRANCH  10  14
ATOM     14  C   UNL     1       3.224   7.644  18.142  0.00  0.00    +0.000 C 
ATOM     15  C   UNL     1       1.993   8.316  17.566  0.00  0.00    +0.000 C 
ATOM     16  C   UNL     1       2.115   8.144  19.042  0.00  0.00    +0.000 C 
ENDBRANCH  10  14
ENDBRANCH   5   6
ENDBRANCH   2   5
BRANCH   3  17
ATOM     17  C   UNL     1       8.215   8.425  18.071  0.00  0.00    +0.000 C 
BRANCH  17  18
ATOM     18  C   UNL     1       8.122   9.951  17.981  0.00  0.00    +0.000 C 
BRANCH  18  19
ATOM     19  C   UNL     1       9.272  10.658  18.660  0.00  0.00    +0.000 C 
ATOM     20  C   UNL     1       9.346  10.763  19.999  0.00  0.00    +0.000 C 
ATOM     21  C   UNL     1      10.456  11.474  20.720  0.00  0.00    +0.000 C 
ATOM     22  C   UNL     1      11.304  12.349  19.797  0.00  0.00    +0.000 C 
ATOM     23  C   UNL     1      11.627  11.619  18.500  0.00  0.00    +0.000 C 
ATOM     24  C   UNL     1      10.349  11.219  17.760  0.00  0.00    +0.000 C 
ENDBRANCH  18  19
ENDBRANCH  17  18
ENDBRANCH   3  17
TORSDOF 7
ENDMDL
MODEL 5
REMARK VINA RESULT:      -7.3      2.467      3.538
REMARK  Name = 
REMARK  7 active torsions:
REMARK  status: ('A' for Active; 'I' for Inactive)
REMARK    1  A    between atoms: C_2  and  C_3
REMARK    2  A    between atoms: C_3  and  N_4
REMARK    3  A    between atoms: C_6  and  C_7
REMARK    4  A    between atoms: C_11  and  C_12
REMARK    5  A    between atoms: N_15  and  C_16
REMARK    6  A    between atoms: C_16  and  C_17
REMARK    7  A    between atoms: C_17  and  C_18
REMARK                            x       y       z     vdW  Elec       q    Type
REMARK                         _______ _______ _______ _____ _____    ______ ____
ROOT
ATOM      1  O   UNL     1       6.128   7.585  17.543  0.00  0.00    +0.000 OA
ATOM      2  C   UNL     1       7.210   7.090  17.858  0.00  0.00    +0.000 C 
ATOM      3  N   UNL     1       8.316   7.856  18.133  0.00  0.00    +0.000 N 
ATOM      4  H   UNL     1       9.157   7.366  18.448  0.00  0.00    +0.000 HD
ENDROOT
BRANCH   2   5
ATOM      5  C   UNL     1       7.415   5.584  17.848  0.00  0.00    +0.000 C 
BRANCH   5   6
ATOM      6  N   UNL     1       6.190   4.808  17.721  0.00  0.00    +0.000 N 
ATOM      7  N   UNL     1       5.712   4.147  18.810  0.00  0.00    +0.000 NA
ATOM      8  C   UNL     1       4.555   3.604  18.392  0.00  0.00    +0.000 A 
ATOM      9  C   UNL     1       4.338   3.868  17.018  0.00  0.00    +0.000 A 
ATOM     10  C   UNL     1       5.430   4.596  16.602  0.00  0.00    +0.000 A 
BRANCH   8  11
ATOM     11  C   UNL     1       3.670   2.823  19.312  0.00  0.00    +0.000 C 
ATOM     12  F   UNL     1       3.364   3.543  20.428  0.00  0.00    +0.000 F 
ATOM     13  F   UNL     1       2.478   2.522  18.721  0.00  0.00    +0.000 F 
ENDBRANCH   8  11
BRANCH  10  14
ATOM     14  C   UNL     1       5.725   5.059  15.182  0.00  0.00    +0.000 C 
ATOM     15  C   UNL     1       6.981   4.548  14.503  0.00  0.00    +0.000 C 
ATOM     16  C   UNL     1       5.649   4.054  14.052  0.00  0.00    +0.000 C 
ENDBRANCH  10  14
ENDBRANCH   5   6
ENDBRANCH   2   5
BRANCH   3  17
ATOM     17  C   UNL     1       8.289   9.302  18.149  0.00  0.00    +0.000 C 
BRANCH  17  18
ATOM     18  C   UNL     1       9.125   9.866  19.302  0.00  0.00    +0.000 C 
BRANCH  18  19
ATOM     19  C   UNL     1       9.915  11.095  18.918  0.00  0.00    +0.000 C 
ATOM     20  C   UNL     1      11.117  11.362  19.462  0.00  0.00    +0.000 C 
ATOM     21  C   UNL     1      11.931  12.580  19.130  0.00  0.00    +0.000 C 
ATOM     22  C   UNL     1      11.131  13.648  18.384  0.00  0.00    +0.000 C 
ATOM     23  C   UNL     1      10.275  13.023  17.290  0.00  0.00    +0.000 C 
ATOM     24  C   UNL     1       9.301  11.996  17.873  0.00  0.00    +0.000 C 
ENDBRANCH  18  19
ENDBRANCH  17  18
ENDBRANCH   3  17
TORSDOF 7
ENDMDL
MODEL 6
REMARK VINA RESULT:      -7.3      1.042      1.482
REMARK  Name = 
REMARK  7 active torsions:
REMARK  status: ('A' for Active; 'I' for Inactive)
REMARK    1  A    between atoms: C_2  and  C_3
REMARK    2  A    between atoms: C_3  and  N_4
REMARK    3  A    between atoms: C_6  and  C_7
REMARK    4  A    between atoms: C_11  and  C_12
REMARK    5  A    between atoms: N_15  and  C_16
REMARK    6  A    between atoms: C_16  and  C_17
REMARK    7  A    between atoms: C_17  and  C_18
REMARK                            x       y       z     vdW  Elec       q    Type
REMARK                         _______ _______ _______ _____ _____    ______ ____
ROOT
ATOM      1  O   UNL     1       7.523   6.660  18.380  0.00  0.00    +0.000 OA
ATOM      2  C   UNL     1       6.944   7.460  17.645  0.00  0.00    +0.000 C 
ATOM      3  N   UNL     1       7.377   8.753  17.481  0.00  0.00    +0.000 N 
ATOM      4  H   UNL     1       6.874   9.331  16.802  0.00  0.00    +0.000 HD
ENDROOT
BRANCH   2   5
ATOM      5  C   UNL     1       5.639   7.091  16.959  0.00  0.00    +0.000 C 
BRANCH   5   6
ATOM      6  N   UNL     1       5.687   5.850  16.198  0.00  0.00    +0.000 N 
ATOM      7  N   UNL     1       6.329   5.836  14.999  0.00  0.00    +0.000 NA
ATOM      8  C   UNL     1       6.262   4.554  14.597  0.00  0.00    +0.000 A 
ATOM      9  C   UNL     1       5.517   3.774  15.514  0.00  0.00    +0.000 A 
ATOM     10  C   UNL     1       5.116   4.643  16.502  0.00  0.00    +0.000 A 
BRANCH   8  11
ATOM     11  C   UNL     1       6.903   4.088  13.327  0.00  0.00    +0.000 C 
ATOM     12  F   UNL     1       5.965   3.781  12.388  0.00  0.00    +0.000 F 
ATOM     13  F   UNL     1       7.682   5.063  12.776  0.00  0.00    +0.000 F 
ENDBRANCH   8  11
BRANCH  10  14
ATOM     14  C   UNL     1       4.213   4.320  17.686  0.00  0.00    +0.000 C 
ATOM     15  C   UNL     1       2.853   4.986  17.758  0.00  0.00    +0.000 C 
ATOM     16  C   UNL     1       2.943   3.531  17.445  0.00  0.00    +0.000 C 
ENDBRANCH  10  14
ENDBRANCH   5   6
ENDBRANCH   2   5
BRANCH   3  17
ATOM     17  C   UNL     1       8.582   9.265  18.095  0.00  0.00    +0.000 C 
BRANCH  17  18
ATOM     18  C   UNL     1       8.524  10.787  18.262  0.00  0.00    +0.000 C 
BRANCH  18  19
ATOM     19  C   UNL     1       9.877  11.410  18.511  0.00  0.00    +0.000 C 
ATOM     20  C   UNL     1      10.590  11.134  19.619  0.00  0.00    +0.000 C 
ATOM     21  C   UNL     1      11.929  11.744  19.922  0.00  0.00    +0.000 C 
ATOM     22  C   UNL     1      12.251  12.948  19.038  0.00  0.00    +0.000 C 
ATOM     23  C   UNL     1      11.890  12.669  17.584  0.00  0.00    +0.000 C 
ATOM     24  C   UNL     1      10.403  12.338  17.441  0.00  0.00    +0.000 C 
ENDBRANCH  18  19
ENDBRANCH  17  18
ENDBRANCH   3  17
TORSDOF 7
ENDMDL
MODEL 7
REMARK VINA RESULT:      -7.3      2.675      3.647
REMARK  Name = 
REMARK  7 active torsions:
REMARK  status: ('A' for Active; 'I' for Inactive)
REMARK    1  A    between atoms: C_2  and  C_3
REMARK    2  A    between atoms: C_3  and  N_4
REMARK    3  A    between atoms: C_6  and  C_7
REMARK    4  A    between atoms: C_11  and  C_12
REMARK    5  A    between atoms: N_15  and  C_16
REMARK    6  A    between atoms: C_16  and  C_17
REMARK    7  A    between atoms: C_17  and  C_18
REMARK                            x       y       z     vdW  Elec       q    Type
REMARK                         _______ _______ _______ _____ _____    ______ ____
ROOT
ATOM      1  O   UNL     1       6.769   6.324  18.323  0.00  0.00    +0.000 OA
ATOM      2  C   UNL     1       6.511   7.054  17.367  0.00  0.00    +0.000 C 
ATOM      3  N   UNL     1       7.197   8.221  17.128  0.00  0.00    +0.000 N 
ATOM      4  H   UNL     1       6.960   8.735  16.275  0.00  0.00    +0.000 HD
ENDROOT
BRANCH   2   5
ATOM      5  C   UNL     1       5.333   6.763  16.453  0.00  0.00    +0.000 C 
BRANCH   5   6
ATOM      6  N   UNL     1       4.652   5.506  16.728  0.00  0.00    +0.000 N 
ATOM      7  N   UNL     1       3.583   5.504  17.569  0.00  0.00    +0.000 NA
ATOM      8  C   UNL     1       3.144   4.233  17.552  0.00  0.00    +0.000 A 
ATOM      9  C   UNL     1       3.980   3.419  16.751  0.00  0.00    +0.000 A 
ATOM     10  C   UNL     1       4.970   4.251  16.280  0.00  0.00    +0.000 A 
BRANCH   8  11
ATOM     11  C   UNL     1       1.931   3.805  18.317  0.00  0.00    +0.000 C 
ATOM     12  F   UNL     1       2.242   2.851  19.238  0.00  0.00    +0.000 F 
ATOM     13  F   UNL     1       1.392   4.843  19.019  0.00  0.00    +0.000 F 
ENDBRANCH   8  11
BRANCH  10  14
ATOM     14  C   UNL     1       6.172   3.847  15.437  0.00  0.00    +0.000 C 
ATOM     15  C   UNL     1       5.993   3.723  13.937  0.00  0.00    +0.000 C 
ATOM     16  C   UNL     1       6.780   4.861  14.492  0.00  0.00    +0.000 C 
ENDBRANCH  10  14
ENDBRANCH   5   6
ENDBRANCH   2   5
BRANCH   3  17
ATOM     17  C   UNL     1       8.321   8.653  17.928  0.00  0.00    +0.000 C 
BRANCH  17  18
ATOM     18  C   UNL     1       8.147  10.098  18.405  0.00  0.00    +0.000 C 
BRANCH  18  19
ATOM     19  C   UNL     1       9.455  10.774  18.743  0.00  0.00    +0.000 C 
ATOM     20  C   UNL     1      10.312  11.176  17.786  0.00  0.00    +0.000 C 
ATOM     21  C   UNL     1      11.633  11.833  18.071  0.00  0.00    +0.000 C 
ATOM     22  C   UNL     1      12.065  11.697  19.531  0.00  0.00    +0.000 C 
ATOM     23  C   UNL     1      10.898  11.968  20.472  0.00  0.00    +0.000 C 
ATOM     24  C   UNL     1       9.742  11.000  20.209  0.00  0.00    +0.000 C 
ENDBRANCH  18  19
ENDBRANCH  17  18
ENDBRANCH   3  17
TORSDOF 7
ENDMDL
MODEL 8
REMARK VINA RESULT:      -7.2      3.125      4.152
REMARK  Name = 
REMARK  7 active torsions:
REMARK  status: ('A' for Active; 'I' for Inactive)
REMARK    1  A    between atoms: C_2  and  C_3
REMARK    2  A    between atoms: C_3  and  N_4
REMARK    3  A    between atoms: C_6  and  C_7
REMARK    4  A    between atoms: C_11  and  C_12
REMARK    5  A    between atoms: N_15  and  C_16
REMARK    6  A    between atoms: C_16  and  C_17
REMARK    7  A    between atoms: C_17  and  C_18
REMARK                            x       y       z     vdW  Elec       q    Type
REMARK                         _______ _______ _______ _____ _____    ______ ____
ROOT
ATOM      1  O   UNL     1       7.465   5.480  19.941  0.00  0.00    +0.000 OA
ATOM      2  C   UNL     1       7.066   5.726  18.803  0.00  0.00    +0.000 C 
ATOM      3  N   UNL     1       7.472   6.839  18.107  0.00  0.00    +0.000 N 
ATOM      4  H   UNL     1       7.140   6.934  17.144  0.00  0.00    +0.000 HD
ENDROOT
BRANCH   2   5
ATOM      5  C   UNL     1       6.002   4.866  18.142  0.00  0.00    +0.000 C 
BRANCH   5   6
ATOM      6  N   UNL     1       4.639   5.344  18.325  0.00  0.00    +0.000 N 
ATOM      7  N   UNL     1       4.395   6.681  18.264  0.00  0.00    +0.000 NA
ATOM      8  C   UNL     1       3.061   6.785  18.392  0.00  0.00    +0.000 A 
ATOM      9  C   UNL     1       2.471   5.515  18.602  0.00  0.00    +0.000 A 
ATOM     10  C   UNL     1       3.514   4.617  18.608  0.00  0.00    +0.000 A 
BRANCH   8  11
ATOM     11  C   UNL     1       2.360   8.106  18.326  0.00  0.00    +0.000 C 
ATOM     12  F   UNL     1       1.349   8.081  17.412  0.00  0.00    +0.000 F 
ATOM     13  F   UNL     1       1.781   8.423  19.519  0.00  0.00    +0.000 F 
ENDBRANCH   8  11
BRANCH  10  14
ATOM     14  C   UNL     1       3.424   3.121  18.883  0.00  0.00    +0.000 C 
ATOM     15  C   UNL     1       3.142   2.665  20.301  0.00  0.00    +0.000 C 
ATOM     16  C   UNL     1       2.085   2.525  19.260  0.00  0.00    +0.000 C 
ENDBRANCH  10  14
ENDBRANCH   5   6
ENDBRANCH   2   5
BRANCH   3  17
ATOM     17  C   UNL     1       8.452   7.773  18.616  0.00  0.00    +0.000 C 
BRANCH  17  18
ATOM     18  C   UNL     1       8.281   9.161  17.992  0.00  0.00    +0.000 C 
BRANCH  18  19
ATOM     19  C   UNL     1       9.137  10.218  18.650  0.00  0.00    +0.000 C 
ATOM     20  C   UNL     1       9.190  10.353  19.988  0.00  0.00    +0.000 C 
ATOM     21  C   UNL     1      10.008  11.401  20.689  0.00  0.00    +0.000 C 
ATOM     22  C   UNL     1      10.499  12.502  19.750  0.00  0.00    +0.000 C 
ATOM     23  C   UNL     1      11.030  11.913  18.449  0.00  0.00    +0.000 C 
ATOM     24  C   UNL     1       9.950  11.100  17.731  0.00  0.00    +0.000 C 
ENDBRANCH  18  19
ENDBRANCH  17  18
ENDBRANCH   3  17
TORSDOF 7
ENDMDL
MODEL 9
REMARK VINA RESULT:      -7.1      2.929      3.871
REMARK  Name = 
REMARK  7 active torsions:
REMARK  status: ('A' for Active; 'I' for Inactive)
REMARK    1  A    between atoms: C_2  and  C_3
REMARK    2  A    between atoms: C_3  and  N_4
REMARK    3  A    between atoms: C_6  and  C_7
REMARK    4  A    between atoms: C_11  and  C_12
REMARK    5  A    between atoms: N_15  and  C_16
REMARK    6  A    between atoms: C_16  and  C_17
REMARK    7  A    between atoms: C_17  and  C_18
REMARK                            x       y       z     vdW  Elec       q    Type
REMARK                         _______ _______ _______ _____ _____    ______ ____
ROOT
ATOM      1  O   UNL     1       7.822   5.536  20.004  0.00  0.00    +0.000 OA
ATOM      2  C   UNL     1       7.748   5.723  18.790  0.00  0.00    +0.000 C 
ATOM      3  N   UNL     1       7.979   6.952  18.221  0.00  0.00    +0.000 N 
ATOM      4  H   UNL     1       7.959   7.004  17.199  0.00  0.00    +0.000 HD
ENDROOT
BRANCH   2   5
ATOM      5  C   UNL     1       7.281   4.621  17.854  0.00  0.00    +0.000 C 
BRANCH   5   6
ATOM      6  N   UNL     1       5.879   4.257  18.002  0.00  0.00    +0.000 N 
ATOM      7  N   UNL     1       5.421   3.883  19.228  0.00  0.00    +0.000 NA
ATOM      8  C   UNL     1       4.102   3.690  19.048  0.00  0.00    +0.000 A 
ATOM      9  C   UNL     1       3.742   3.878  17.692  0.00  0.00    +0.000 A 
ATOM     10  C   UNL     1       4.912   4.187  17.036  0.00  0.00    +0.000 A 
BRANCH   8  11
ATOM     11  C   UNL     1       3.197   3.314  20.179  0.00  0.00    +0.000 C 
ATOM     12  F   UNL     1       2.767   4.418  20.852  0.00  0.00    +0.000 F 
ATOM     13  F   UNL     1       2.073   2.687  19.730  0.00  0.00    +0.000 F 
ENDBRANCH   8  11
BRANCH  10  14
ATOM     14  C   UNL     1       5.084   4.398  15.537  0.00  0.00    +0.000 C 
ATOM     15  C   UNL     1       5.445   5.785  15.042  0.00  0.00    +0.000 C 
ATOM     16  C   UNL     1       6.465   4.699  14.994  0.00  0.00    +0.000 C 
ENDBRANCH  10  14
ENDBRANCH   5   6
ENDBRANCH   2   5
BRANCH   3  17
ATOM     17  C   UNL     1       8.398   8.107  18.983  0.00  0.00    +0.000 C 
BRANCH  17  18
ATOM     18  C   UNL     1       8.446   9.366  18.112  0.00  0.00    +0.000 C 
BRANCH  18  19
ATOM     19  C   UNL     1       9.388  10.421  18.643  0.00  0.00    +0.000 C 
ATOM     20  C   UNL     1      10.087  11.225  17.820  0.00  0.00    +0.000 C 
ATOM     21  C   UNL     1      11.051  12.273  18.298  0.00  0.00    +0.000 C 
ATOM     22  C   UNL     1      11.418  12.118  19.774  0.00  0.00    +0.000 C 
ATOM     23  C   UNL     1      10.182  11.826  20.616  0.00  0.00    +0.000 C 
ATOM     24  C   UNL     1       9.486  10.547  20.145  0.00  0.00    +0.000 C 
ENDBRANCH  18  19
ENDBRANCH  17  18
ENDBRANCH   3  17
TORSDOF 7
ENDMDL
