MODEL 1
REMARK VINA RESULT:      -6.5      0.000      0.000
REMARK  Name = 
REMARK  8 active torsions:
REMARK  status: ('A' for Active; 'I' for Inactive)
REMARK    1  A    between atoms: C_1  and  C_2
REMARK    2  A    between atoms: C_2  and  C_3
REMARK    3  A    between atoms: C_2  and  C_5
REMARK    4  A    between atoms: C_3  and  S_4
REMARK    5  A    between atoms: N_7  and  CA_8
REMARK    6  A    between atoms: CA_8  and  C_9
REMARK    7  A    between atoms: CA_8  and  C_12
REMARK    8  A    between atoms: C_9  and  OXT_11
REMARK                            x       y       z     vdW  Elec       q    Type
REMARK                         _______ _______ _______ _____ _____    ______ ____
ROOT
ATOM      1  CA  UNL     1       5.997   4.883  15.898  0.00  0.00    +0.000 C 
ENDROOT
BRANCH   1   2
ATOM      2  C   UNL     1       6.300   4.586  14.442  0.00  0.00    +0.000 A 
ATOM      3  C   UNL     1       5.503   3.670  13.739  0.00  0.00    +0.000 A 
ATOM      4  C   UNL     1       5.806   3.332  12.420  0.00  0.00    +0.000 A 
ATOM      5  C   UNL     1       6.908   3.905  11.789  0.00  0.00    +0.000 A 
ATOM      6  C   UNL     1       7.699   4.829  12.469  0.00  0.00    +0.000 A 
ATOM      7  C   UNL     1       7.394   5.175  13.784  0.00  0.00    +0.000 A 
ENDBRANCH   1   2
BRANCH   1  10
ATOM      8  C   UNL     1       4.286   3.854  17.339  0.00  0.00    +0.000 C 
ATOM      9  O   UNL     1       3.742   4.941  17.529  0.00  0.00    +0.000 OA
ATOM     10  N   UNL     1       5.403   3.723  16.551  0.00  0.00    +0.000 N 
ATOM     11  H   UNL     1       5.738   2.811  16.265  0.00  0.00    +0.000 HD
BRANCH   8  13
ATOM     12  C   UNL     1       2.296   2.350  17.694  0.00  0.00    +0.000 C 
ATOM     13  C   UNL     1       3.788   2.557  17.970  0.00  0.00    +0.000 C 
BRANCH  13  14
ATOM     14  C   UNL     1       4.116   2.488  19.469  0.00  0.00    +0.000 C 
BRANCH  14  15
ATOM     15  S   UNL     1       2.744   2.913  20.590  0.00  0.00    +0.000 S 
ATOM     16  H   UNL     1       1.941   3.469  19.669  0.00  0.00    +0.000 HD
ENDBRANCH  14  15
ENDBRANCH  13  14
ENDBRANCH   8  13
ENDBRANCH   1  10
BRANCH   1  17
ATOM     17  C   UNL     1       7.251   5.308  16.682  0.00  0.00    +0.000 C 
ATOM     18  O   UNL     1       7.617   6.471  16.811  0.00  0.00    +0.000 OA
BRANCH  17  19
ATOM     19  OXT UNL     1       7.970   4.276  17.190  0.00  0.00    +0.000 OA
ATOM     20  HXT UNL     1       7.897   3.439  16.690  0.00  0.00    +0.000 HD
ENDBRANCH  17  19
ENDBRANCH   1  17
TORSDOF 7
ENDMDL
MODEL 2
REMARK VINA RESULT:      -6.5      0.065      1.173
REMARK  Name = 
REMARK  8 active torsions:
REMARK  status: ('A' for Active; 'I' for Inactive)
REMARK    1  A    between atoms: C_1  and  C_2
REMARK    2  A    between atoms: C_2  and  C_3
REMARK    3  A    between atoms: C_2  and  C_5
REMARK    4  A    between atoms: C_3  and  S_4
REMARK    5  A    between atoms: N_7  and  CA_8
REMARK    6  A    between atoms: CA_8  and  C_9
REMARK    7  A    between atoms: CA_8  and  C_12
REMARK    8  A    between atoms: C_9  and  OXT_11
REMARK                            x       y       z     vdW  Elec       q    Type
REMARK                         _______ _______ _______ _____ _____    ______ ____
ROOT
ATOM      1  CA  UNL     1       6.020   4.822  15.879  0.00  0.00    +0.000 C 
ENDROOT
BRANCH   1   2
ATOM      2  C   UNL     1       6.347   4.476  14.439  0.00  0.00    +0.000 A 
ATOM      3  C   UNL     1       7.427   5.104  13.800  0.00  0.00    +0.000 A 
ATOM      4  C   UNL     1       7.702   4.849  12.457  0.00  0.00    +0.000 A 
ATOM      5  C   UNL     1       6.901   3.966  11.736  0.00  0.00    +0.000 A 
ATOM      6  C   UNL     1       5.835   3.321  12.361  0.00  0.00    +0.000 A 
ATOM      7  C   UNL     1       5.563   3.568  13.706  0.00  0.00    +0.000 A 
ENDBRANCH   1   2
BRANCH   1  10
ATOM      8  C   UNL     1       4.281   3.831  17.314  0.00  0.00    +0.000 C 
ATOM      9  O   UNL     1       3.720   4.918  17.444  0.00  0.00    +0.000 OA
ATOM     10  N   UNL     1       5.421   3.682  16.562  0.00  0.00    +0.000 N 
ATOM     11  H   UNL     1       5.774   2.763  16.323  0.00  0.00    +0.000 HD
BRANCH   8  13
ATOM     12  C   UNL     1       2.289   2.341  17.710  0.00  0.00    +0.000 C 
ATOM     13  C   UNL     1       3.781   2.555  17.982  0.00  0.00    +0.000 C 
BRANCH  13  14
ATOM     14  C   UNL     1       4.104   2.530  19.483  0.00  0.00    +0.000 C 
BRANCH  14  15
ATOM     15  S   UNL     1       2.716   2.942  20.590  0.00  0.00    +0.000 S 
ATOM     16  H   UNL     1       2.882   4.273  20.579  0.00  0.00    +0.000 HD
ENDBRANCH  14  15
ENDBRANCH  13  14
ENDBRANCH   8  13
ENDBRANCH   1  10
BRANCH   1  17
ATOM     17  C   UNL     1       7.260   5.279  16.667  0.00  0.00    +0.000 C 
ATOM     18  O   UNL     1       7.600   6.451  16.790  0.00  0.00    +0.000 OA
BRANCH  17  19
ATOM     19  OXT UNL     1       7.998   4.267  17.187  0.00  0.00    +0.000 OA
ATOM     20  HXT UNL     1       7.477   3.548  17.597  0.00  0.00    +0.000 HD
ENDBRANCH  17  19
ENDBRANCH   1  17
TORSDOF 7
ENDMDL
MODEL 3
REMARK VINA RESULT:      -6.3      4.052      4.783
REMARK  Name = 
REMARK  8 active torsions:
REMARK  status: ('A' for Active; 'I' for Inactive)
REMARK    1  A    between atoms: C_1  and  C_2
REMARK    2  A    between atoms: C_2  and  C_3
REMARK    3  A    between atoms: C_2  and  C_5
REMARK    4  A    between atoms: C_3  and  S_4
REMARK    5  A    between atoms: N_7  and  CA_8
REMARK    6  A    between atoms: CA_8  and  C_9
REMARK    7  A    between atoms: CA_8  and  C_12
REMARK    8  A    between atoms: C_9  and  OXT_11
REMARK                            x       y       z     vdW  Elec       q    Type
REMARK                         _______ _______ _______ _____ _____    ______ ____
ROOT
ATOM      1  CA  UNL     1       3.032   6.216  17.971  0.00  0.00    +0.000 C 
ENDROOT
BRANCH   1   2
ATOM      2  C   UNL     1       4.546   6.142  18.002  0.00  0.00    +0.000 A 
ATOM      3  C   UNL     1       5.188   5.439  19.032  0.00  0.00    +0.000 A 
ATOM      4  C   UNL     1       6.580   5.415  19.115  0.00  0.00    +0.000 A 
ATOM      5  C   UNL     1       7.347   6.096  18.171  0.00  0.00    +0.000 A 
ATOM      6  C   UNL     1       6.724   6.785  17.132  0.00  0.00    +0.000 A 
ATOM      7  C   UNL     1       5.333   6.802  17.042  0.00  0.00    +0.000 A 
ENDBRANCH   1   2
BRANCH   1  10
ATOM      8  C   UNL     1       1.584   4.257  18.336  0.00  0.00    +0.000 C 
ATOM      9  O   UNL     1       1.269   4.225  17.146  0.00  0.00    +0.000 OA
ATOM     10  N   UNL     1       2.447   5.201  18.839  0.00  0.00    +0.000 N 
ATOM     11  H   UNL     1       2.829   5.116  19.772  0.00  0.00    +0.000 HD
BRANCH   8  13
ATOM     12  C   UNL     1       1.262   3.786  20.789  0.00  0.00    +0.000 C 
ATOM     13  C   UNL     1       1.039   3.272  19.364  0.00  0.00    +0.000 C 
BRANCH  13  14
ATOM     14  C   UNL     1       1.609   1.860  19.162  0.00  0.00    +0.000 C 
BRANCH  14  15
ATOM     15  S   UNL     1       3.346   1.788  18.616  0.00  0.00    +0.000 S 
ATOM     16  H   UNL     1       3.908   1.902  19.830  0.00  0.00    +0.000 HD
ENDBRANCH  14  15
ENDBRANCH  13  14
ENDBRANCH   8  13
ENDBRANCH   1  10
BRANCH   1  17
ATOM     17  C   UNL     1       2.504   7.598  18.396  0.00  0.00    +0.000 C 
ATOM     18  O   UNL     1       2.130   7.868  19.532  0.00  0.00    +0.000 OA
BRANCH  17  19
ATOM     19  OXT UNL     1       2.432   8.504  17.388  0.00  0.00    +0.000 OA
ATOM     20  HXT UNL     1       2.647   8.151  16.502  0.00  0.00    +0.000 HD
ENDBRANCH  17  19
ENDBRANCH   1  17
TORSDOF 7
ENDMDL
MODEL 4
REMARK VINA RESULT:      -6.2      4.067      4.834
REMARK  Name = 
REMARK  8 active torsions:
REMARK  status: ('A' for Active; 'I' for Inactive)
REMARK    1  A    between atoms: C_1  and  C_2
REMARK    2  A    between atoms: C_2  and  C_3
REMARK    3  A    between atoms: C_2  and  C_5
REMARK    4  A    between atoms: C_3  and  S_4
REMARK    5  A    between atoms: N_7  and  CA_8
REMARK    6  A    between atoms: CA_8  and  C_9
REMARK    7  A    between atoms: CA_8  and  C_12
REMARK    8  A    between atoms: C_9  and  OXT_11
REMARK                            x       y       z     vdW  Elec       q    Type
REMARK                         _______ _______ _______ _____ _____    ______ ____
ROOT
ATOM      1  CA  UNL     1       3.134   6.184  18.011  0.00  0.00    +0.000 C 
ENDROOT
BRANCH   1   2
ATOM      2  C   UNL     1       4.648   6.165  18.106  0.00  0.00    +0.000 A 
ATOM      3  C   UNL     1       5.414   6.823  17.132  0.00  0.00    +0.000 A 
ATOM      4  C   UNL     1       6.807   6.760  17.165  0.00  0.00    +0.000 A 
ATOM      5  C   UNL     1       7.450   6.039  18.169  0.00  0.00    +0.000 A 
ATOM      6  C   UNL     1       6.703   5.394  19.153  0.00  0.00    +0.000 A 
ATOM      7  C   UNL     1       5.311   5.463  19.128  0.00  0.00    +0.000 A 
ENDBRANCH   1   2
BRANCH   1  10
ATOM      8  C   UNL     1       1.608   4.287  18.382  0.00  0.00    +0.000 C 
ATOM      9  O   UNL     1       1.222   4.325  17.215  0.00  0.00    +0.000 OA
ATOM     10  N   UNL     1       2.549   5.162  18.870  0.00  0.00    +0.000 N 
ATOM     11  H   UNL     1       2.982   5.015  19.773  0.00  0.00    +0.000 HD
BRANCH   8  13
ATOM     12  C   UNL     1       1.342   3.761  20.831  0.00  0.00    +0.000 C 
ATOM     13  C   UNL     1       1.074   3.285  19.400  0.00  0.00    +0.000 C 
BRANCH  13  14
ATOM     14  C   UNL     1       1.616   1.870  19.149  0.00  0.00    +0.000 C 
BRANCH  14  15
ATOM     15  S   UNL     1       3.351   1.784  18.597  0.00  0.00    +0.000 S 
ATOM     16  H   UNL     1       3.276   2.741  17.659  0.00  0.00    +0.000 HD
ENDBRANCH  14  15
ENDBRANCH  13  14
ENDBRANCH   8  13
ENDBRANCH   1  10
BRANCH   1  17
ATOM     17  C   UNL     1       2.541   7.552  18.391  0.00  0.00    +0.000 C 
ATOM     18  O   UNL     1       2.141   7.837  19.514  0.00  0.00    +0.000 OA
BRANCH  17  19
ATOM     19  OXT UNL     1       2.442   8.426  17.358  0.00  0.00    +0.000 OA
ATOM     20  HXT UNL     1       2.927   9.266  17.482  0.00  0.00    +0.000 HD
ENDBRANCH  17  19
ENDBRANCH   1  17
TORSDOF 7
ENDMDL
MODEL 5
REMARK VINA RESULT:      -6.2      3.353      6.493
REMARK  Name = 
REMARK  8 active torsions:
REMARK  status: ('A' for Active; 'I' for Inactive)
REMARK    1  A    between atoms: C_1  and  C_2
REMARK    2  A    between atoms: C_2  and  C_3
REMARK    3  A    between atoms: C_2  and  C_5
REMARK    4  A    between atoms: C_3  and  S_4
REMARK    5  A    between atoms: N_7  and  CA_8
REMARK    6  A    between atoms: CA_8  and  C_9
REMARK    7  A    between atoms: CA_8  and  C_12
REMARK    8  A    between atoms: C_9  and  OXT_11
REMARK                            x       y       z     vdW  Elec       q    Type
REMARK                         _______ _______ _______ _____ _____    ______ ____
ROOT
ATOM      1  CA  UNL     1       3.300   5.946  19.532  0.00  0.00    +0.000 C 
ENDROOT
BRANCH   1   2
ATOM      2  C   UNL     1       2.394   4.732  19.467  0.00  0.00    +0.000 A 
ATOM      3  C   UNL     1       1.924   4.151  20.654  0.00  0.00    +0.000 A 
ATOM      4  C   UNL     1       1.144   2.995  20.618  0.00  0.00    +0.000 A 
ATOM      5  C   UNL     1       0.828   2.405  19.396  0.00  0.00    +0.000 A 
ATOM      6  C   UNL     1       1.274   2.980  18.207  0.00  0.00    +0.000 A 
ATOM      7  C   UNL     1       2.045   4.140  18.241  0.00  0.00    +0.000 A 
ENDBRANCH   1   2
BRANCH   1  10
ATOM      8  C   UNL     1       5.545   5.499  18.622  0.00  0.00    +0.000 C 
ATOM      9  O   UNL     1       5.946   5.100  19.714  0.00  0.00    +0.000 OA
ATOM     10  N   UNL     1       4.257   5.937  18.431  0.00  0.00    +0.000 N 
ATOM     11  H   UNL     1       3.892   6.100  17.501  0.00  0.00    +0.000 HD
BRANCH   8  13
ATOM     12  C   UNL     1       7.320   6.814  17.411  0.00  0.00    +0.000 C 
ATOM     13  C   UNL     1       6.435   5.564  17.385  0.00  0.00    +0.000 C 
BRANCH  13  14
ATOM     14  C   UNL     1       5.620   5.458  16.088  0.00  0.00    +0.000 C 
BRANCH  14  15
ATOM     15  S   UNL     1       6.142   4.141  14.941  0.00  0.00    +0.000 S 
ATOM     16  H   UNL     1       5.398   4.526  13.893  0.00  0.00    +0.000 HD
ENDBRANCH  14  15
ENDBRANCH  13  14
ENDBRANCH   8  13
ENDBRANCH   1  10
BRANCH   1  17
ATOM     17  C   UNL     1       2.513   7.267  19.496  0.00  0.00    +0.000 C 
ATOM     18  O   UNL     1       2.344   7.937  18.482  0.00  0.00    +0.000 OA
BRANCH  17  19
ATOM     19  OXT UNL     1       2.050   7.677  20.704  0.00  0.00    +0.000 OA
ATOM     20  HXT UNL     1       1.838   6.955  21.328  0.00  0.00    +0.000 HD
ENDBRANCH  17  19
ENDBRANCH   1  17
TORSDOF 7
ENDMDL
MODEL 6
REMARK VINA RESULT:      -6.2      3.376      6.401
REMARK  Name = 
REMARK  8 active torsions:
REMARK  status: ('A' for Active; 'I' for Inactive)
REMARK    1  A    between atoms: C_1  and  C_2
REMARK    2  A    between atoms: C_2  and  C_3
REMARK    3  A    between atoms: C_2  and  C_5
REMARK    4  A    between atoms: C_3  and  S_4
REMARK    5  A    between atoms: N_7  and  CA_8
REMARK    6  A    between atoms: CA_8  and  C_9
REMARK    7  A    between atoms: CA_8  and  C_12
REMARK    8  A    between atoms: C_9  and  OXT_11
REMARK                            x       y       z     vdW  Elec       q    Type
REMARK                         _______ _______ _______ _____ _____    ______ ____
ROOT
ATOM      1  CA  UNL     1       3.476   6.055  19.221  0.00  0.00    +0.000 C 
ENDROOT
BRANCH   1   2
ATOM      2  C   UNL     1       2.560   4.855  19.369  0.00  0.00    +0.000 A 
ATOM      3  C   UNL     1       2.142   4.155  18.227  0.00  0.00    +0.000 A 
ATOM      4  C   UNL     1       1.247   3.091  18.336  0.00  0.00    +0.000 A 
ATOM      5  C   UNL     1       0.758   2.715  19.586  0.00  0.00    +0.000 A 
ATOM      6  C   UNL     1       1.177   3.391  20.731  0.00  0.00    +0.000 A 
ATOM      7  C   UNL     1       2.079   4.449  20.625  0.00  0.00    +0.000 A 
ENDBRANCH   1   2
BRANCH   1  10
ATOM      8  C   UNL     1       5.744   5.301  18.630  0.00  0.00    +0.000 C 
ATOM      9  O   UNL     1       6.010   5.065  19.808  0.00  0.00    +0.000 OA
ATOM     10  N   UNL     1       4.522   5.790  18.241  0.00  0.00    +0.000 N 
ATOM     11  H   UNL     1       4.256   5.818  17.264  0.00  0.00    +0.000 HD
BRANCH   8  13
ATOM     12  C   UNL     1       7.307   6.427  17.007  0.00  0.00    +0.000 C 
ATOM     13  C   UNL     1       6.743   5.090  17.497  0.00  0.00    +0.000 C 
BRANCH  13  14
ATOM     14  C   UNL     1       6.143   4.260  16.353  0.00  0.00    +0.000 C 
BRANCH  14  15
ATOM     15  S   UNL     1       6.705   4.712  14.680  0.00  0.00    +0.000 S 
ATOM     16  H   UNL     1       7.146   5.944  14.978  0.00  0.00    +0.000 HD
ENDBRANCH  14  15
ENDBRANCH  13  14
ENDBRANCH   8  13
ENDBRANCH   1  10
BRANCH   1  17
ATOM     17  C   UNL     1       2.714   7.326  18.806  0.00  0.00    +0.000 C 
ATOM     18  O   UNL     1       2.818   7.858  17.706  0.00  0.00    +0.000 OA
BRANCH  17  19
ATOM     19  OXT UNL     1       1.939   7.859  19.783  0.00  0.00    +0.000 OA
ATOM     20  HXT UNL     1       1.361   8.593  19.495  0.00  0.00    +0.000 HD
ENDBRANCH  17  19
ENDBRANCH   1  17
TORSDOF 7
ENDMDL
MODEL 7
REMARK VINA RESULT:      -6.2      2.980      6.306
REMARK  Name = 
REMARK  8 active torsions:
REMARK  status: ('A' for Active; 'I' for Inactive)
REMARK    1  A    between atoms: C_1  and  C_2
REMARK    2  A    between atoms: C_2  and  C_3
REMARK    3  A    between atoms: C_2  and  C_5
REMARK    4  A    between atoms: C_3  and  S_4
REMARK    5  A    between atoms: N_7  and  CA_8
REMARK    6  A    between atoms: CA_8  and  C_9
REMARK    7  A    between atoms: CA_8  and  C_12
REMARK    8  A    between atoms: C_9  and  OXT_11
REMARK                            x       y       z     vdW  Elec       q    Type
REMARK                         _______ _______ _______ _____ _____    ______ ____
ROOT
ATOM      1  CA  UNL     1       4.006   2.916  18.468  0.00  0.00    +0.000 C 
ENDROOT
BRANCH   1   2
ATOM      2  C   UNL     1       2.986   3.774  19.191  0.00  0.00    +0.000 A 
ATOM      3  C   UNL     1       3.278   5.118  19.466  0.00  0.00    +0.000 A 
ATOM      4  C   UNL     1       2.381   5.906  20.188  0.00  0.00    +0.000 A 
ATOM      5  C   UNL     1       1.183   5.359  20.644  0.00  0.00    +0.000 A 
ATOM      6  C   UNL     1       0.871   4.030  20.364  0.00  0.00    +0.000 A 
ATOM      7  C   UNL     1       1.762   3.243  19.635  0.00  0.00    +0.000 A 
ENDBRANCH   1   2
BRANCH   1  10
ATOM      8  C   UNL     1       5.306   4.200  16.817  0.00  0.00    +0.000 C 
ATOM      9  O   UNL     1       4.459   4.003  15.946  0.00  0.00    +0.000 OA
ATOM     10  N   UNL     1       5.172   3.705  18.091  0.00  0.00    +0.000 N 
ATOM     11  H   UNL     1       5.782   4.012  18.838  0.00  0.00    +0.000 HD
BRANCH   8  13
ATOM     12  C   UNL     1       7.105   4.756  15.144  0.00  0.00    +0.000 C 
ATOM     13  C   UNL     1       6.585   4.991  16.565  0.00  0.00    +0.000 C 
BRANCH  13  14
ATOM     14  C   UNL     1       7.655   4.701  17.628  0.00  0.00    +0.000 C 
BRANCH  14  15
ATOM     15  S   UNL     1       7.804   5.949  18.948  0.00  0.00    +0.000 S 
ATOM     16  H   UNL     1       9.130   5.849  19.125  0.00  0.00    +0.000 HD
ENDBRANCH  14  15
ENDBRANCH  13  14
ENDBRANCH   8  13
ENDBRANCH   1  10
BRANCH   1  17
ATOM     17  C   UNL     1       4.468   1.717  19.315  0.00  0.00    +0.000 C 
ATOM     18  O   UNL     1       4.937   1.817  20.444  0.00  0.00    +0.000 OA
BRANCH  17  19
ATOM     19  OXT UNL     1       4.365   0.517  18.690  0.00  0.00    +0.000 OA
ATOM     20  HXT UNL     1       3.453   0.179  18.599  0.00  0.00    +0.000 HD
ENDBRANCH  17  19
ENDBRANCH   1  17
TORSDOF 7
ENDMDL
MODEL 8
REMARK VINA RESULT:      -6.2      3.004      6.214
REMARK  Name = 
REMARK  8 active torsions:
REMARK  status: ('A' for Active; 'I' for Inactive)
REMARK    1  A    between atoms: C_1  and  C_2
REMARK    2  A    between atoms: C_2  and  C_3
REMARK    3  A    between atoms: C_2  and  C_5
REMARK    4  A    between atoms: C_3  and  S_4
REMARK    5  A    between atoms: N_7  and  CA_8
REMARK    6  A    between atoms: CA_8  and  C_9
REMARK    7  A    between atoms: CA_8  and  C_12
REMARK    8  A    between atoms: C_9  and  OXT_11
REMARK                            x       y       z     vdW  Elec       q    Type
REMARK                         _______ _______ _______ _____ _____    ______ ____
ROOT
ATOM      1  CA  UNL     1       4.012   2.967  18.526  0.00  0.00    +0.000 C 
ENDROOT
BRANCH   1   2
ATOM      2  C   UNL     1       3.041   3.836  19.302  0.00  0.00    +0.000 A 
ATOM      3  C   UNL     1       1.839   3.286  19.772  0.00  0.00    +0.000 A 
ATOM      4  C   UNL     1       0.903   4.084  20.430  0.00  0.00    +0.000 A 
ATOM      5  C   UNL     1       1.156   5.441  20.624  0.00  0.00    +0.000 A 
ATOM      6  C   UNL     1       2.354   5.998  20.178  0.00  0.00    +0.000 A 
ATOM      7  C   UNL     1       3.294   5.200  19.528  0.00  0.00    +0.000 A 
ENDBRANCH   1   2
BRANCH   1  10
ATOM      8  C   UNL     1       5.309   4.217  16.847  0.00  0.00    +0.000 C 
ATOM      9  O   UNL     1       4.447   4.029  15.989  0.00  0.00    +0.000 OA
ATOM     10  N   UNL     1       5.186   3.734  18.126  0.00  0.00    +0.000 N 
ATOM     11  H   UNL     1       5.812   4.036  18.863  0.00  0.00    +0.000 HD
BRANCH   8  13
ATOM     12  C   UNL     1       7.101   4.720  15.149  0.00  0.00    +0.000 C 
ATOM     13  C   UNL     1       6.598   4.985  16.571  0.00  0.00    +0.000 C 
BRANCH  13  14
ATOM     14  C   UNL     1       7.673   4.696  17.629  0.00  0.00    +0.000 C 
BRANCH  14  15
ATOM     15  S   UNL     1       7.809   5.930  18.964  0.00  0.00    +0.000 S 
ATOM     16  H   UNL     1       8.866   5.387  19.587  0.00  0.00    +0.000 HD
ENDBRANCH  14  15
ENDBRANCH  13  14
ENDBRANCH   8  13
ENDBRANCH   1  10
BRANCH   1  17
ATOM     17  C   UNL     1       4.470   1.738  19.329  0.00  0.00    +0.000 C 
ATOM     18  O   UNL     1       4.969   1.798  20.448  0.00  0.00    +0.000 OA
BRANCH  17  19
ATOM     19  OXT UNL     1       4.326   0.557  18.677  0.00  0.00    +0.000 OA
ATOM     20  HXT UNL     1       5.140   0.222  18.250  0.00  0.00    +0.000 HD
ENDBRANCH  17  19
ENDBRANCH   1  17
TORSDOF 7
ENDMDL
MODEL 9
REMARK VINA RESULT:      -6.2      3.872      4.479
REMARK  Name = 
REMARK  8 active torsions:
REMARK  status: ('A' for Active; 'I' for Inactive)
REMARK    1  A    between atoms: C_1  and  C_2
REMARK    2  A    between atoms: C_2  and  C_3
REMARK    3  A    between atoms: C_2  and  C_5
REMARK    4  A    between atoms: C_3  and  S_4
REMARK    5  A    between atoms: N_7  and  CA_8
REMARK    6  A    between atoms: CA_8  and  C_9
REMARK    7  A    between atoms: CA_8  and  C_12
REMARK    8  A    between atoms: C_9  and  OXT_11
REMARK                            x       y       z     vdW  Elec       q    Type
REMARK                         _______ _______ _______ _____ _____    ______ ____
ROOT
ATOM      1  CA  UNL     1       3.588   5.789  17.960  0.00  0.00    +0.000 C 
ENDROOT
BRANCH   1   2
ATOM      2  C   UNL     1       5.086   5.996  18.082  0.00  0.00    +0.000 A 
ATOM      3  C   UNL     1       5.796   5.350  19.105  0.00  0.00    +0.000 A 
ATOM      4  C   UNL     1       7.161   5.580  19.274  0.00  0.00    +0.000 A 
ATOM      5  C   UNL     1       7.832   6.458  18.426  0.00  0.00    +0.000 A 
ATOM      6  C   UNL     1       7.143   7.094  17.394  0.00  0.00    +0.000 A 
ATOM      7  C   UNL     1       5.781   6.859  17.217  0.00  0.00    +0.000 A 
ENDBRANCH   1   2
BRANCH   1  10
ATOM      8  C   UNL     1       2.574   3.545  17.969  0.00  0.00    +0.000 C 
ATOM      9  O   UNL     1       2.359   3.599  16.759  0.00  0.00    +0.000 OA
ATOM     10  N   UNL     1       3.175   4.574  18.652  0.00  0.00    +0.000 N 
ATOM     11  H   UNL     1       3.500   4.452  19.603  0.00  0.00    +0.000 HD
BRANCH   8  13
ATOM     12  C   UNL     1       0.660   2.197  18.899  0.00  0.00    +0.000 C 
ATOM     13  C   UNL     1       2.182   2.347  18.828  0.00  0.00    +0.000 C 
BRANCH  13  14
ATOM     14  C   UNL     1       2.824   2.408  20.222  0.00  0.00    +0.000 C 
BRANCH  14  15
ATOM     15  S   UNL     1       1.682   2.778  21.594  0.00  0.00    +0.000 S 
ATOM     16  H   UNL     1       1.362   4.024  21.214  0.00  0.00    +0.000 HD
ENDBRANCH  14  15
ENDBRANCH  13  14
ENDBRANCH   8  13
ENDBRANCH   1  10
BRANCH   1  17
ATOM     17  C   UNL     1       2.785   6.977  18.518  0.00  0.00    +0.000 C 
ATOM     18  O   UNL     1       2.381   7.912  17.834  0.00  0.00    +0.000 OA
BRANCH  17  19
ATOM     19  OXT UNL     1       2.596   6.944  19.861  0.00  0.00    +0.000 OA
ATOM     20  HXT UNL     1       3.076   7.634  20.360  0.00  0.00    +0.000 HD
ENDBRANCH  17  19
ENDBRANCH   1  17
TORSDOF 7
ENDMDL
