MODEL 1
REMARK VINA RESULT:      -8.1      0.000      0.000
REMARK  Name = 
REMARK  4 active torsions:
REMARK  status: ('A' for Active; 'I' for Inactive)
REMARK    1  A    between atoms: C_2  and  O_3
REMARK    2  A    between atoms: C_2  and  C_4
REMARK    3  A    between atoms: N_12  and  C_13
REMARK    4  A    between atoms: C_13  and  C_14
REMARK                            x       y       z     vdW  Elec       q    Type
REMARK                         _______ _______ _______ _____ _____    ______ ____
ROOT
ATOM      1  C   UNL     1       6.035   4.358  18.261  0.00  0.00    +0.000 C 
ATOM      2  C   UNL     1       5.268   4.932  19.452  0.00  0.00    +0.000 C 
ATOM      3  C   UNL     1       3.924   4.269  19.255  0.00  0.00    +0.000 C 
ATOM      4  C   UNL     1       2.727   4.865  19.985  0.00  0.00    +0.000 C 
ATOM      5  C   UNL     1       1.436   4.167  19.525  0.00  0.00    +0.000 C 
ATOM      6  C   UNL     1       1.297   4.045  17.996  0.00  0.00    +0.000 C 
ATOM      7  C   UNL     1       2.575   3.531  17.308  0.00  0.00    +0.000 C 
ATOM      8  C   UNL     1       3.723   4.431  17.751  0.00  0.00    +0.000 C 
ATOM      9  N   UNL     1       5.057   4.279  17.115  0.00  0.00    +0.000 NA
ENDROOT
BRANCH   1  11
ATOM     10  O   UNL     1       7.659   6.167  18.181  0.00  0.00    +0.000 OA
ATOM     11  C   UNL     1       7.392   4.986  18.029  0.00  0.00    +0.000 C 
BRANCH  11  12
ATOM     12  O   UNL     1       8.346   4.082  17.689  0.00  0.00    +0.000 OA
ATOM     13  H   UNL     1       8.038   3.521  16.949  0.00  0.00    +0.000 HD
ENDBRANCH  11  12
ENDBRANCH   1  11
BRANCH   9  14
ATOM     14  C   UNL     1       5.197   5.214  15.961  0.00  0.00    +0.000 C 
BRANCH  14  15
ATOM     15  C   UNL     1       5.929   4.712  14.730  0.00  0.00    +0.000 A 
ATOM     16  C   UNL     1       7.176   5.241  14.362  0.00  0.00    +0.000 A 
ATOM     17  C   UNL     1       7.730   4.970  13.111  0.00  0.00    +0.000 A 
ATOM     18  C   UNL     1       7.074   4.113  12.241  0.00  0.00    +0.000 A 
ATOM     19  F   UNL     1       7.573   3.905  11.014  0.00  0.00    +0.000 F 
ATOM     20  C   UNL     1       5.907   3.478  12.637  0.00  0.00    +0.000 A 
ATOM     21  F   UNL     1       5.280   2.631  11.810  0.00  0.00    +0.000 F 
ATOM     22  C   UNL     1       5.347   3.753  13.882  0.00  0.00    +0.000 A 
ENDBRANCH  14  15
ENDBRANCH   9  14
TORSDOF 4
ENDMDL
MODEL 2
REMARK VINA RESULT:      -7.8      0.629      1.467
REMARK  Name = 
REMARK  4 active torsions:
REMARK  status: ('A' for Active; 'I' for Inactive)
REMARK    1  A    between atoms: C_2  and  O_3
REMARK    2  A    between atoms: C_2  and  C_4
REMARK    3  A    between atoms: N_12  and  C_13
REMARK    4  A    between atoms: C_13  and  C_14
REMARK                            x       y       z     vdW  Elec       q    Type
REMARK                         _______ _______ _______ _____ _____    ______ ____
ROOT
ATOM      1  C   UNL     1       6.024   4.267  18.246  0.00  0.00    +0.000 C 
ATOM      2  C   UNL     1       5.286   4.712  19.508  0.00  0.00    +0.000 C 
ATOM      3  C   UNL     1       3.934   4.077  19.270  0.00  0.00    +0.000 C 
ATOM      4  C   UNL     1       2.755   4.593  20.085  0.00  0.00    +0.000 C 
ATOM      5  C   UNL     1       1.452   3.950  19.581  0.00  0.00    +0.000 C 
ATOM      6  C   UNL     1       1.281   3.993  18.051  0.00  0.00    +0.000 C 
ATOM      7  C   UNL     1       2.542   3.553  17.285  0.00  0.00    +0.000 C 
ATOM      8  C   UNL     1       3.703   4.398  17.797  0.00  0.00    +0.000 C 
ATOM      9  N   UNL     1       5.023   4.314  17.120  0.00  0.00    +0.000 NA
ENDROOT
BRANCH   1  11
ATOM     10  O   UNL     1       7.730   5.977  18.541  0.00  0.00    +0.000 OA
ATOM     11  C   UNL     1       7.379   4.914  18.054  0.00  0.00    +0.000 C 
BRANCH  11  12
ATOM     12  O   UNL     1       8.233   4.154  17.321  0.00  0.00    +0.000 OA
ATOM     13  H   UNL     1       8.019   4.220  16.369  0.00  0.00    +0.000 HD
ENDBRANCH  11  12
ENDBRANCH   1  11
BRANCH   9  14
ATOM     14  C   UNL     1       5.142   5.366  16.070  0.00  0.00    +0.000 C 
BRANCH  14  15
ATOM     15  C   UNL     1       5.693   4.956  14.717  0.00  0.00    +0.000 A 
ATOM     16  C   UNL     1       5.049   3.981  13.937  0.00  0.00    +0.000 A 
ATOM     17  C   UNL     1       5.677   3.423  12.824  0.00  0.00    +0.000 A 
ATOM     18  C   UNL     1       6.928   3.881  12.440  0.00  0.00    +0.000 A 
ATOM     19  F   UNL     1       7.559   3.298  11.410  0.00  0.00    +0.000 F 
ATOM     20  C   UNL     1       7.523   4.933  13.119  0.00  0.00    +0.000 A 
ATOM     21  F   UNL     1       8.720   5.396  12.738  0.00  0.00    +0.000 F 
ATOM     22  C   UNL     1       6.903   5.487  14.235  0.00  0.00    +0.000 A 
ENDBRANCH  14  15
ENDBRANCH   9  14
TORSDOF 4
ENDMDL
MODEL 3
REMARK VINA RESULT:      -7.7      4.006      4.854
REMARK  Name = 
REMARK  4 active torsions:
REMARK  status: ('A' for Active; 'I' for Inactive)
REMARK    1  A    between atoms: C_2  and  O_3
REMARK    2  A    between atoms: C_2  and  C_4
REMARK    3  A    between atoms: N_12  and  C_13
REMARK    4  A    between atoms: C_13  and  C_14
REMARK                            x       y       z     vdW  Elec       q    Type
REMARK                         _______ _______ _______ _____ _____    ______ ____
ROOT
ATOM      1  C   UNL     1       2.957   3.352  18.887  0.00  0.00    +0.000 C 
ATOM      2  C   UNL     1       2.889   4.107  20.214  0.00  0.00    +0.000 C 
ATOM      3  C   UNL     1       2.207   5.380  19.768  0.00  0.00    +0.000 C 
ATOM      4  C   UNL     1       2.295   6.591  20.688  0.00  0.00    +0.000 C 
ATOM      5  C   UNL     1       1.696   7.822  19.988  0.00  0.00    +0.000 C 
ATOM      6  C   UNL     1       2.200   8.035  18.549  0.00  0.00    +0.000 C 
ATOM      7  C   UNL     1       2.178   6.750  17.700  0.00  0.00    +0.000 C 
ATOM      8  C   UNL     1       2.948   5.683  18.470  0.00  0.00    +0.000 C 
ATOM      9  N   UNL     1       3.239   4.380  17.819  0.00  0.00    +0.000 NA
ENDROOT
BRANCH   1  11
ATOM     10  O   UNL     1       3.625   1.112  18.214  0.00  0.00    +0.000 OA
ATOM     11  C   UNL     1       3.787   2.087  18.929  0.00  0.00    +0.000 C 
BRANCH  11  12
ATOM     12  O   UNL     1       4.812   2.152  19.818  0.00  0.00    +0.000 OA
ATOM     13  H   UNL     1       4.687   1.496  20.532  0.00  0.00    +0.000 HD
ENDBRANCH  11  12
ENDBRANCH   1  11
BRANCH   9  14
ATOM     14  C   UNL     1       4.576   4.409  17.160  0.00  0.00    +0.000 C 
BRANCH  14  15
ATOM     15  C   UNL     1       5.610   5.380  17.700  0.00  0.00    +0.000 A 
ATOM     16  C   UNL     1       5.913   6.570  17.018  0.00  0.00    +0.000 A 
ATOM     17  C   UNL     1       7.026   7.334  17.368  0.00  0.00    +0.000 A 
ATOM     18  C   UNL     1       7.809   6.952  18.447  0.00  0.00    +0.000 A 
ATOM     19  F   UNL     1       8.915   7.650  18.742  0.00  0.00    +0.000 F 
ATOM     20  C   UNL     1       7.450   5.855  19.213  0.00  0.00    +0.000 A 
ATOM     21  F   UNL     1       8.189   5.494  20.271  0.00  0.00    +0.000 F 
ATOM     22  C   UNL     1       6.345   5.084  18.862  0.00  0.00    +0.000 A 
ENDBRANCH  14  15
ENDBRANCH   9  14
TORSDOF 4
ENDMDL
MODEL 4
REMARK VINA RESULT:      -7.6      4.689      6.511
REMARK  Name = 
REMARK  4 active torsions:
REMARK  status: ('A' for Active; 'I' for Inactive)
REMARK    1  A    between atoms: C_2  and  O_3
REMARK    2  A    between atoms: C_2  and  C_4
REMARK    3  A    between atoms: N_12  and  C_13
REMARK    4  A    between atoms: C_13  and  C_14
REMARK                            x       y       z     vdW  Elec       q    Type
REMARK                         _______ _______ _______ _____ _____    ______ ____
ROOT
ATOM      1  C   UNL     1       4.494   4.955  16.544  0.00  0.00    +0.000 C 
ATOM      2  C   UNL     1       4.813   3.566  17.097  0.00  0.00    +0.000 C 
ATOM      3  C   UNL     1       3.427   3.103  17.484  0.00  0.00    +0.000 C 
ATOM      4  C   UNL     1       3.316   1.928  18.447  0.00  0.00    +0.000 C 
ATOM      5  C   UNL     1       1.846   1.721  18.850  0.00  0.00    +0.000 C 
ATOM      6  C   UNL     1       1.125   3.013  19.280  0.00  0.00    +0.000 C 
ATOM      7  C   UNL     1       1.359   4.190  18.316  0.00  0.00    +0.000 C 
ATOM      8  C   UNL     1       2.866   4.353  18.154  0.00  0.00    +0.000 C 
ATOM      9  N   UNL     1       3.398   5.523  17.409  0.00  0.00    +0.000 NA
ENDROOT
BRANCH   1  11
ATOM     10  O   UNL     1       6.810   5.668  16.760  0.00  0.00    +0.000 OA
ATOM     11  C   UNL     1       5.712   5.803  16.246  0.00  0.00    +0.000 C 
BRANCH  11  12
ATOM     12  O   UNL     1       5.494   6.722  15.270  0.00  0.00    +0.000 OA
ATOM     13  H   UNL     1       5.425   6.285  14.397  0.00  0.00    +0.000 HD
ENDBRANCH  11  12
ENDBRANCH   1  11
BRANCH   9  14
ATOM     14  C   UNL     1       3.702   6.645  18.343  0.00  0.00    +0.000 C 
BRANCH  14  15
ATOM     15  C   UNL     1       2.571   7.590  18.705  0.00  0.00    +0.000 A 
ATOM     16  C   UNL     1       2.088   8.530  17.781  0.00  0.00    +0.000 A 
ATOM     17  C   UNL     1       1.235   9.558  18.182  0.00  0.00    +0.000 A 
ATOM     18  C   UNL     1       0.802   9.616  19.498  0.00  0.00    +0.000 A 
ATOM     19  F   UNL     1       0.034  10.641  19.897  0.00  0.00    +0.000 F 
ATOM     20  C   UNL     1       1.162   8.622  20.394  0.00  0.00    +0.000 A 
ATOM     21  F   UNL     1       0.729   8.661  21.660  0.00  0.00    +0.000 F 
ATOM     22  C   UNL     1       2.022   7.600  20.000  0.00  0.00    +0.000 A 
ENDBRANCH  14  15
ENDBRANCH   9  14
TORSDOF 4
ENDMDL
MODEL 5
REMARK VINA RESULT:      -7.6      2.345      3.094
REMARK  Name = 
REMARK  4 active torsions:
REMARK  status: ('A' for Active; 'I' for Inactive)
REMARK    1  A    between atoms: C_2  and  O_3
REMARK    2  A    between atoms: C_2  and  C_4
REMARK    3  A    between atoms: N_12  and  C_13
REMARK    4  A    between atoms: C_13  and  C_14
REMARK                            x       y       z     vdW  Elec       q    Type
REMARK                         _______ _______ _______ _____ _____    ______ ____
ROOT
ATOM      1  C   UNL     1       3.261   3.348  19.304  0.00  0.00    +0.000 C 
ATOM      2  C   UNL     1       2.675   3.988  20.562  0.00  0.00    +0.000 C 
ATOM      3  C   UNL     1       2.086   5.251  19.975  0.00  0.00    +0.000 C 
ATOM      4  C   UNL     1       1.750   6.387  20.933  0.00  0.00    +0.000 C 
ATOM      5  C   UNL     1       1.330   7.633  20.136  0.00  0.00    +0.000 C 
ATOM      6  C   UNL     1       2.283   7.990  18.979  0.00  0.00    +0.000 C 
ATOM      7  C   UNL     1       2.662   6.778  18.108  0.00  0.00    +0.000 C 
ATOM      8  C   UNL     1       3.204   5.700  19.040  0.00  0.00    +0.000 C 
ATOM      9  N   UNL     1       3.809   4.472  18.462  0.00  0.00    +0.000 NA
ENDROOT
BRANCH   1  11
ATOM     10  O   UNL     1       4.808   1.954  20.562  0.00  0.00    +0.000 OA
ATOM     11  C   UNL     1       4.126   2.134  19.566  0.00  0.00    +0.000 C 
BRANCH  11  12
ATOM     12  O   UNL     1       4.028   1.190  18.594  0.00  0.00    +0.000 OA
ATOM     13  H   UNL     1       3.614   0.377  18.947  0.00  0.00    +0.000 HD
ENDBRANCH  11  12
ENDBRANCH   1  11
BRANCH   9  14
ATOM     14  C   UNL     1       5.284   4.633  18.317  0.00  0.00    +0.000 C 
BRANCH  14  15
ATOM     15  C   UNL     1       5.873   4.526  16.922  0.00  0.00    +0.000 A 
ATOM     16  C   UNL     1       7.213   4.865  16.673  0.00  0.00    +0.000 A 
ATOM     17  C   UNL     1       7.686   5.011  15.369  0.00  0.00    +0.000 A 
ATOM     18  C   UNL     1       6.841   4.754  14.300  0.00  0.00    +0.000 A 
ATOM     19  F   UNL     1       7.277   4.958  13.048  0.00  0.00    +0.000 F 
ATOM     20  C   UNL     1       5.554   4.291  14.525  0.00  0.00    +0.000 A 
ATOM     21  F   UNL     1       4.741   4.019  13.496  0.00  0.00    +0.000 F 
ATOM     22  C   UNL     1       5.076   4.153  15.825  0.00  0.00    +0.000 A 
ENDBRANCH  14  15
ENDBRANCH   9  14
TORSDOF 4
ENDMDL
MODEL 6
REMARK VINA RESULT:      -7.3      2.894      3.878
REMARK  Name = 
REMARK  4 active torsions:
REMARK  status: ('A' for Active; 'I' for Inactive)
REMARK    1  A    between atoms: C_2  and  O_3
REMARK    2  A    between atoms: C_2  and  C_4
REMARK    3  A    between atoms: N_12  and  C_13
REMARK    4  A    between atoms: C_13  and  C_14
REMARK                            x       y       z     vdW  Elec       q    Type
REMARK                         _______ _______ _______ _____ _____    ______ ____
ROOT
ATOM      1  C   UNL     1       2.538   3.999  20.061  0.00  0.00    +0.000 C 
ATOM      2  C   UNL     1       2.014   5.103  20.980  0.00  0.00    +0.000 C 
ATOM      3  C   UNL     1       1.776   6.204  19.972  0.00  0.00    +0.000 C 
ATOM      4  C   UNL     1       1.631   7.627  20.499  0.00  0.00    +0.000 C 
ATOM      5  C   UNL     1       1.569   8.614  19.322  0.00  0.00    +0.000 C 
ATOM      6  C   UNL     1       2.666   8.399  18.263  0.00  0.00    +0.000 C 
ATOM      7  C   UNL     1       2.829   6.926  17.846  0.00  0.00    +0.000 C 
ATOM      8  C   UNL     1       3.037   6.113  19.119  0.00  0.00    +0.000 C 
ATOM      9  N   UNL     1       3.391   4.674  19.018  0.00  0.00    +0.000 NA
ENDROOT
BRANCH   1  11
ATOM     10  O   UNL     1       3.870   1.981  20.323  0.00  0.00    +0.000 OA
ATOM     11  C   UNL     1       3.082   2.788  20.787  0.00  0.00    +0.000 C 
BRANCH  11  12
ATOM     12  O   UNL     1       2.656   2.703  22.074  0.00  0.00    +0.000 OA
ATOM     13  H   UNL     1       1.993   1.990  22.169  0.00  0.00    +0.000 HD
ENDBRANCH  11  12
ENDBRANCH   1  11
BRANCH   9  14
ATOM     14  C   UNL     1       4.872   4.496  19.048  0.00  0.00    +0.000 C 
BRANCH  14  15
ATOM     15  C   UNL     1       5.602   4.424  17.719  0.00  0.00    +0.000 A 
ATOM     16  C   UNL     1       6.974   4.712  17.630  0.00  0.00    +0.000 A 
ATOM     17  C   UNL     1       7.590   4.894  16.392  0.00  0.00    +0.000 A 
ATOM     18  C   UNL     1       6.856   4.724  15.229  0.00  0.00    +0.000 A 
ATOM     19  F   UNL     1       7.432   4.963  14.041  0.00  0.00    +0.000 F 
ATOM     20  C   UNL     1       5.534   4.311  15.294  0.00  0.00    +0.000 A 
ATOM     21  F   UNL     1       4.826   4.122  14.173  0.00  0.00    +0.000 F 
ATOM     22  C   UNL     1       4.913   4.137  16.528  0.00  0.00    +0.000 A 
ENDBRANCH  14  15
ENDBRANCH   9  14
TORSDOF 4
ENDMDL
MODEL 7
REMARK VINA RESULT:      -7.2      3.956      5.950
REMARK  Name = 
REMARK  4 active torsions:
REMARK  status: ('A' for Active; 'I' for Inactive)
REMARK    1  A    between atoms: C_2  and  O_3
REMARK    2  A    between atoms: C_2  and  C_4
REMARK    3  A    between atoms: N_12  and  C_13
REMARK    4  A    between atoms: C_13  and  C_14
REMARK                            x       y       z     vdW  Elec       q    Type
REMARK                         _______ _______ _______ _____ _____    ______ ____
ROOT
ATOM      1  C   UNL     1       5.894   5.743  16.648  0.00  0.00    +0.000 C 
ATOM      2  C   UNL     1       4.907   6.765  16.086  0.00  0.00    +0.000 C 
ATOM      3  C   UNL     1       4.233   7.221  17.361  0.00  0.00    +0.000 C 
ATOM      4  C   UNL     1       2.900   7.948  17.237  0.00  0.00    +0.000 C 
ATOM      5  C   UNL     1       2.297   8.173  18.633  0.00  0.00    +0.000 C 
ATOM      6  C   UNL     1       2.298   6.919  19.528  0.00  0.00    +0.000 C 
ATOM      7  C   UNL     1       3.646   6.174  19.531  0.00  0.00    +0.000 C 
ATOM      8  C   UNL     1       4.014   5.893  18.079  0.00  0.00    +0.000 C 
ATOM      9  N   UNL     1       5.188   5.035  17.776  0.00  0.00    +0.000 NA
ENDROOT
BRANCH   1  11
ATOM     10  O   UNL     1       6.186   4.685  14.477  0.00  0.00    +0.000 OA
ATOM     11  C   UNL     1       6.609   4.922  15.596  0.00  0.00    +0.000 C 
BRANCH  11  12
ATOM     12  O   UNL     1       7.841   4.509  15.990  0.00  0.00    +0.000 OA
ATOM     13  H   UNL     1       8.532   5.101  15.631  0.00  0.00    +0.000 HD
ENDBRANCH  11  12
ENDBRANCH   1  11
BRANCH   9  14
ATOM     14  C   UNL     1       4.768   3.614  17.607  0.00  0.00    +0.000 C 
BRANCH  14  15
ATOM     15  C   UNL     1       3.632   3.104  18.475  0.00  0.00    +0.000 A 
ATOM     16  C   UNL     1       2.326   2.996  17.971  0.00  0.00    +0.000 A 
ATOM     17  C   UNL     1       1.244   2.773  18.822  0.00  0.00    +0.000 A 
ATOM     18  C   UNL     1       1.465   2.588  20.178  0.00  0.00    +0.000 A 
ATOM     19  F   UNL     1       0.419   2.439  21.005  0.00  0.00    +0.000 F 
ATOM     20  C   UNL     1       2.758   2.560  20.676  0.00  0.00    +0.000 A 
ATOM     21  F   UNL     1       2.979   2.359  21.981  0.00  0.00    +0.000 F 
ATOM     22  C   UNL     1       3.840   2.791  19.831  0.00  0.00    +0.000 A 
ENDBRANCH  14  15
ENDBRANCH   9  14
TORSDOF 4
ENDMDL
MODEL 8
REMARK VINA RESULT:      -7.2      5.158      7.558
REMARK  Name = 
REMARK  4 active torsions:
REMARK  status: ('A' for Active; 'I' for Inactive)
REMARK    1  A    between atoms: C_2  and  O_3
REMARK    2  A    between atoms: C_2  and  C_4
REMARK    3  A    between atoms: N_12  and  C_13
REMARK    4  A    between atoms: C_13  and  C_14
REMARK                            x       y       z     vdW  Elec       q    Type
REMARK                         _______ _______ _______ _____ _____    ______ ____
ROOT
ATOM      1  C   UNL     1       3.097   4.326  18.371  0.00  0.00    +0.000 C 
ATOM      2  C   UNL     1       3.768   3.526  17.255  0.00  0.00    +0.000 C 
ATOM      3  C   UNL     1       5.151   4.135  17.278  0.00  0.00    +0.000 C 
ATOM      4  C   UNL     1       6.041   3.919  16.060  0.00  0.00    +0.000 C 
ATOM      5  C   UNL     1       7.326   4.751  16.198  0.00  0.00    +0.000 C 
ATOM      6  C   UNL     1       7.084   6.218  16.601  0.00  0.00    +0.000 C 
ATOM      7  C   UNL     1       6.099   6.373  17.774  0.00  0.00    +0.000 C 
ATOM      8  C   UNL     1       4.827   5.620  17.402  0.00  0.00    +0.000 C 
ATOM      9  N   UNL     1       3.629   5.733  18.274  0.00  0.00    +0.000 NA
ENDROOT
BRANCH   1  11
ATOM     10  O   UNL     1       0.970   4.083  19.527  0.00  0.00    +0.000 OA
ATOM     11  C   UNL     1       1.604   4.109  18.485  0.00  0.00    +0.000 C 
BRANCH  11  12
ATOM     12  O   UNL     1       0.987   4.008  17.278  0.00  0.00    +0.000 OA
ATOM     13  H   UNL     1       1.546   4.395  16.575  0.00  0.00    +0.000 HD
ENDBRANCH  11  12
ENDBRANCH   1  11
BRANCH   9  14
ATOM     14  C   UNL     1       2.735   6.828  17.798  0.00  0.00    +0.000 C 
BRANCH  14  15
ATOM     15  C   UNL     1       2.162   7.775  18.837  0.00  0.00    +0.000 A 
ATOM     16  C   UNL     1       2.038   7.386  20.181  0.00  0.00    +0.000 A 
ATOM     17  C   UNL     1       1.289   8.144  21.081  0.00  0.00    +0.000 A 
ATOM     18  C   UNL     1       0.714   9.335  20.663  0.00  0.00    +0.000 A 
ATOM     19  F   UNL     1      -0.060  10.030  21.510  0.00  0.00    +0.000 F 
ATOM     20  C   UNL     1       0.935   9.801  19.376  0.00  0.00    +0.000 A 
ATOM     21  F   UNL     1       0.401  10.961  18.973  0.00  0.00    +0.000 F 
ATOM     22  C   UNL     1       1.674   9.042  18.473  0.00  0.00    +0.000 A 
ENDBRANCH  14  15
ENDBRANCH   9  14
TORSDOF 4
ENDMDL
MODEL 9
REMARK VINA RESULT:      -7.1      3.368      4.462
REMARK  Name = 
REMARK  4 active torsions:
REMARK  status: ('A' for Active; 'I' for Inactive)
REMARK    1  A    between atoms: C_2  and  O_3
REMARK    2  A    between atoms: C_2  and  C_4
REMARK    3  A    between atoms: N_12  and  C_13
REMARK    4  A    between atoms: C_13  and  C_14
REMARK                            x       y       z     vdW  Elec       q    Type
REMARK                         _______ _______ _______ _____ _____    ______ ____
ROOT
ATOM      1  C   UNL     1       1.931   4.165  20.092  0.00  0.00    +0.000 C 
ATOM      2  C   UNL     1       1.652   5.345  21.023  0.00  0.00    +0.000 C 
ATOM      3  C   UNL     1       1.506   6.459  20.012  0.00  0.00    +0.000 C 
ATOM      4  C   UNL     1       1.619   7.893  20.516  0.00  0.00    +0.000 C 
ATOM      5  C   UNL     1       1.617   8.866  19.326  0.00  0.00    +0.000 C 
ATOM      6  C   UNL     1       2.584   8.475  18.193  0.00  0.00    +0.000 C 
ATOM      7  C   UNL     1       2.490   6.990  17.798  0.00  0.00    +0.000 C 
ATOM      8  C   UNL     1       2.670   6.169  19.070  0.00  0.00    +0.000 C 
ATOM      9  N   UNL     1       2.794   4.691  18.974  0.00  0.00    +0.000 NA
ENDROOT
BRANCH   1  11
ATOM     10  O   UNL     1       2.681   2.814  21.971  0.00  0.00    +0.000 OA
ATOM     11  C   UNL     1       2.340   2.892  20.802  0.00  0.00    +0.000 C 
BRANCH  11  12
ATOM     12  O   UNL     1       2.228   1.787  20.020  0.00  0.00    +0.000 OA
ATOM     13  H   UNL     1       1.930   2.032  19.122  0.00  0.00    +0.000 HD
ENDBRANCH  11  12
ENDBRANCH   1  11
BRANCH   9  14
ATOM     14  C   UNL     1       4.228   4.290  18.897  0.00  0.00    +0.000 C 
BRANCH  14  15
ATOM     15  C   UNL     1       5.001   4.660  17.645  0.00  0.00    +0.000 A 
ATOM     16  C   UNL     1       4.814   3.958  16.443  0.00  0.00    +0.000 A 
ATOM     17  C   UNL     1       5.690   4.123  15.371  0.00  0.00    +0.000 A 
ATOM     18  C   UNL     1       6.723   5.044  15.464  0.00  0.00    +0.000 A 
ATOM     19  F   UNL     1       7.603   5.155  14.459  0.00  0.00    +0.000 F 
ATOM     20  C   UNL     1       6.844   5.841  16.592  0.00  0.00    +0.000 A 
ATOM     21  F   UNL     1       7.826   6.748  16.679  0.00  0.00    +0.000 F 
ATOM     22  C   UNL     1       5.977   5.672  17.668  0.00  0.00    +0.000 A 
ENDBRANCH  14  15
ENDBRANCH   9  14
TORSDOF 4
ENDMDL
