MODEL 1
REMARK VINA RESULT:      -8.0      0.000      0.000
REMARK  Name = 
REMARK  5 active torsions:
REMARK  status: ('A' for Active; 'I' for Inactive)
REMARK    1  A    between atoms: N_1  and  C_2
REMARK    2  A    between atoms: C_2  and  C_3
REMARK    3  A    between atoms: C_3  and  N_4
REMARK    4  A    between atoms: C_6  and  S_7
REMARK    5  A    between atoms: S_7  and  C_10
REMARK                            x       y       z     vdW  Elec       q    Type
REMARK                         _______ _______ _______ _____ _____    ______ ____
ROOT
ATOM      1  N   UNL     1       3.350   6.505  17.679  0.00  0.00    +0.000 N 
ATOM      2  C   UNL     1       4.604   6.755  17.195  0.00  0.00    +0.000 A 
ATOM      3  C   UNL     1       5.255   5.547  17.029  0.00  0.00    +0.000 A 
ATOM      4  C   UNL     1       4.349   4.511  17.427  0.00  0.00    +0.000 A 
ATOM      5  C   UNL     1       4.404   3.102  17.518  0.00  0.00    +0.000 A 
ATOM      6  C   UNL     1       3.274   2.371  17.909  0.00  0.00    +0.000 A 
ATOM      7  C   UNL     1       2.095   3.029  18.224  0.00  0.00    +0.000 A 
ATOM      8 CL   UNL     1       0.702   2.113  18.673  0.00  0.00    +0.000 Cl
ATOM      9  C   UNL     1       2.010   4.421  18.193  0.00  0.00    +0.000 A 
ATOM     10  C   UNL     1       3.151   5.146  17.792  0.00  0.00    +0.000 A 
ENDROOT
BRANCH   3  11
ATOM     11  S   UNL     1       6.880   5.382  16.431  0.00  0.00    +0.000 S 
ATOM     12  O   UNL     1       7.420   6.724  16.442  0.00  0.00    +0.000 OA
ATOM     13  O   UNL     1       7.466   4.311  17.207  0.00  0.00    +0.000 OA
BRANCH  11  14
ATOM     14  C   UNL     1       6.744   4.863  14.738  0.00  0.00    +0.000 A 
ATOM     15  C   UNL     1       5.726   3.980  14.362  0.00  0.00    +0.000 A 
ATOM     16  C   UNL     1       5.684   3.496  13.052  0.00  0.00    +0.000 A 
ATOM     17  C   UNL     1       6.630   3.924  12.118  0.00  0.00    +0.000 A 
ATOM     18  C   UNL     1       7.596   4.864  12.480  0.00  0.00    +0.000 A 
ATOM     19  C   UNL     1       7.655   5.338  13.791  0.00  0.00    +0.000 A 
ENDBRANCH  11  14
ENDBRANCH   3  11
BRANCH   1  20
ATOM     20  C   UNL     1       2.373   7.543  17.995  0.00  0.00    +0.000 C 
BRANCH  20  21
ATOM     21  C   UNL     1       2.905   8.957  17.732  0.00  0.00    +0.000 C 
BRANCH  21  22
ATOM     22  N   UNL     1       1.813   9.912  17.533  0.00  0.00    +0.000 NA
ATOM     23  H   UNL     1       1.780  10.558  18.325  0.00  0.00    +0.000 HD
ATOM     24  H   UNL     1       0.916   9.426  17.537  0.00  0.00    +0.000 HD
ENDBRANCH  21  22
ENDBRANCH  20  21
ENDBRANCH   1  20
TORSDOF 5
ENDMDL
MODEL 2
REMARK VINA RESULT:      -7.7      3.685      6.503
REMARK  Name = 
REMARK  5 active torsions:
REMARK  status: ('A' for Active; 'I' for Inactive)
REMARK    1  A    between atoms: N_1  and  C_2
REMARK    2  A    between atoms: C_2  and  C_3
REMARK    3  A    between atoms: C_3  and  N_4
REMARK    4  A    between atoms: C_6  and  S_7
REMARK    5  A    between atoms: S_7  and  C_10
REMARK                            x       y       z     vdW  Elec       q    Type
REMARK                         _______ _______ _______ _____ _____    ______ ____
ROOT
ATOM      1  N   UNL     1       6.106   5.371  17.726  0.00  0.00    +0.000 N 
ATOM      2  C   UNL     1       5.101   4.635  18.290  0.00  0.00    +0.000 A 
ATOM      3  C   UNL     1       4.552   3.827  17.313  0.00  0.00    +0.000 A 
ATOM      4  C   UNL     1       5.261   4.081  16.095  0.00  0.00    +0.000 A 
ATOM      5  C   UNL     1       5.180   3.615  14.763  0.00  0.00    +0.000 A 
ATOM      6  C   UNL     1       6.102   4.049  13.801  0.00  0.00    +0.000 A 
ATOM      7  C   UNL     1       7.095   4.954  14.147  0.00  0.00    +0.000 A 
ATOM      8 CL   UNL     1       8.243   5.455  12.960  0.00  0.00    +0.000 Cl
ATOM      9  C   UNL     1       7.184   5.475  15.439  0.00  0.00    +0.000 A 
ATOM     10  C   UNL     1       6.254   5.026  16.400  0.00  0.00    +0.000 A 
ENDROOT
BRANCH   3  11
ATOM     11  S   UNL     1       3.240   2.716  17.581  0.00  0.00    +0.000 S 
ATOM     12  O   UNL     1       2.218   3.112  16.637  0.00  0.00    +0.000 OA
ATOM     13  O   UNL     1       3.843   1.401  17.555  0.00  0.00    +0.000 OA
BRANCH  11  14
ATOM     14  C   UNL     1       2.630   3.042  19.215  0.00  0.00    +0.000 A 
ATOM     15  C   UNL     1       3.246   2.446  20.320  0.00  0.00    +0.000 A 
ATOM     16  C   UNL     1       2.700   2.625  21.593  0.00  0.00    +0.000 A 
ATOM     17  C   UNL     1       1.570   3.427  21.763  0.00  0.00    +0.000 A 
ATOM     18  C   UNL     1       1.005   4.082  20.667  0.00  0.00    +0.000 A 
ATOM     19  C   UNL     1       1.534   3.894  19.390  0.00  0.00    +0.000 A 
ENDBRANCH  11  14
ENDBRANCH   3  11
BRANCH   1  20
ATOM     20  C   UNL     1       6.908   6.352  18.451  0.00  0.00    +0.000 C 
BRANCH  20  21
ATOM     21  C   UNL     1       8.163   5.740  19.085  0.00  0.00    +0.000 C 
BRANCH  21  22
ATOM     22  N   UNL     1       7.940   5.396  20.491  0.00  0.00    +0.000 NA
ATOM     23  H   UNL     1       8.658   4.735  20.795  0.00  0.00    +0.000 HD
ATOM     24  H   UNL     1       7.052   4.906  20.597  0.00  0.00    +0.000 HD
ENDBRANCH  21  22
ENDBRANCH  20  21
ENDBRANCH   1  20
TORSDOF 5
ENDMDL
MODEL 3
REMARK VINA RESULT:      -7.6      3.715      6.515
REMARK  Name = 
REMARK  5 active torsions:
REMARK  status: ('A' for Active; 'I' for Inactive)
REMARK    1  A    between atoms: N_1  and  C_2
REMARK    2  A    between atoms: C_2  and  C_3
REMARK    3  A    between atoms: C_3  and  N_4
REMARK    4  A    between atoms: C_6  and  S_7
REMARK    5  A    between atoms: S_7  and  C_10
REMARK                            x       y       z     vdW  Elec       q    Type
REMARK                         _______ _______ _______ _____ _____    ______ ____
ROOT
ATOM      1  N   UNL     1       6.166   5.236  17.784  0.00  0.00    +0.000 N 
ATOM      2  C   UNL     1       5.153   4.502  18.337  0.00  0.00    +0.000 A 
ATOM      3  C   UNL     1       4.567   3.749  17.337  0.00  0.00    +0.000 A 
ATOM      4  C   UNL     1       5.260   4.036  16.118  0.00  0.00    +0.000 A 
ATOM      5  C   UNL     1       5.144   3.628  14.769  0.00  0.00    +0.000 A 
ATOM      6  C   UNL     1       6.059   4.080  13.809  0.00  0.00    +0.000 A 
ATOM      7  C   UNL     1       7.079   4.946  14.173  0.00  0.00    +0.000 A 
ATOM      8 CL   UNL     1       8.218   5.469  12.986  0.00  0.00    +0.000 Cl
ATOM      9  C   UNL     1       7.205   5.410  15.483  0.00  0.00    +0.000 A 
ATOM     10  C   UNL     1       6.282   4.944  16.443  0.00  0.00    +0.000 A 
ENDROOT
BRANCH   3  11
ATOM     11  S   UNL     1       3.233   2.659  17.584  0.00  0.00    +0.000 S 
ATOM     12  O   UNL     1       2.243   3.055  16.605  0.00  0.00    +0.000 OA
ATOM     13  O   UNL     1       3.818   1.337  17.595  0.00  0.00    +0.000 OA
BRANCH  11  14
ATOM     14  C   UNL     1       2.581   3.018  19.196  0.00  0.00    +0.000 A 
ATOM     15  C   UNL     1       1.578   3.982  19.342  0.00  0.00    +0.000 A 
ATOM     16  C   UNL     1       1.141   4.332  20.622  0.00  0.00    +0.000 A 
ATOM     17  C   UNL     1       1.676   3.694  21.742  0.00  0.00    +0.000 A 
ATOM     18  C   UNL     1       2.621   2.679  21.586  0.00  0.00    +0.000 A 
ATOM     19  C   UNL     1       3.075   2.336  20.312  0.00  0.00    +0.000 A 
ENDBRANCH  11  14
ENDBRANCH   3  11
BRANCH   1  20
ATOM     20  C   UNL     1       7.005   6.167  18.534  0.00  0.00    +0.000 C 
BRANCH  20  21
ATOM     21  C   UNL     1       8.216   5.484  19.181  0.00  0.00    +0.000 C 
BRANCH  21  22
ATOM     22  N   UNL     1       8.093   5.445  20.640  0.00  0.00    +0.000 NA
ATOM     23  H   UNL     1       8.715   4.723  21.011  0.00  0.00    +0.000 HD
ATOM     24  H   UNL     1       7.151   5.159  20.906  0.00  0.00    +0.000 HD
ENDBRANCH  21  22
ENDBRANCH  20  21
ENDBRANCH   1  20
TORSDOF 5
ENDMDL
MODEL 4
REMARK VINA RESULT:      -7.5      0.326      1.079
REMARK  Name = 
REMARK  5 active torsions:
REMARK  status: ('A' for Active; 'I' for Inactive)
REMARK    1  A    between atoms: N_1  and  C_2
REMARK    2  A    between atoms: C_2  and  C_3
REMARK    3  A    between atoms: C_3  and  N_4
REMARK    4  A    between atoms: C_6  and  S_7
REMARK    5  A    between atoms: S_7  and  C_10
REMARK                            x       y       z     vdW  Elec       q    Type
REMARK                         _______ _______ _______ _____ _____    ______ ____
ROOT
ATOM      1  N   UNL     1       3.515   6.619  18.011  0.00  0.00    +0.000 N 
ATOM      2  C   UNL     1       4.765   6.837  17.501  0.00  0.00    +0.000 A 
ATOM      3  C   UNL     1       5.326   5.613  17.187  0.00  0.00    +0.000 A 
ATOM      4  C   UNL     1       4.367   4.602  17.518  0.00  0.00    +0.000 A 
ATOM      5  C   UNL     1       4.330   3.190  17.465  0.00  0.00    +0.000 A 
ATOM      6  C   UNL     1       3.168   2.496  17.829  0.00  0.00    +0.000 A 
ATOM      7  C   UNL     1       2.048   3.192  18.259  0.00  0.00    +0.000 A 
ATOM      8 CL   UNL     1       0.613   2.326  18.674  0.00  0.00    +0.000 Cl
ATOM      9  C   UNL     1       2.056   4.583  18.371  0.00  0.00    +0.000 A 
ATOM     10  C   UNL     1       3.229   5.271  17.996  0.00  0.00    +0.000 A 
ENDROOT
BRANCH   3  11
ATOM     11  S   UNL     1       6.914   5.407  16.506  0.00  0.00    +0.000 S 
ATOM     12  O   UNL     1       7.454   6.746  16.409  0.00  0.00    +0.000 OA
ATOM     13  O   UNL     1       7.542   4.379  17.307  0.00  0.00    +0.000 OA
BRANCH  11  14
ATOM     14  C   UNL     1       6.678   4.793  14.857  0.00  0.00    +0.000 A 
ATOM     15  C   UNL     1       7.617   5.089  13.863  0.00  0.00    +0.000 A 
ATOM     16  C   UNL     1       7.376   4.689  12.547  0.00  0.00    +0.000 A 
ATOM     17  C   UNL     1       6.223   3.966  12.236  0.00  0.00    +0.000 A 
ATOM     18  C   UNL     1       5.327   3.608  13.244  0.00  0.00    +0.000 A 
ATOM     19  C   UNL     1       5.553   4.018  14.559  0.00  0.00    +0.000 A 
ENDBRANCH  11  14
ENDBRANCH   3  11
BRANCH   1  20
ATOM     20  C   UNL     1       2.624   7.680  18.471  0.00  0.00    +0.000 C 
BRANCH  20  21
ATOM     21  C   UNL     1       2.265   8.676  17.362  0.00  0.00    +0.000 C 
BRANCH  21  22
ATOM     22  N   UNL     1       1.620   9.873  17.905  0.00  0.00    +0.000 NA
ATOM     23  H   UNL     1       1.244  10.432  17.136  0.00  0.00    +0.000 HD
ATOM     24  H   UNL     1       2.311  10.467  18.364  0.00  0.00    +0.000 HD
ENDBRANCH  21  22
ENDBRANCH  20  21
ENDBRANCH   1  20
TORSDOF 5
ENDMDL
MODEL 5
REMARK VINA RESULT:      -7.5      2.174      3.573
REMARK  Name = 
REMARK  5 active torsions:
REMARK  status: ('A' for Active; 'I' for Inactive)
REMARK    1  A    between atoms: N_1  and  C_2
REMARK    2  A    between atoms: C_2  and  C_3
REMARK    3  A    between atoms: C_3  and  N_4
REMARK    4  A    between atoms: C_6  and  S_7
REMARK    5  A    between atoms: S_7  and  C_10
REMARK                            x       y       z     vdW  Elec       q    Type
REMARK                         _______ _______ _______ _____ _____    ______ ____
ROOT
ATOM      1  N   UNL     1       4.184   4.337  18.866  0.00  0.00    +0.000 N 
ATOM      2  C   UNL     1       5.373   4.050  18.255  0.00  0.00    +0.000 A 
ATOM      3  C   UNL     1       5.733   5.133  17.475  0.00  0.00    +0.000 A 
ATOM      4  C   UNL     1       4.715   6.129  17.623  0.00  0.00    +0.000 A 
ATOM      5  C   UNL     1       4.478   7.418  17.092  0.00  0.00    +0.000 A 
ATOM      6  C   UNL     1       3.369   8.165  17.511  0.00  0.00    +0.000 A 
ATOM      7  C   UNL     1       2.485   7.638  18.441  0.00  0.00    +0.000 A 
ATOM      8 CL   UNL     1       1.141   8.582  18.971  0.00  0.00    +0.000 Cl
ATOM      9  C   UNL     1       2.656   6.352  18.956  0.00  0.00    +0.000 A 
ATOM     10  C   UNL     1       3.778   5.611  18.532  0.00  0.00    +0.000 A 
ENDROOT
BRANCH   3  11
ATOM     11  S   UNL     1       7.182   5.212  16.515  0.00  0.00    +0.000 S 
ATOM     12  O   UNL     1       7.527   6.617  16.476  0.00  0.00    +0.000 OA
ATOM     13  O   UNL     1       8.069   4.218  17.080  0.00  0.00    +0.000 OA
BRANCH  11  14
ATOM     14  C   UNL     1       6.726   4.716  14.873  0.00  0.00    +0.000 A 
ATOM     15  C   UNL     1       5.519   4.043  14.659  0.00  0.00    +0.000 A 
ATOM     16  C   UNL     1       5.213   3.566  13.382  0.00  0.00    +0.000 A 
ATOM     17  C   UNL     1       6.090   3.796  12.322  0.00  0.00    +0.000 A 
ATOM     18  C   UNL     1       7.257   4.534  12.525  0.00  0.00    +0.000 A 
ATOM     19  C   UNL     1       7.579   4.999  13.801  0.00  0.00    +0.000 A 
ENDBRANCH  11  14
ENDBRANCH   3  11
BRANCH   1  20
ATOM     20  C   UNL     1       3.481   3.420  19.758  0.00  0.00    +0.000 C 
BRANCH  20  21
ATOM     21  C   UNL     1       2.394   2.610  19.041  0.00  0.00    +0.000 C 
BRANCH  21  22
ATOM     22  N   UNL     1       2.951   1.415  18.402  0.00  0.00    +0.000 NA
ATOM     23  H   UNL     1       2.213   0.935  17.883  0.00  0.00    +0.000 HD
ATOM     24  H   UNL     1       3.264   0.751  19.111  0.00  0.00    +0.000 HD
ENDBRANCH  21  22
ENDBRANCH  20  21
ENDBRANCH   1  20
TORSDOF 5
ENDMDL
MODEL 6
REMARK VINA RESULT:      -7.2      2.214      3.757
REMARK  Name = 
REMARK  5 active torsions:
REMARK  status: ('A' for Active; 'I' for Inactive)
REMARK    1  A    between atoms: N_1  and  C_2
REMARK    2  A    between atoms: C_2  and  C_3
REMARK    3  A    between atoms: C_3  and  N_4
REMARK    4  A    between atoms: C_6  and  S_7
REMARK    5  A    between atoms: S_7  and  C_10
REMARK                            x       y       z     vdW  Elec       q    Type
REMARK                         _______ _______ _______ _____ _____    ______ ____
ROOT
ATOM      1  N   UNL     1       4.162   4.367  18.814  0.00  0.00    +0.000 N 
ATOM      2  C   UNL     1       5.357   4.062  18.222  0.00  0.00    +0.000 A 
ATOM      3  C   UNL     1       5.740   5.135  17.439  0.00  0.00    +0.000 A 
ATOM      4  C   UNL     1       4.731   6.143  17.566  0.00  0.00    +0.000 A 
ATOM      5  C   UNL     1       4.516   7.431  17.022  0.00  0.00    +0.000 A 
ATOM      6  C   UNL     1       3.410   8.193  17.420  0.00  0.00    +0.000 A 
ATOM      7  C   UNL     1       2.508   7.683  18.342  0.00  0.00    +0.000 A 
ATOM      8 CL   UNL     1       1.167   8.647  18.847  0.00  0.00    +0.000 Cl
ATOM      9  C   UNL     1       2.656   6.400  18.869  0.00  0.00    +0.000 A 
ATOM     10  C   UNL     1       3.776   5.643  18.466  0.00  0.00    +0.000 A 
ENDROOT
BRANCH   3  11
ATOM     11  S   UNL     1       7.203   5.191  16.499  0.00  0.00    +0.000 S 
ATOM     12  O   UNL     1       7.541   6.595  16.419  0.00  0.00    +0.000 OA
ATOM     13  O   UNL     1       8.086   4.220  17.109  0.00  0.00    +0.000 OA
BRANCH  11  14
ATOM     14  C   UNL     1       6.774   4.638  14.867  0.00  0.00    +0.000 A 
ATOM     15  C   UNL     1       7.625   4.917  13.792  0.00  0.00    +0.000 A 
ATOM     16  C   UNL     1       7.234   4.569  12.497  0.00  0.00    +0.000 A 
ATOM     17  C   UNL     1       6.020   3.912  12.285  0.00  0.00    +0.000 A 
ATOM     18  C   UNL     1       5.212   3.568  13.369  0.00  0.00    +0.000 A 
ATOM     19  C   UNL     1       5.587   3.928  14.665  0.00  0.00    +0.000 A 
ENDBRANCH  11  14
ENDBRANCH   3  11
BRANCH   1  20
ATOM     20  C   UNL     1       3.437   3.465  19.704  0.00  0.00    +0.000 C 
BRANCH  20  21
ATOM     21  C   UNL     1       3.606   1.990  19.319  0.00  0.00    +0.000 C 
BRANCH  21  22
ATOM     22  N   UNL     1       2.617   1.581  18.319  0.00  0.00    +0.000 NA
ATOM     23  H   UNL     1       2.177   2.413  17.920  0.00  0.00    +0.000 HD
ATOM     24  H   UNL     1       1.862   1.058  18.764  0.00  0.00    +0.000 HD
ENDBRANCH  21  22
ENDBRANCH  20  21
ENDBRANCH   1  20
TORSDOF 5
ENDMDL
MODEL 7
REMARK VINA RESULT:      -7.0      3.740      6.616
REMARK  Name = 
REMARK  5 active torsions:
REMARK  status: ('A' for Active; 'I' for Inactive)
REMARK    1  A    between atoms: N_1  and  C_2
REMARK    2  A    between atoms: C_2  and  C_3
REMARK    3  A    between atoms: C_3  and  N_4
REMARK    4  A    between atoms: C_6  and  S_7
REMARK    5  A    between atoms: S_7  and  C_10
REMARK                            x       y       z     vdW  Elec       q    Type
REMARK                         _______ _______ _______ _____ _____    ______ ____
ROOT
ATOM      1  N   UNL     1       5.937   4.203  15.578  0.00  0.00    +0.000 N 
ATOM      2  C   UNL     1       4.903   3.332  15.785  0.00  0.00    +0.000 A 
ATOM      3  C   UNL     1       4.572   3.362  17.126  0.00  0.00    +0.000 A 
ATOM      4  C   UNL     1       5.445   4.300  17.765  0.00  0.00    +0.000 A 
ATOM      5  C   UNL     1       5.637   4.763  19.087  0.00  0.00    +0.000 A 
ATOM      6  C   UNL     1       6.577   5.765  19.359  0.00  0.00    +0.000 A 
ATOM      7  C   UNL     1       7.339   6.301  18.332  0.00  0.00    +0.000 A 
ATOM      8 CL   UNL     1       8.472   7.558  18.678  0.00  0.00    +0.000 Cl
ATOM      9  C   UNL     1       7.216   5.842  17.020  0.00  0.00    +0.000 A 
ATOM     10  C   UNL     1       6.262   4.837  16.757  0.00  0.00    +0.000 A 
ENDROOT
BRANCH   3  11
ATOM     11  S   UNL     1       3.306   2.410  17.846  0.00  0.00    +0.000 S 
ATOM     12  O   UNL     1       2.284   2.318  16.825  0.00  0.00    +0.000 OA
ATOM     13  O   UNL     1       3.966   1.239  18.381  0.00  0.00    +0.000 OA
BRANCH  11  14
ATOM     14  C   UNL     1       2.653   3.372  19.187  0.00  0.00    +0.000 A 
ATOM     15  C   UNL     1       2.119   4.641  18.938  0.00  0.00    +0.000 A 
ATOM     16  C   UNL     1       1.700   5.434  20.009  0.00  0.00    +0.000 A 
ATOM     17  C   UNL     1       1.778   4.944  21.314  0.00  0.00    +0.000 A 
ATOM     18  C   UNL     1       2.240   3.648  21.550  0.00  0.00    +0.000 A 
ATOM     19  C   UNL     1       2.677   2.856  20.487  0.00  0.00    +0.000 A 
ENDBRANCH  11  14
ENDBRANCH   3  11
BRANCH   1  20
ATOM     20  C   UNL     1       6.568   4.430  14.281  0.00  0.00    +0.000 C 
BRANCH  20  21
ATOM     21  C   UNL     1       5.734   3.890  13.113  0.00  0.00    +0.000 C 
BRANCH  21  22
ATOM     22  N   UNL     1       6.416   2.786  12.433  0.00  0.00    +0.000 NA
ATOM     23  H   UNL     1       7.184   3.159  11.871  0.00  0.00    +0.000 HD
ATOM     24  H   UNL     1       5.783   2.337  11.770  0.00  0.00    +0.000 HD
ENDBRANCH  21  22
ENDBRANCH  20  21
ENDBRANCH   1  20
TORSDOF 5
ENDMDL
MODEL 8
REMARK VINA RESULT:      -6.9      3.370      4.904
REMARK  Name = 
REMARK  5 active torsions:
REMARK  status: ('A' for Active; 'I' for Inactive)
REMARK    1  A    between atoms: N_1  and  C_2
REMARK    2  A    between atoms: C_2  and  C_3
REMARK    3  A    between atoms: C_3  and  N_4
REMARK    4  A    between atoms: C_6  and  S_7
REMARK    5  A    between atoms: S_7  and  C_10
REMARK                            x       y       z     vdW  Elec       q    Type
REMARK                         _______ _______ _______ _____ _____    ______ ____
ROOT
ATOM      1  N   UNL     1       2.869   3.655  19.227  0.00  0.00    +0.000 N 
ATOM      2  C   UNL     1       3.860   3.497  18.298  0.00  0.00    +0.000 A 
ATOM      3  C   UNL     1       4.208   4.745  17.817  0.00  0.00    +0.000 A 
ATOM      4  C   UNL     1       3.392   5.710  18.491  0.00  0.00    +0.000 A 
ATOM      5  C   UNL     1       3.239   7.114  18.442  0.00  0.00    +0.000 A 
ATOM      6  C   UNL     1       2.353   7.763  19.312  0.00  0.00    +0.000 A 
ATOM      7  C   UNL     1       1.607   7.028  20.221  0.00  0.00    +0.000 A 
ATOM      8 CL   UNL     1       0.544   7.844  21.309  0.00  0.00    +0.000 Cl
ATOM      9  C   UNL     1       1.692   5.636  20.272  0.00  0.00    +0.000 A 
ATOM     10  C   UNL     1       2.591   4.994  19.396  0.00  0.00    +0.000 A 
ENDROOT
BRANCH   3  11
ATOM     11  S   UNL     1       5.434   5.027  16.614  0.00  0.00    +0.000 S 
ATOM     12  O   UNL     1       6.039   3.732  16.389  0.00  0.00    +0.000 OA
ATOM     13  O   UNL     1       4.770   5.760  15.559  0.00  0.00    +0.000 OA
BRANCH  11  14
ATOM     14  C   UNL     1       6.651   6.073  17.372  0.00  0.00    +0.000 A 
ATOM     15  C   UNL     1       7.410   5.595  18.445  0.00  0.00    +0.000 A 
ATOM     16  C   UNL     1       8.293   6.455  19.101  0.00  0.00    +0.000 A 
ATOM     17  C   UNL     1       8.445   7.771  18.661  0.00  0.00    +0.000 A 
ATOM     18  C   UNL     1       7.742   8.220  17.542  0.00  0.00    +0.000 A 
ATOM     19  C   UNL     1       6.844   7.372  16.891  0.00  0.00    +0.000 A 
ENDBRANCH  11  14
ENDBRANCH   3  11
BRANCH   1  20
ATOM     20  C   UNL     1       2.235   2.551  19.942  0.00  0.00    +0.000 C 
BRANCH  20  21
ATOM     21  C   UNL     1       2.608   2.516  21.429  0.00  0.00    +0.000 C 
BRANCH  21  22
ATOM     22  N   UNL     1       1.416   2.551  22.281  0.00  0.00    +0.000 NA
ATOM     23  H   UNL     1       0.648   2.987  21.767  0.00  0.00    +0.000 HD
ATOM     24  H   UNL     1       1.580   3.150  23.091  0.00  0.00    +0.000 HD
ENDBRANCH  21  22
ENDBRANCH  20  21
ENDBRANCH   1  20
TORSDOF 5
ENDMDL
MODEL 9
REMARK VINA RESULT:      -6.9      3.596      6.450
REMARK  Name = 
REMARK  5 active torsions:
REMARK  status: ('A' for Active; 'I' for Inactive)
REMARK    1  A    between atoms: N_1  and  C_2
REMARK    2  A    between atoms: C_2  and  C_3
REMARK    3  A    between atoms: C_3  and  N_4
REMARK    4  A    between atoms: C_6  and  S_7
REMARK    5  A    between atoms: S_7  and  C_10
REMARK                            x       y       z     vdW  Elec       q    Type
REMARK                         _______ _______ _______ _____ _____    ______ ____
ROOT
ATOM      1  N   UNL     1       6.738   4.636  17.863  0.00  0.00    +0.000 N 
ATOM      2  C   UNL     1       5.624   4.400  18.620  0.00  0.00    +0.000 A 
ATOM      3  C   UNL     1       4.556   4.192  17.768  0.00  0.00    +0.000 A 
ATOM      4  C   UNL     1       5.046   4.302  16.427  0.00  0.00    +0.000 A 
ATOM      5  C   UNL     1       4.479   4.222  15.134  0.00  0.00    +0.000 A 
ATOM      6  C   UNL     1       5.289   4.327  13.996  0.00  0.00    +0.000 A 
ATOM      7  C   UNL     1       6.655   4.525  14.130  0.00  0.00    +0.000 A 
ATOM      8 CL   UNL     1       7.645   4.621  12.718  0.00  0.00    +0.000 Cl
ATOM      9  C   UNL     1       7.250   4.656  15.385  0.00  0.00    +0.000 A 
ATOM     10  C   UNL     1       6.426   4.543  16.524  0.00  0.00    +0.000 A 
ENDROOT
BRANCH   3  11
ATOM     11  S   UNL     1       2.932   3.853  18.294  0.00  0.00    +0.000 S 
ATOM     12  O   UNL     1       2.173   3.683  17.074  0.00  0.00    +0.000 OA
ATOM     13  O   UNL     1       3.062   2.795  19.273  0.00  0.00    +0.000 OA
BRANCH  11  14
ATOM     14  C   UNL     1       2.347   5.321  19.101  0.00  0.00    +0.000 A 
ATOM     15  C   UNL     1       2.493   6.564  18.476  0.00  0.00    +0.000 A 
ATOM     16  C   UNL     1       2.123   7.726  19.159  0.00  0.00    +0.000 A 
ATOM     17  C   UNL     1       1.576   7.639  20.440  0.00  0.00    +0.000 A 
ATOM     18  C   UNL     1       1.361   6.392  21.028  0.00  0.00    +0.000 A 
ATOM     19  C   UNL     1       1.744   5.228  20.359  0.00  0.00    +0.000 A 
ENDBRANCH  11  14
ENDBRANCH   3  11
BRANCH   1  20
ATOM     20  C   UNL     1       8.059   4.916  18.418  0.00  0.00    +0.000 C 
BRANCH  20  21
ATOM     21  C   UNL     1       8.012   5.897  19.596  0.00  0.00    +0.000 C 
BRANCH  21  22
ATOM     22  N   UNL     1       8.280   5.220  20.867  0.00  0.00    +0.000 NA
ATOM     23  H   UNL     1       7.525   4.560  21.063  0.00  0.00    +0.000 HD
ATOM     24  H   UNL     1       8.263   5.893  21.634  0.00  0.00    +0.000 HD
ENDBRANCH  21  22
ENDBRANCH  20  21
ENDBRANCH   1  20
TORSDOF 5
ENDMDL
