MODEL 1
REMARK VINA RESULT:      -5.6      0.000      0.000
REMARK  Name = 
REMARK  10 active torsions:
REMARK  status: ('A' for Active; 'I' for Inactive)
REMARK    1  A    between atoms: C_1  and  C_2
REMARK    2  A    between atoms: C_4  and  C_5
REMARK    3  A    between atoms: C_7  and  O_8
REMARK    4  A    between atoms: O_8  and  C_9
REMARK    5  A    between atoms: C_9  and  C_10
REMARK    6  A    between atoms: C_10  and  C_11
REMARK    7  A    between atoms: C_11  and  N_12
REMARK    8  A    between atoms: N_12  and  C_13
REMARK    9  A    between atoms: C_13  and  C_14
REMARK   10  A    between atoms: C_14  and  O_15
REMARK                            x       y       z     vdW  Elec       q    Type
REMARK                         _______ _______ _______ _____ _____    ______ ____
ROOT
ATOM      1  O   UNL     1       3.255   4.364  17.987  0.00  0.00    +0.000 OA
ENDROOT
BRANCH   1   8
ATOM      2  C   UNL     1       6.625   4.206  14.345  0.00  0.00    +0.000 C 
ATOM      3  C   UNL     1       6.233   4.489  15.764  0.00  0.00    +0.000 A 
ATOM      4  C   UNL     1       7.175   4.941  16.694  0.00  0.00    +0.000 A 
ATOM      5  C   UNL     1       6.804   5.188  18.022  0.00  0.00    +0.000 A 
ATOM      6  C   UNL     1       7.807   5.677  19.026  0.00  0.00    +0.000 C 
ATOM      7  C   UNL     1       5.472   4.981  18.409  0.00  0.00    +0.000 A 
ATOM      8  C   UNL     1       4.518   4.547  17.486  0.00  0.00    +0.000 A 
ATOM      9  C   UNL     1       4.904   4.292  16.169  0.00  0.00    +0.000 A 
ENDBRANCH   1   8
BRANCH   1  10
ATOM     10  C   UNL     1       2.478   3.358  17.330  0.00  0.00    +0.000 C 
BRANCH  10  11
ATOM     11  C   UNL     1       2.614   2.050  18.107  0.00  0.00    +0.000 C 
BRANCH  11  12
ATOM     12  C   UNL     1       1.916   2.169  19.462  0.00  0.00    +0.000 C 
BRANCH  12  13
ATOM     13  N   UNL     1       2.864   2.621  20.481  0.00  0.00    +0.000 NA
ATOM     14  H   UNL     1       3.583   3.177  20.022  0.00  0.00    +0.000 HD
BRANCH  13  15
ATOM     15  C   UNL     1       2.179   3.452  21.487  0.00  0.00    +0.000 C 
BRANCH  15  16
ATOM     16  C   UNL     1       1.630   4.738  20.860  0.00  0.00    +0.000 C 
BRANCH  16  17
ATOM     17  O   UNL     1       2.691   5.639  20.557  0.00  0.00    +0.000 OA
ATOM     18  H   UNL     1       2.475   6.470  21.011  0.00  0.00    +0.000 HD
ENDBRANCH  16  17
ENDBRANCH  15  16
ENDBRANCH  13  15
ENDBRANCH  12  13
ENDBRANCH  11  12
ENDBRANCH  10  11
ENDBRANCH   1  10
TORSDOF 8
ENDMDL
MODEL 2
REMARK VINA RESULT:      -5.6      1.067      2.351
REMARK  Name = 
REMARK  10 active torsions:
REMARK  status: ('A' for Active; 'I' for Inactive)
REMARK    1  A    between atoms: C_1  and  C_2
REMARK    2  A    between atoms: C_4  and  C_5
REMARK    3  A    between atoms: C_7  and  O_8
REMARK    4  A    between atoms: O_8  and  C_9
REMARK    5  A    between atoms: C_9  and  C_10
REMARK    6  A    between atoms: C_10  and  C_11
REMARK    7  A    between atoms: C_11  and  N_12
REMARK    8  A    between atoms: N_12  and  C_13
REMARK    9  A    between atoms: C_13  and  C_14
REMARK   10  A    between atoms: C_14  and  O_15
REMARK                            x       y       z     vdW  Elec       q    Type
REMARK                         _______ _______ _______ _____ _____    ______ ____
ROOT
ATOM      1  O   UNL     1       3.755   3.981  18.284  0.00  0.00    +0.000 OA
ENDROOT
BRANCH   1   8
ATOM      2  C   UNL     1       7.611   7.066  17.777  0.00  0.00    +0.000 C 
ATOM      3  C   UNL     1       6.702   5.998  17.249  0.00  0.00    +0.000 A 
ATOM      4  C   UNL     1       6.866   5.488  15.957  0.00  0.00    +0.000 A 
ATOM      5  C   UNL     1       6.002   4.500  15.464  0.00  0.00    +0.000 A 
ATOM      6  C   UNL     1       6.173   3.946  14.081  0.00  0.00    +0.000 C 
ATOM      7  C   UNL     1       4.971   4.024  16.286  0.00  0.00    +0.000 A 
ATOM      8  C   UNL     1       4.807   4.511  17.585  0.00  0.00    +0.000 A 
ATOM      9  C   UNL     1       5.667   5.505  18.057  0.00  0.00    +0.000 A 
ENDBRANCH   1   8
BRANCH   1  10
ATOM     10  C   UNL     1       3.662   2.553  18.258  0.00  0.00    +0.000 C 
BRANCH  10  11
ATOM     11  C   UNL     1       2.196   2.162  18.080  0.00  0.00    +0.000 C 
BRANCH  11  12
ATOM     12  C   UNL     1       1.288   3.296  18.557  0.00  0.00    +0.000 C 
BRANCH  12  13
ATOM     13  N   UNL     1       0.675   2.947  19.839  0.00  0.00    +0.000 NA
ATOM     14  H   UNL     1       0.771   1.942  19.975  0.00  0.00    +0.000 HD
BRANCH  13  15
ATOM     15  C   UNL     1       1.354   3.649  20.943  0.00  0.00    +0.000 C 
BRANCH  15  16
ATOM     16  C   UNL     1       1.543   5.134  20.618  0.00  0.00    +0.000 C 
BRANCH  16  17
ATOM     17  O   UNL     1       2.925   5.482  20.655  0.00  0.00    +0.000 OA
ATOM     18  H   UNL     1       3.309   5.142  19.831  0.00  0.00    +0.000 HD
ENDBRANCH  16  17
ENDBRANCH  15  16
ENDBRANCH  13  15
ENDBRANCH  12  13
ENDBRANCH  11  12
ENDBRANCH  10  11
ENDBRANCH   1  10
TORSDOF 8
ENDMDL
MODEL 3
REMARK VINA RESULT:      -5.5      1.790      3.035
REMARK  Name = 
REMARK  10 active torsions:
REMARK  status: ('A' for Active; 'I' for Inactive)
REMARK    1  A    between atoms: C_1  and  C_2
REMARK    2  A    between atoms: C_4  and  C_5
REMARK    3  A    between atoms: C_7  and  O_8
REMARK    4  A    between atoms: O_8  and  C_9
REMARK    5  A    between atoms: C_9  and  C_10
REMARK    6  A    between atoms: C_10  and  C_11
REMARK    7  A    between atoms: C_11  and  N_12
REMARK    8  A    between atoms: N_12  and  C_13
REMARK    9  A    between atoms: C_13  and  C_14
REMARK   10  A    between atoms: C_14  and  O_15
REMARK                            x       y       z     vdW  Elec       q    Type
REMARK                         _______ _______ _______ _____ _____    ______ ____
ROOT
ATOM      1  O   UNL     1       3.594   5.030  18.570  0.00  0.00    +0.000 OA
ENDROOT
BRANCH   1   8
ATOM      2  C   UNL     1       7.667   7.671  17.534  0.00  0.00    +0.000 C 
ATOM      3  C   UNL     1       6.698   6.570  17.224  0.00  0.00    +0.000 A 
ATOM      4  C   UNL     1       6.857   5.771  16.086  0.00  0.00    +0.000 A 
ATOM      5  C   UNL     1       5.939   4.754  15.795  0.00  0.00    +0.000 A 
ATOM      6  C   UNL     1       6.103   3.890  14.579  0.00  0.00    +0.000 C 
ATOM      7  C   UNL     1       4.857   4.542  16.662  0.00  0.00    +0.000 A 
ATOM      8  C   UNL     1       4.697   5.320  17.811  0.00  0.00    +0.000 A 
ATOM      9  C   UNL     1       5.613   6.339  18.081  0.00  0.00    +0.000 A 
ENDBRANCH   1   8
BRANCH   1  10
ATOM     10  C   UNL     1       2.343   5.454  18.017  0.00  0.00    +0.000 C 
BRANCH  10  11
ATOM     11  C   UNL     1       1.496   4.219  17.719  0.00  0.00    +0.000 C 
BRANCH  11  12
ATOM     12  C   UNL     1       1.766   3.132  18.761  0.00  0.00    +0.000 C 
BRANCH  12  13
ATOM     13  N   UNL     1       2.128   1.877  18.102  0.00  0.00    +0.000 NA
ATOM     14  H   UNL     1       2.028   2.006  17.096  0.00  0.00    +0.000 HD
BRANCH  13  15
ATOM     15  C   UNL     1       3.525   1.520  18.406  0.00  0.00    +0.000 C 
BRANCH  15  16
ATOM     16  C   UNL     1       3.969   2.118  19.745  0.00  0.00    +0.000 C 
BRANCH  16  17
ATOM     17  O   UNL     1       5.217   1.564  20.151  0.00  0.00    +0.000 OA
ATOM     18  H   UNL     1       5.006   0.728  20.597  0.00  0.00    +0.000 HD
ENDBRANCH  16  17
ENDBRANCH  15  16
ENDBRANCH  13  15
ENDBRANCH  12  13
ENDBRANCH  11  12
ENDBRANCH  10  11
ENDBRANCH   1  10
TORSDOF 8
ENDMDL
MODEL 4
REMARK VINA RESULT:      -5.5      2.354      3.838
REMARK  Name = 
REMARK  10 active torsions:
REMARK  status: ('A' for Active; 'I' for Inactive)
REMARK    1  A    between atoms: C_1  and  C_2
REMARK    2  A    between atoms: C_4  and  C_5
REMARK    3  A    between atoms: C_7  and  O_8
REMARK    4  A    between atoms: O_8  and  C_9
REMARK    5  A    between atoms: C_9  and  C_10
REMARK    6  A    between atoms: C_10  and  C_11
REMARK    7  A    between atoms: C_11  and  N_12
REMARK    8  A    between atoms: N_12  and  C_13
REMARK    9  A    between atoms: C_13  and  C_14
REMARK   10  A    between atoms: C_14  and  O_15
REMARK                            x       y       z     vdW  Elec       q    Type
REMARK                         _______ _______ _______ _____ _____    ______ ____
ROOT
ATOM      1  O   UNL     1       3.221   4.521  20.206  0.00  0.00    +0.000 OA
ENDROOT
BRANCH   1   8
ATOM      2  C   UNL     1       5.177   6.566  16.128  0.00  0.00    +0.000 C 
ATOM      3  C   UNL     1       4.227   6.592  17.287  0.00  0.00    +0.000 A 
ATOM      4  C   UNL     1       3.376   7.683  17.497  0.00  0.00    +0.000 A 
ATOM      5  C   UNL     1       2.501   7.706  18.591  0.00  0.00    +0.000 A 
ATOM      6  C   UNL     1       1.583   8.870  18.821  0.00  0.00    +0.000 C 
ATOM      7  C   UNL     1       2.485   6.617  19.474  0.00  0.00    +0.000 A 
ATOM      8  C   UNL     1       3.315   5.514  19.267  0.00  0.00    +0.000 A 
ATOM      9  C   UNL     1       4.191   5.510  18.180  0.00  0.00    +0.000 A 
ENDBRANCH   1   8
BRANCH   1  10
ATOM     10  C   UNL     1       2.064   4.583  21.046  0.00  0.00    +0.000 C 
BRANCH  10  11
ATOM     11  C   UNL     1       1.386   3.214  21.048  0.00  0.00    +0.000 C 
BRANCH  11  12
ATOM     12  C   UNL     1       0.884   2.874  19.644  0.00  0.00    +0.000 C 
BRANCH  12  13
ATOM     13  N   UNL     1       1.672   1.780  19.077  0.00  0.00    +0.000 NA
ATOM     14  H   UNL     1       1.043   1.005  18.875  0.00  0.00    +0.000 HD
BRANCH  13  15
ATOM     15  C   UNL     1       2.323   2.209  17.826  0.00  0.00    +0.000 C 
BRANCH  15  16
ATOM     16  C   UNL     1       3.821   1.888  17.845  0.00  0.00    +0.000 C 
BRANCH  16  17
ATOM     17  O   UNL     1       4.322   1.917  19.179  0.00  0.00    +0.000 OA
ATOM     18  H   UNL     1       5.198   1.500  19.145  0.00  0.00    +0.000 HD
ENDBRANCH  16  17
ENDBRANCH  15  16
ENDBRANCH  13  15
ENDBRANCH  12  13
ENDBRANCH  11  12
ENDBRANCH  10  11
ENDBRANCH   1  10
TORSDOF 8
ENDMDL
MODEL 5
REMARK VINA RESULT:      -5.5      2.518      5.490
REMARK  Name = 
REMARK  10 active torsions:
REMARK  status: ('A' for Active; 'I' for Inactive)
REMARK    1  A    between atoms: C_1  and  C_2
REMARK    2  A    between atoms: C_4  and  C_5
REMARK    3  A    between atoms: C_7  and  O_8
REMARK    4  A    between atoms: O_8  and  C_9
REMARK    5  A    between atoms: C_9  and  C_10
REMARK    6  A    between atoms: C_10  and  C_11
REMARK    7  A    between atoms: C_11  and  N_12
REMARK    8  A    between atoms: N_12  and  C_13
REMARK    9  A    between atoms: C_13  and  C_14
REMARK   10  A    between atoms: C_14  and  O_15
REMARK                            x       y       z     vdW  Elec       q    Type
REMARK                         _______ _______ _______ _____ _____    ______ ____
ROOT
ATOM      1  O   UNL     1       4.997   4.149  18.087  0.00  0.00    +0.000 OA
ENDROOT
BRANCH   1   8
ATOM      2  C   UNL     1       1.702   2.957  21.603  0.00  0.00    +0.000 C 
ATOM      3  C   UNL     1       2.345   3.952  20.685  0.00  0.00    +0.000 A 
ATOM      4  C   UNL     1       1.920   5.285  20.659  0.00  0.00    +0.000 A 
ATOM      5  C   UNL     1       2.516   6.206  19.787  0.00  0.00    +0.000 A 
ATOM      6  C   UNL     1       2.070   7.639  19.754  0.00  0.00    +0.000 C 
ATOM      7  C   UNL     1       3.549   5.776  18.942  0.00  0.00    +0.000 A 
ATOM      8  C   UNL     1       3.994   4.453  18.971  0.00  0.00    +0.000 A 
ATOM      9  C   UNL     1       3.383   3.543  19.835  0.00  0.00    +0.000 A 
ENDBRANCH   1   8
BRANCH   1  10
ATOM     10  C   UNL     1       4.561   3.718  16.794  0.00  0.00    +0.000 C 
BRANCH  10  11
ATOM     11  C   UNL     1       5.622   4.105  15.766  0.00  0.00    +0.000 C 
BRANCH  11  12
ATOM     12  C   UNL     1       5.979   5.585  15.911  0.00  0.00    +0.000 C 
BRANCH  12  13
ATOM     13  N   UNL     1       7.305   5.728  16.512  0.00  0.00    +0.000 NA
ATOM     14  H   UNL     1       7.958   6.007  15.782  0.00  0.00    +0.000 HD
BRANCH  13  15
ATOM     15  C   UNL     1       7.285   6.763  17.562  0.00  0.00    +0.000 C 
BRANCH  15  16
ATOM     16  C   UNL     1       7.873   6.231  18.873  0.00  0.00    +0.000 C 
BRANCH  16  17
ATOM     17  O   UNL     1       7.622   4.834  19.002  0.00  0.00    +0.000 OA
ATOM     18  H   UNL     1       7.148   4.724  19.842  0.00  0.00    +0.000 HD
ENDBRANCH  16  17
ENDBRANCH  15  16
ENDBRANCH  13  15
ENDBRANCH  12  13
ENDBRANCH  11  12
ENDBRANCH  10  11
ENDBRANCH   1  10
TORSDOF 8
ENDMDL
MODEL 6
REMARK VINA RESULT:      -5.5      2.582      5.518
REMARK  Name = 
REMARK  10 active torsions:
REMARK  status: ('A' for Active; 'I' for Inactive)
REMARK    1  A    between atoms: C_1  and  C_2
REMARK    2  A    between atoms: C_4  and  C_5
REMARK    3  A    between atoms: C_7  and  O_8
REMARK    4  A    between atoms: O_8  and  C_9
REMARK    5  A    between atoms: C_9  and  C_10
REMARK    6  A    between atoms: C_10  and  C_11
REMARK    7  A    between atoms: C_11  and  N_12
REMARK    8  A    between atoms: N_12  and  C_13
REMARK    9  A    between atoms: C_13  and  C_14
REMARK   10  A    between atoms: C_14  and  O_15
REMARK                            x       y       z     vdW  Elec       q    Type
REMARK                         _______ _______ _______ _____ _____    ______ ____
ROOT
ATOM      1  O   UNL     1       4.741   3.977  18.065  0.00  0.00    +0.000 OA
ENDROOT
BRANCH   1   8
ATOM      2  C   UNL     1       1.976   7.615  20.004  0.00  0.00    +0.000 C 
ATOM      3  C   UNL     1       2.359   6.170  19.892  0.00  0.00    +0.000 A 
ATOM      4  C   UNL     1       1.723   5.195  20.668  0.00  0.00    +0.000 A 
ATOM      5  C   UNL     1       2.097   3.848  20.568  0.00  0.00    +0.000 A 
ATOM      6  C   UNL     1       1.418   2.795  21.394  0.00  0.00    +0.000 C 
ATOM      7  C   UNL     1       3.118   3.488  19.677  0.00  0.00    +0.000 A 
ATOM      8  C   UNL     1       3.749   4.448  18.884  0.00  0.00    +0.000 A 
ATOM      9  C   UNL     1       3.374   5.788  19.003  0.00  0.00    +0.000 A 
ENDBRANCH   1   8
BRANCH   1  10
ATOM     10  C   UNL     1       4.422   3.956  16.670  0.00  0.00    +0.000 C 
BRANCH  10  11
ATOM     11  C   UNL     1       5.629   4.467  15.885  0.00  0.00    +0.000 C 
BRANCH  11  12
ATOM     12  C   UNL     1       5.871   5.944  16.196  0.00  0.00    +0.000 C 
BRANCH  12  13
ATOM     13  N   UNL     1       7.274   6.163  16.551  0.00  0.00    +0.000 NA
ATOM     14  H   UNL     1       7.629   6.932  15.985  0.00  0.00    +0.000 HD
BRANCH  13  15
ATOM     15  C   UNL     1       7.396   6.516  17.976  0.00  0.00    +0.000 C 
BRANCH  15  16
ATOM     16  C   UNL     1       7.804   5.300  18.814  0.00  0.00    +0.000 C 
BRANCH  16  17
ATOM     17  O   UNL     1       7.720   5.600  20.204  0.00  0.00    +0.000 OA
ATOM     18  H   UNL     1       7.720   6.569  20.270  0.00  0.00    +0.000 HD
ENDBRANCH  16  17
ENDBRANCH  15  16
ENDBRANCH  13  15
ENDBRANCH  12  13
ENDBRANCH  11  12
ENDBRANCH  10  11
ENDBRANCH   1  10
TORSDOF 8
ENDMDL
MODEL 7
REMARK VINA RESULT:      -5.4      1.332      2.671
REMARK  Name = 
REMARK  10 active torsions:
REMARK  status: ('A' for Active; 'I' for Inactive)
REMARK    1  A    between atoms: C_1  and  C_2
REMARK    2  A    between atoms: C_4  and  C_5
REMARK    3  A    between atoms: C_7  and  O_8
REMARK    4  A    between atoms: O_8  and  C_9
REMARK    5  A    between atoms: C_9  and  C_10
REMARK    6  A    between atoms: C_10  and  C_11
REMARK    7  A    between atoms: C_11  and  N_12
REMARK    8  A    between atoms: N_12  and  C_13
REMARK    9  A    between atoms: C_13  and  C_14
REMARK   10  A    between atoms: C_14  and  O_15
REMARK                            x       y       z     vdW  Elec       q    Type
REMARK                         _______ _______ _______ _____ _____    ______ ____
ROOT
ATOM      1  O   UNL     1       3.908   3.501  18.204  0.00  0.00    +0.000 OA
ENDROOT
BRANCH   1   8
ATOM      2  C   UNL     1       7.763   6.625  18.333  0.00  0.00    +0.000 C 
ATOM      3  C   UNL     1       6.869   5.667  17.605  0.00  0.00    +0.000 A 
ATOM      4  C   UNL     1       7.063   5.394  16.247  0.00  0.00    +0.000 A 
ATOM      5  C   UNL     1       6.213   4.509  15.569  0.00  0.00    +0.000 A 
ATOM      6  C   UNL     1       6.415   4.207  14.113  0.00  0.00    +0.000 C 
ATOM      7  C   UNL     1       5.166   3.895  16.272  0.00  0.00    +0.000 A 
ATOM      8  C   UNL     1       4.973   4.145  17.632  0.00  0.00    +0.000 A 
ATOM      9  C   UNL     1       5.819   5.039  18.291  0.00  0.00    +0.000 A 
ENDBRANCH   1   8
BRANCH   1  10
ATOM     10  C   UNL     1       2.758   3.357  17.363  0.00  0.00    +0.000 C 
BRANCH  10  11
ATOM     11  C   UNL     1       1.575   4.056  18.028  0.00  0.00    +0.000 C 
BRANCH  11  12
ATOM     12  C   UNL     1       2.046   5.327  18.736  0.00  0.00    +0.000 C 
BRANCH  12  13
ATOM     13  N   UNL     1       2.263   5.062  20.159  0.00  0.00    +0.000 NA
ATOM     14  H   UNL     1       2.172   5.942  20.664  0.00  0.00    +0.000 HD
BRANCH  13  15
ATOM     15  C   UNL     1       1.258   4.110  20.665  0.00  0.00    +0.000 C 
BRANCH  15  16
ATOM     16  C   UNL     1       1.911   3.018  21.518  0.00  0.00    +0.000 C 
BRANCH  16  17
ATOM     17  O   UNL     1       3.156   2.619  20.951  0.00  0.00    +0.000 OA
ATOM     18  H   UNL     1       3.430   1.825  21.438  0.00  0.00    +0.000 HD
ENDBRANCH  16  17
ENDBRANCH  15  16
ENDBRANCH  13  15
ENDBRANCH  12  13
ENDBRANCH  11  12
ENDBRANCH  10  11
ENDBRANCH   1  10
TORSDOF 8
ENDMDL
MODEL 8
REMARK VINA RESULT:      -5.4      1.419      3.085
REMARK  Name = 
REMARK  10 active torsions:
REMARK  status: ('A' for Active; 'I' for Inactive)
REMARK    1  A    between atoms: C_1  and  C_2
REMARK    2  A    between atoms: C_4  and  C_5
REMARK    3  A    between atoms: C_7  and  O_8
REMARK    4  A    between atoms: O_8  and  C_9
REMARK    5  A    between atoms: C_9  and  C_10
REMARK    6  A    between atoms: C_10  and  C_11
REMARK    7  A    between atoms: C_11  and  N_12
REMARK    8  A    between atoms: N_12  and  C_13
REMARK    9  A    between atoms: C_13  and  C_14
REMARK   10  A    between atoms: C_14  and  O_15
REMARK                            x       y       z     vdW  Elec       q    Type
REMARK                         _______ _______ _______ _____ _____    ______ ____
ROOT
ATOM      1  O   UNL     1       3.492   4.936  18.381  0.00  0.00    +0.000 OA
ENDROOT
BRANCH   1   8
ATOM      2  C   UNL     1       7.641   7.537  17.571  0.00  0.00    +0.000 C 
ATOM      3  C   UNL     1       6.663   6.467  17.189  0.00  0.00    +0.000 A 
ATOM      4  C   UNL     1       6.842   5.709  16.027  0.00  0.00    +0.000 A 
ATOM      5  C   UNL     1       5.915   4.721  15.669  0.00  0.00    +0.000 A 
ATOM      6  C   UNL     1       6.101   3.902  14.426  0.00  0.00    +0.000 C 
ATOM      7  C   UNL     1       4.804   4.497  16.495  0.00  0.00    +0.000 A 
ATOM      8  C   UNL     1       4.622   5.234  17.667  0.00  0.00    +0.000 A 
ATOM      9  C   UNL     1       5.547   6.224  18.004  0.00  0.00    +0.000 A 
ENDBRANCH   1   8
BRANCH   1  10
ATOM     10  C   UNL     1       3.376   5.597  19.646  0.00  0.00    +0.000 C 
BRANCH  10  11
ATOM     11  C   UNL     1       1.968   5.366  20.191  0.00  0.00    +0.000 C 
BRANCH  11  12
ATOM     12  C   UNL     1       1.437   4.011  19.720  0.00  0.00    +0.000 C 
BRANCH  12  13
ATOM     13  N   UNL     1       2.337   2.939  20.147  0.00  0.00    +0.000 NA
ATOM     14  H   UNL     1       2.011   2.590  21.046  0.00  0.00    +0.000 HD
BRANCH  13  15
ATOM     15  C   UNL     1       2.325   1.837  19.168  0.00  0.00    +0.000 C 
BRANCH  15  16
ATOM     16  C   UNL     1       3.730   1.575  18.616  0.00  0.00    +0.000 C 
BRANCH  16  17
ATOM     17  O   UNL     1       4.715   2.186  19.445  0.00  0.00    +0.000 OA
ATOM     18  H   UNL     1       4.890   1.556  20.163  0.00  0.00    +0.000 HD
ENDBRANCH  16  17
ENDBRANCH  15  16
ENDBRANCH  13  15
ENDBRANCH  12  13
ENDBRANCH  11  12
ENDBRANCH  10  11
ENDBRANCH   1  10
TORSDOF 8
ENDMDL
MODEL 9
REMARK VINA RESULT:      -5.4      1.232      2.536
REMARK  Name = 
REMARK  10 active torsions:
REMARK  status: ('A' for Active; 'I' for Inactive)
REMARK    1  A    between atoms: C_1  and  C_2
REMARK    2  A    between atoms: C_4  and  C_5
REMARK    3  A    between atoms: C_7  and  O_8
REMARK    4  A    between atoms: O_8  and  C_9
REMARK    5  A    between atoms: C_9  and  C_10
REMARK    6  A    between atoms: C_10  and  C_11
REMARK    7  A    between atoms: C_11  and  N_12
REMARK    8  A    between atoms: N_12  and  C_13
REMARK    9  A    between atoms: C_13  and  C_14
REMARK   10  A    between atoms: C_14  and  O_15
REMARK                            x       y       z     vdW  Elec       q    Type
REMARK                         _______ _______ _______ _____ _____    ______ ____
ROOT
ATOM      1  O   UNL     1       3.069   4.831  18.005  0.00  0.00    +0.000 OA
ENDROOT
BRANCH   1   8
ATOM      2  C   UNL     1       7.815   5.739  19.143  0.00  0.00    +0.000 C 
ATOM      3  C   UNL     1       6.755   5.285  18.185  0.00  0.00    +0.000 A 
ATOM      4  C   UNL     1       7.084   4.878  16.888  0.00  0.00    +0.000 A 
ATOM      5  C   UNL     1       6.085   4.470  15.994  0.00  0.00    +0.000 A 
ATOM      6  C   UNL     1       6.429   4.029  14.601  0.00  0.00    +0.000 C 
ATOM      7  C   UNL     1       4.748   4.470  16.417  0.00  0.00    +0.000 A 
ATOM      8  C   UNL     1       4.408   4.857  17.715  0.00  0.00    +0.000 A 
ATOM      9  C   UNL     1       5.412   5.274  18.591  0.00  0.00    +0.000 A 
ENDBRANCH   1   8
BRANCH   1  10
ATOM     10  C   UNL     1       2.335   3.760  17.404  0.00  0.00    +0.000 C 
BRANCH  10  11
ATOM     11  C   UNL     1       2.399   2.544  18.325  0.00  0.00    +0.000 C 
BRANCH  11  12
ATOM     12  C   UNL     1       1.048   2.330  19.009  0.00  0.00    +0.000 C 
BRANCH  12  13
ATOM     13  N   UNL     1       0.600   3.571  19.643  0.00  0.00    +0.000 NA
ATOM     14  H   UNL     1      -0.372   3.453  19.921  0.00  0.00    +0.000 HD
BRANCH  13  15
ATOM     15  C   UNL     1       1.412   3.860  20.838  0.00  0.00    +0.000 C 
BRANCH  15  16
ATOM     16  C   UNL     1       1.519   2.629  21.744  0.00  0.00    +0.000 C 
BRANCH  16  17
ATOM     17  O   UNL     1       2.883   2.352  22.052  0.00  0.00    +0.000 OA
ATOM     18  H   UNL     1       3.406   2.771  21.349  0.00  0.00    +0.000 HD
ENDBRANCH  16  17
ENDBRANCH  15  16
ENDBRANCH  13  15
ENDBRANCH  12  13
ENDBRANCH  11  12
ENDBRANCH  10  11
ENDBRANCH   1  10
TORSDOF 8
ENDMDL
