MODEL 1
REMARK VINA RESULT:      -8.0      0.000      0.000
REMARK  Name = 
REMARK  8 active torsions:
REMARK  status: ('A' for Active; 'I' for Inactive)
REMARK    1  A    between atoms: C_1  and  C_2
REMARK    2  A    between atoms: C_2  and  C_3
REMARK    3  A    between atoms: C_3  and  C_4
REMARK    4  A    between atoms: C_4  and  C_5
REMARK    5  A    between atoms: C_5  and  C_6
REMARK    6  A    between atoms: C_6  and  O_8
REMARK    7  A    between atoms: C_14  and  C_15
REMARK    8  A    between atoms: C_15  and  C_16
REMARK                            x       y       z     vdW  Elec       q    Type
REMARK                         _______ _______ _______ _____ _____    ______ ____
ROOT
ATOM      1  C   UNL     1       5.434   5.155  15.966  0.00  0.00    +0.000 C 
ATOM      2  O   UNL     1       5.156   6.548  15.612  0.00  0.00    +0.000 OA
ATOM      3  C   UNL     1       4.857   7.422  16.667  0.00  0.00    +0.000 C 
ATOM      4  C   UNL     1       3.627   6.858  17.282  0.00  0.00    +0.000 C 
ATOM      5  C   UNL     1       4.115   5.751  18.181  0.00  0.00    +0.000 C 
ATOM      6  C   UNL     1       2.969   5.191  18.952  0.00  0.00    +0.000 A 
ATOM      7  C   UNL     1       2.170   5.851  19.914  0.00  0.00    +0.000 A 
ATOM      8  C   UNL     1       1.222   5.082  20.581  0.00  0.00    +0.000 A 
ATOM      9  C   UNL     1       1.086   3.718  20.269  0.00  0.00    +0.000 A 
ATOM     10  C   UNL     1       1.841   3.121  19.228  0.00  0.00    +0.000 A 
ATOM     11 CL   UNL     1       1.590   1.451  18.911  0.00  0.00    +0.000 Cl
ATOM     12  C   UNL     1       2.789   3.874  18.537  0.00  0.00    +0.000 A 
ATOM     13  N   UNL     1       3.531   3.573  17.302  0.00  0.00    +0.000 N 
ATOM     14  C   UNL     1       4.672   4.571  17.322  0.00  0.00    +0.000 C 
ATOM     15  H   UNL     1       3.816   2.592  17.368  0.00  0.00    +0.000 HD
ENDROOT
BRANCH   7  16
ATOM     16  C   UNL     1       2.255   7.360  20.040  0.00  0.00    +0.000 C 
ATOM     17  C   UNL     1       1.327   8.166  20.921  0.00  0.00    +0.000 C 
ENDBRANCH   7  16
BRANCH   1  18
ATOM     18  C   UNL     1       5.261   4.510  14.543  0.00  0.00    +0.000 C 
BRANCH  18  20
ATOM     19  C   UNL     1       6.078   3.390  12.430  0.00  0.00    +0.000 C 
ATOM     20  C   UNL     1       6.479   4.049  13.733  0.00  0.00    +0.000 C 
ENDBRANCH  18  20
ENDBRANCH   1  18
BRANCH   1  21
ATOM     21  C   UNL     1       7.001   5.169  16.142  0.00  0.00    +0.000 C 
BRANCH  21  22
ATOM     22  C   UNL     1       7.545   5.201  17.549  0.00  0.00    +0.000 C 
ATOM     23  O   UNL     1       7.550   6.171  18.271  0.00  0.00    +0.000 OA
BRANCH  22  24
ATOM     24  O   UNL     1       8.011   4.002  17.989  0.00  0.00    +0.000 OA
ATOM     25  H   UNL     1       8.979   3.905  17.961  0.00  0.00    +0.000 HD
ENDBRANCH  22  24
ENDBRANCH  21  22
ENDBRANCH   1  21
TORSDOF 6
ENDMDL
MODEL 2
REMARK VINA RESULT:      -7.9      0.987      1.281
REMARK  Name = 
REMARK  8 active torsions:
REMARK  status: ('A' for Active; 'I' for Inactive)
REMARK    1  A    between atoms: C_1  and  C_2
REMARK    2  A    between atoms: C_2  and  C_3
REMARK    3  A    between atoms: C_3  and  C_4
REMARK    4  A    between atoms: C_4  and  C_5
REMARK    5  A    between atoms: C_5  and  C_6
REMARK    6  A    between atoms: C_6  and  O_8
REMARK    7  A    between atoms: C_14  and  C_15
REMARK    8  A    between atoms: C_15  and  C_16
REMARK                            x       y       z     vdW  Elec       q    Type
REMARK                         _______ _______ _______ _____ _____    ______ ____
ROOT
ATOM      1  C   UNL     1       6.284   4.840  17.221  0.00  0.00    +0.000 C 
ATOM      2  O   UNL     1       6.116   6.170  16.634  0.00  0.00    +0.000 OA
ATOM      3  C   UNL     1       5.536   7.154  17.447  0.00  0.00    +0.000 C 
ATOM      4  C   UNL     1       4.183   6.627  17.763  0.00  0.00    +0.000 C 
ATOM      5  C   UNL     1       4.400   5.653  18.893  0.00  0.00    +0.000 C 
ATOM      6  C   UNL     1       3.083   5.151  19.380  0.00  0.00    +0.000 A 
ATOM      7  C   UNL     1       2.048   5.894  19.992  0.00  0.00    +0.000 A 
ATOM      8  C   UNL     1       0.951   5.179  20.462  0.00  0.00    +0.000 A 
ATOM      9  C   UNL     1       0.906   3.783  20.297  0.00  0.00    +0.000 A 
ATOM     10  C   UNL     1       1.921   3.092  19.588  0.00  0.00    +0.000 A 
ATOM     11 CL   UNL     1       1.766   1.389  19.425  0.00  0.00    +0.000 Cl
ATOM     12  C   UNL     1       3.024   3.788  19.099  0.00  0.00    +0.000 A 
ATOM     13  N   UNL     1       4.081   3.367  18.165  0.00  0.00    +0.000 N 
ATOM     14  C   UNL     1       5.173   4.397  18.375  0.00  0.00    +0.000 C 
ATOM     15  H   UNL     1       4.336   2.410  18.429  0.00  0.00    +0.000 HD
ENDROOT
BRANCH   7  16
ATOM     16  C   UNL     1       2.097   7.410  19.948  0.00  0.00    +0.000 C 
ATOM     17  C   UNL     1       1.357   8.286  20.934  0.00  0.00    +0.000 C 
ENDBRANCH   7  16
BRANCH   1  18
ATOM     18  C   UNL     1       6.513   4.024  15.898  0.00  0.00    +0.000 C 
BRANCH  18  20
ATOM     19  C   UNL     1       6.285   3.916  13.383  0.00  0.00    +0.000 C 
ATOM     20  C   UNL     1       5.580   4.199  14.693  0.00  0.00    +0.000 C 
ENDBRANCH  18  20
ENDBRANCH   1  18
BRANCH   1  21
ATOM     21  C   UNL     1       7.739   4.928  17.821  0.00  0.00    +0.000 C 
BRANCH  21  22
ATOM     22  C   UNL     1       7.922   5.716  19.095  0.00  0.00    +0.000 C 
ATOM     23  O   UNL     1       7.714   5.295  20.209  0.00  0.00    +0.000 OA
BRANCH  22  24
ATOM     24  O   UNL     1       8.400   6.974  18.904  0.00  0.00    +0.000 OA
ATOM     25  H   UNL     1       9.072   7.055  18.204  0.00  0.00    +0.000 HD
ENDBRANCH  22  24
ENDBRANCH  21  22
ENDBRANCH   1  21
TORSDOF 6
ENDMDL
MODEL 3
REMARK VINA RESULT:      -7.5      1.673      1.971
REMARK  Name = 
REMARK  8 active torsions:
REMARK  status: ('A' for Active; 'I' for Inactive)
REMARK    1  A    between atoms: C_1  and  C_2
REMARK    2  A    between atoms: C_2  and  C_3
REMARK    3  A    between atoms: C_3  and  C_4
REMARK    4  A    between atoms: C_4  and  C_5
REMARK    5  A    between atoms: C_5  and  C_6
REMARK    6  A    between atoms: C_6  and  O_8
REMARK    7  A    between atoms: C_14  and  C_15
REMARK    8  A    between atoms: C_15  and  C_16
REMARK                            x       y       z     vdW  Elec       q    Type
REMARK                         _______ _______ _______ _____ _____    ______ ____
ROOT
ATOM      1  C   UNL     1       6.005   5.859  17.076  0.00  0.00    +0.000 C 
ATOM      2  O   UNL     1       4.968   6.620  16.377  0.00  0.00    +0.000 OA
ATOM      3  C   UNL     1       3.968   7.203  17.167  0.00  0.00    +0.000 C 
ATOM      4  C   UNL     1       3.308   6.056  17.841  0.00  0.00    +0.000 C 
ATOM      5  C   UNL     1       4.202   5.725  19.009  0.00  0.00    +0.000 C 
ATOM      6  C   UNL     1       3.568   4.660  19.838  0.00  0.00    +0.000 A 
ATOM      7  C   UNL     1       2.359   4.737  20.566  0.00  0.00    +0.000 A 
ATOM      8  C   UNL     1       2.028   3.640  21.356  0.00  0.00    +0.000 A 
ATOM      9  C   UNL     1       2.878   2.520  21.385  0.00  0.00    +0.000 A 
ATOM     10  C   UNL     1       4.029   2.447  20.561  0.00  0.00    +0.000 A 
ATOM     11 CL   UNL     1       4.993   1.028  20.655  0.00  0.00    +0.000 Cl
ATOM     12  C   UNL     1       4.375   3.528  19.753  0.00  0.00    +0.000 A 
ATOM     13  N   UNL     1       5.365   3.631  18.668  0.00  0.00    +0.000 N 
ATOM     14  C   UNL     1       5.550   5.125  18.496  0.00  0.00    +0.000 C 
ATOM     15  H   UNL     1       6.198   3.128  18.988  0.00  0.00    +0.000 HD
ENDROOT
BRANCH   7  16
ATOM     16  C   UNL     1       1.417   5.899  20.320  0.00  0.00    +0.000 C 
ATOM     17  C   UNL     1       1.626   7.270  20.922  0.00  0.00    +0.000 C 
ENDBRANCH   7  16
BRANCH   1  18
ATOM     18  C   UNL     1       6.584   5.065  15.851  0.00  0.00    +0.000 C 
BRANCH  18  20
ATOM     19  C   UNL     1       6.276   3.967  13.595  0.00  0.00    +0.000 C 
ATOM     20  C   UNL     1       5.671   4.213  14.962  0.00  0.00    +0.000 C 
ENDBRANCH  18  20
ENDBRANCH   1  18
BRANCH   1  21
ATOM     21  C   UNL     1       7.108   6.959  17.320  0.00  0.00    +0.000 C 
BRANCH  21  22
ATOM     22  C   UNL     1       8.005   6.795  18.522  0.00  0.00    +0.000 C 
ATOM     23  O   UNL     1       8.208   5.752  19.101  0.00  0.00    +0.000 OA
BRANCH  22  24
ATOM     24  O   UNL     1       8.632   7.938  18.906  0.00  0.00    +0.000 OA
ATOM     25  H   UNL     1       8.562   8.675  18.273  0.00  0.00    +0.000 HD
ENDBRANCH  22  24
ENDBRANCH  21  22
ENDBRANCH   1  21
TORSDOF 6
ENDMDL
MODEL 4
REMARK VINA RESULT:      -7.1      2.586      4.032
REMARK  Name = 
REMARK  8 active torsions:
REMARK  status: ('A' for Active; 'I' for Inactive)
REMARK    1  A    between atoms: C_1  and  C_2
REMARK    2  A    between atoms: C_2  and  C_3
REMARK    3  A    between atoms: C_3  and  C_4
REMARK    4  A    between atoms: C_4  and  C_5
REMARK    5  A    between atoms: C_5  and  C_6
REMARK    6  A    between atoms: C_6  and  O_8
REMARK    7  A    between atoms: C_14  and  C_15
REMARK    8  A    between atoms: C_15  and  C_16
REMARK                            x       y       z     vdW  Elec       q    Type
REMARK                         _______ _______ _______ _____ _____    ______ ____
ROOT
ATOM      1  C   UNL     1       5.334   6.009  16.833  0.00  0.00    +0.000 C 
ATOM      2  O   UNL     1       6.065   5.048  17.661  0.00  0.00    +0.000 OA
ATOM      3  C   UNL     1       5.298   4.188  18.460  0.00  0.00    +0.000 C 
ATOM      4  C   UNL     1       4.551   5.093  19.372  0.00  0.00    +0.000 C 
ATOM      5  C   UNL     1       3.376   5.577  18.561  0.00  0.00    +0.000 C 
ATOM      6  C   UNL     1       2.480   6.401  19.422  0.00  0.00    +0.000 A 
ATOM      7  C   UNL     1       1.743   5.981  20.553  0.00  0.00    +0.000 A 
ATOM      8  C   UNL     1       0.888   6.914  21.130  0.00  0.00    +0.000 A 
ATOM      9  C   UNL     1       0.804   8.210  20.592  0.00  0.00    +0.000 A 
ATOM     10  C   UNL     1       1.636   8.617  19.518  0.00  0.00    +0.000 A 
ATOM     11 CL   UNL     1       1.471  10.228  18.944  0.00  0.00    +0.000 Cl
ATOM     12  C   UNL     1       2.509   7.704  18.931  0.00  0.00    +0.000 A 
ATOM     13  N   UNL     1       3.609   7.914  17.976  0.00  0.00    +0.000 N 
ATOM     14  C   UNL     1       3.869   6.527  17.422  0.00  0.00    +0.000 C 
ATOM     15  H   UNL     1       3.270   8.595  17.290  0.00  0.00    +0.000 HD
ENDROOT
BRANCH   7  16
ATOM     16  C   UNL     1       2.046   4.631  21.176  0.00  0.00    +0.000 C 
ATOM     17  C   UNL     1       1.267   3.378  20.843  0.00  0.00    +0.000 C 
ENDBRANCH   7  16
BRANCH   1  18
ATOM     18  C   UNL     1       6.519   6.988  16.506  0.00  0.00    +0.000 C 
BRANCH  18  20
ATOM     19  C   UNL     1       7.865   8.715  17.769  0.00  0.00    +0.000 C 
ATOM     20  C   UNL     1       7.638   7.238  17.524  0.00  0.00    +0.000 C 
ENDBRANCH  18  20
ENDBRANCH   1  18
BRANCH   1  21
ATOM     21  C   UNL     1       5.168   5.216  15.481  0.00  0.00    +0.000 C 
BRANCH  21  22
ATOM     22  C   UNL     1       6.389   4.533  14.917  0.00  0.00    +0.000 C 
ATOM     23  O   UNL     1       7.185   5.044  14.164  0.00  0.00    +0.000 OA
BRANCH  22  24
ATOM     24  O   UNL     1       6.569   3.262  15.364  0.00  0.00    +0.000 OA
ATOM     25  H   UNL     1       7.325   2.793  14.968  0.00  0.00    +0.000 HD
ENDBRANCH  22  24
ENDBRANCH  21  22
ENDBRANCH   1  21
TORSDOF 6
ENDMDL
MODEL 5
REMARK VINA RESULT:      -7.0      3.074      6.261
REMARK  Name = 
REMARK  8 active torsions:
REMARK  status: ('A' for Active; 'I' for Inactive)
REMARK    1  A    between atoms: C_1  and  C_2
REMARK    2  A    between atoms: C_2  and  C_3
REMARK    3  A    between atoms: C_3  and  C_4
REMARK    4  A    between atoms: C_4  and  C_5
REMARK    5  A    between atoms: C_5  and  C_6
REMARK    6  A    between atoms: C_6  and  O_8
REMARK    7  A    between atoms: C_14  and  C_15
REMARK    8  A    between atoms: C_15  and  C_16
REMARK                            x       y       z     vdW  Elec       q    Type
REMARK                         _______ _______ _______ _____ _____    ______ ____
ROOT
ATOM      1  C   UNL     1       3.301   3.626  19.819  0.00  0.00    +0.000 C 
ATOM      2  O   UNL     1       2.158   3.411  18.930  0.00  0.00    +0.000 OA
ATOM      3  C   UNL     1       2.433   2.898  17.655  0.00  0.00    +0.000 C 
ATOM      4  C   UNL     1       3.309   3.918  17.023  0.00  0.00    +0.000 C 
ATOM      5  C   UNL     1       4.687   3.635  17.564  0.00  0.00    +0.000 C 
ATOM      6  C   UNL     1       5.679   4.526  16.897  0.00  0.00    +0.000 A 
ATOM      7  C   UNL     1       6.035   4.551  15.529  0.00  0.00    +0.000 A 
ATOM      8  C   UNL     1       7.072   5.404  15.162  0.00  0.00    +0.000 A 
ATOM      9  C   UNL     1       7.697   6.201  16.138  0.00  0.00    +0.000 A 
ATOM     10  C   UNL     1       7.240   6.215  17.480  0.00  0.00    +0.000 A 
ATOM     11 CL   UNL     1       8.059   7.237  18.593  0.00  0.00    +0.000 Cl
ATOM     12  C   UNL     1       6.196   5.379  17.869  0.00  0.00    +0.000 A 
ATOM     13  N   UNL     1       5.403   5.355  19.109  0.00  0.00    +0.000 N 
ATOM     14  C   UNL     1       4.748   3.988  19.085  0.00  0.00    +0.000 C 
ATOM     15  H   UNL     1       6.064   5.502  19.877  0.00  0.00    +0.000 HD
ENDROOT
BRANCH   7  16
ATOM     16  C   UNL     1       5.176   3.806  14.525  0.00  0.00    +0.000 C 
ATOM     17  C   UNL     1       5.569   3.631  13.075  0.00  0.00    +0.000 C 
ENDBRANCH   7  16
BRANCH   1  18
ATOM     18  C   UNL     1       2.613   4.573  20.866  0.00  0.00    +0.000 C 
BRANCH  18  20
ATOM     19  C   UNL     1       2.226   6.900  19.956  0.00  0.00    +0.000 C 
ATOM     20  C   UNL     1       1.577   5.614  20.425  0.00  0.00    +0.000 C 
ENDBRANCH  18  20
ENDBRANCH   1  18
BRANCH   1  21
ATOM     21  C   UNL     1       3.373   2.257  20.596  0.00  0.00    +0.000 C 
BRANCH  21  22
ATOM     22  C   UNL     1       4.667   1.484  20.532  0.00  0.00    +0.000 C 
ATOM     23  O   UNL     1       5.512   1.470  21.398  0.00  0.00    +0.000 OA
BRANCH  22  24
ATOM     24  O   UNL     1       4.811   0.736  19.406  0.00  0.00    +0.000 OA
ATOM     25  H   UNL     1       3.984   0.366  19.052  0.00  0.00    +0.000 HD
ENDBRANCH  22  24
ENDBRANCH  21  22
ENDBRANCH   1  21
TORSDOF 6
ENDMDL
MODEL 6
REMARK VINA RESULT:      -7.0      3.242      6.511
REMARK  Name = 
REMARK  8 active torsions:
REMARK  status: ('A' for Active; 'I' for Inactive)
REMARK    1  A    between atoms: C_1  and  C_2
REMARK    2  A    between atoms: C_2  and  C_3
REMARK    3  A    between atoms: C_3  and  C_4
REMARK    4  A    between atoms: C_4  and  C_5
REMARK    5  A    between atoms: C_5  and  C_6
REMARK    6  A    between atoms: C_6  and  O_8
REMARK    7  A    between atoms: C_14  and  C_15
REMARK    8  A    between atoms: C_15  and  C_16
REMARK                            x       y       z     vdW  Elec       q    Type
REMARK                         _______ _______ _______ _____ _____    ______ ____
ROOT
ATOM      1  C   UNL     1       2.067   4.327  19.731  0.00  0.00    +0.000 C 
ATOM      2  O   UNL     1       1.185   4.636  18.604  0.00  0.00    +0.000 OA
ATOM      3  C   UNL     1       1.532   4.091  17.359  0.00  0.00    +0.000 C 
ATOM      4  C   UNL     1       2.867   4.670  17.058  0.00  0.00    +0.000 C 
ATOM      5  C   UNL     1       3.842   3.821  17.833  0.00  0.00    +0.000 C 
ATOM      6  C   UNL     1       5.236   4.234  17.505  0.00  0.00    +0.000 A 
ATOM      7  C   UNL     1       5.891   4.147  16.256  0.00  0.00    +0.000 A 
ATOM      8  C   UNL     1       7.237   4.499  16.224  0.00  0.00    +0.000 A 
ATOM      9  C   UNL     1       7.873   4.933  17.401  0.00  0.00    +0.000 A 
ATOM     10  C   UNL     1       7.150   5.099  18.609  0.00  0.00    +0.000 A 
ATOM     11 CL   UNL     1       8.013   5.652  19.988  0.00  0.00    +0.000 Cl
ATOM     12  C   UNL     1       5.799   4.765  18.663  0.00  0.00    +0.000 A 
ATOM     13  N   UNL     1       4.788   5.039  19.698  0.00  0.00    +0.000 N 
ATOM     14  C   UNL     1       3.668   4.073  19.366  0.00  0.00    +0.000 C 
ATOM     15  H   UNL     1       5.246   4.874  20.600  0.00  0.00    +0.000 HD
ENDROOT
BRANCH   7  16
ATOM     16  C   UNL     1       5.077   3.858  15.009  0.00  0.00    +0.000 C 
ATOM     17  C   UNL     1       5.669   3.877  13.617  0.00  0.00    +0.000 C 
ENDBRANCH   7  16
BRANCH   1  18
ATOM     18  C   UNL     1       1.584   5.446  20.723  0.00  0.00    +0.000 C 
BRANCH  18  20
ATOM     19  C   UNL     1       0.993   7.843  21.265  0.00  0.00    +0.000 C 
ATOM     20  C   UNL     1       1.876   6.926  20.444  0.00  0.00    +0.000 C 
ENDBRANCH  18  20
ENDBRANCH   1  18
BRANCH   1  21
ATOM     21  C   UNL     1       1.396   3.032  20.327  0.00  0.00    +0.000 C 
BRANCH  21  22
ATOM     22  C   UNL     1       1.837   2.584  21.698  0.00  0.00    +0.000 C 
ATOM     23  O   UNL     1       2.985   2.410  22.036  0.00  0.00    +0.000 OA
BRANCH  22  24
ATOM     24  O   UNL     1       0.818   2.422  22.583  0.00  0.00    +0.000 OA
ATOM     25  H   UNL     1       0.283   3.220  22.742  0.00  0.00    +0.000 HD
ENDBRANCH  22  24
ENDBRANCH  21  22
ENDBRANCH   1  21
TORSDOF 6
ENDMDL
MODEL 7
REMARK VINA RESULT:      -6.9      3.398      6.671
REMARK  Name = 
REMARK  8 active torsions:
REMARK  status: ('A' for Active; 'I' for Inactive)
REMARK    1  A    between atoms: C_1  and  C_2
REMARK    2  A    between atoms: C_2  and  C_3
REMARK    3  A    between atoms: C_3  and  C_4
REMARK    4  A    between atoms: C_4  and  C_5
REMARK    5  A    between atoms: C_5  and  C_6
REMARK    6  A    between atoms: C_6  and  O_8
REMARK    7  A    between atoms: C_14  and  C_15
REMARK    8  A    between atoms: C_15  and  C_16
REMARK                            x       y       z     vdW  Elec       q    Type
REMARK                         _______ _______ _______ _____ _____    ______ ____
ROOT
ATOM      1  C   UNL     1       2.889   4.180  19.683  0.00  0.00    +0.000 C 
ATOM      2  O   UNL     1       1.805   4.017  18.713  0.00  0.00    +0.000 OA
ATOM      3  C   UNL     1       2.123   3.370  17.510  0.00  0.00    +0.000 C 
ATOM      4  C   UNL     1       3.160   4.231  16.886  0.00  0.00    +0.000 C 
ATOM      5  C   UNL     1       4.447   3.844  17.570  0.00  0.00    +0.000 C 
ATOM      6  C   UNL     1       5.587   4.561  16.931  0.00  0.00    +0.000 A 
ATOM      7  C   UNL     1       6.055   4.430  15.603  0.00  0.00    +0.000 A 
ATOM      8  C   UNL     1       7.211   5.130  15.270  0.00  0.00    +0.000 A 
ATOM      9  C   UNL     1       7.843   5.933  16.236  0.00  0.00    +0.000 A 
ATOM     10  C   UNL     1       7.282   6.112  17.526  0.00  0.00    +0.000 A 
ATOM     11 CL   UNL     1       8.121   7.128  18.629  0.00  0.00    +0.000 Cl
ATOM     12  C   UNL     1       6.119   5.431  17.879  0.00  0.00    +0.000 A 
ATOM     13  N   UNL     1       5.230   5.600  19.040  0.00  0.00    +0.000 N 
ATOM     14  C   UNL     1       4.423   4.317  19.059  0.00  0.00    +0.000 C 
ATOM     15  H   UNL     1       5.838   5.739  19.853  0.00  0.00    +0.000 HD
ENDROOT
BRANCH   7  16
ATOM     16  C   UNL     1       5.201   3.701  14.584  0.00  0.00    +0.000 C 
ATOM     17  C   UNL     1       5.592   3.564  13.130  0.00  0.00    +0.000 C 
ENDBRANCH   7  16
BRANCH   1  18
ATOM     18  C   UNL     1       2.233   5.283  20.589  0.00  0.00    +0.000 C 
BRANCH  18  20
ATOM     19  C   UNL     1       1.315   7.588  21.073  0.00  0.00    +0.000 C 
ATOM     20  C   UNL     1       2.058   6.719  20.080  0.00  0.00    +0.000 C 
ENDBRANCH  18  20
ENDBRANCH   1  18
BRANCH   1  21
ATOM     21  C   UNL     1       2.736   2.882  20.564  0.00  0.00    +0.000 C 
BRANCH  21  22
ATOM     22  C   UNL     1       1.436   2.691  21.307  0.00  0.00    +0.000 C 
ATOM     23  O   UNL     1       1.333   2.548  22.503  0.00  0.00    +0.000 OA
BRANCH  22  24
ATOM     24  O   UNL     1       0.333   2.737  20.513  0.00  0.00    +0.000 OA
ATOM     25  H   UNL     1       0.156   1.921  20.013  0.00  0.00    +0.000 HD
ENDBRANCH  22  24
ENDBRANCH  21  22
ENDBRANCH   1  21
TORSDOF 6
ENDMDL
MODEL 8
REMARK VINA RESULT:      -6.8      2.455      3.968
REMARK  Name = 
REMARK  8 active torsions:
REMARK  status: ('A' for Active; 'I' for Inactive)
REMARK    1  A    between atoms: C_1  and  C_2
REMARK    2  A    between atoms: C_2  and  C_3
REMARK    3  A    between atoms: C_3  and  C_4
REMARK    4  A    between atoms: C_4  and  C_5
REMARK    5  A    between atoms: C_5  and  C_6
REMARK    6  A    between atoms: C_6  and  O_8
REMARK    7  A    between atoms: C_14  and  C_15
REMARK    8  A    between atoms: C_15  and  C_16
REMARK                            x       y       z     vdW  Elec       q    Type
REMARK                         _______ _______ _______ _____ _____    ______ ____
ROOT
ATOM      1  C   UNL     1       5.716   5.945  16.542  0.00  0.00    +0.000 C 
ATOM      2  O   UNL     1       6.510   4.812  17.021  0.00  0.00    +0.000 OA
ATOM      3  C   UNL     1       5.803   3.693  17.482  0.00  0.00    +0.000 C 
ATOM      4  C   UNL     1       5.006   4.201  18.629  0.00  0.00    +0.000 C 
ATOM      5  C   UNL     1       3.799   4.852  18.003  0.00  0.00    +0.000 C 
ATOM      6  C   UNL     1       2.858   5.291  19.072  0.00  0.00    +0.000 A 
ATOM      7  C   UNL     1       2.155   4.479  19.992  0.00  0.00    +0.000 A 
ATOM      8  C   UNL     1       1.245   5.118  20.829  0.00  0.00    +0.000 A 
ATOM      9  C   UNL     1       1.078   6.511  20.744  0.00  0.00    +0.000 A 
ATOM     10  C   UNL     1       1.876   7.297  19.876  0.00  0.00    +0.000 A 
ATOM     11 CL   UNL     1       1.607   8.994  19.857  0.00  0.00    +0.000 Cl
ATOM     12  C   UNL     1       2.802   6.682  19.035  0.00  0.00    +0.000 A 
ATOM     13  N   UNL     1       3.881   7.261  18.219  0.00  0.00    +0.000 N 
ATOM     14  C   UNL     1       4.225   6.151  17.246  0.00  0.00    +0.000 C 
ATOM     15  H   UNL     1       3.496   8.107  17.788  0.00  0.00    +0.000 HD
ENDROOT
BRANCH   7  16
ATOM     16  C   UNL     1       2.545   3.022  20.143  0.00  0.00    +0.000 C 
ATOM     17  C   UNL     1       1.950   1.918  19.298  0.00  0.00    +0.000 C 
ENDBRANCH   7  16
BRANCH   1  18
ATOM     18  C   UNL     1       6.835   7.048  16.572  0.00  0.00    +0.000 C 
BRANCH  18  20
ATOM     19  C   UNL     1       8.154   8.719  17.935  0.00  0.00    +0.000 C 
ATOM     20  C   UNL     1       7.673   7.287  17.835  0.00  0.00    +0.000 C 
ENDBRANCH  18  20
ENDBRANCH   1  18
BRANCH   1  21
ATOM     21  C   UNL     1       5.593   5.629  15.003  0.00  0.00    +0.000 C 
BRANCH  21  22
ATOM     22  C   UNL     1       6.727   4.878  14.351  0.00  0.00    +0.000 C 
ATOM     23  O   UNL     1       7.788   5.362  14.030  0.00  0.00    +0.000 OA
BRANCH  22  24
ATOM     24  O   UNL     1       6.485   3.551  14.178  0.00  0.00    +0.000 OA
ATOM     25  H   UNL     1       7.258   2.974  14.306  0.00  0.00    +0.000 HD
ENDBRANCH  22  24
ENDBRANCH  21  22
ENDBRANCH   1  21
TORSDOF 6
ENDMDL
MODEL 9
REMARK VINA RESULT:      -6.8      1.096      1.409
REMARK  Name = 
REMARK  8 active torsions:
REMARK  status: ('A' for Active; 'I' for Inactive)
REMARK    1  A    between atoms: C_1  and  C_2
REMARK    2  A    between atoms: C_2  and  C_3
REMARK    3  A    between atoms: C_3  and  C_4
REMARK    4  A    between atoms: C_4  and  C_5
REMARK    5  A    between atoms: C_5  and  C_6
REMARK    6  A    between atoms: C_6  and  O_8
REMARK    7  A    between atoms: C_14  and  C_15
REMARK    8  A    between atoms: C_15  and  C_16
REMARK                            x       y       z     vdW  Elec       q    Type
REMARK                         _______ _______ _______ _____ _____    ______ ____
ROOT
ATOM      1  C   UNL     1       5.313   6.146  16.772  0.00  0.00    +0.000 C 
ATOM      2  O   UNL     1       4.452   7.283  16.443  0.00  0.00    +0.000 OA
ATOM      3  C   UNL     1       3.679   7.815  17.484  0.00  0.00    +0.000 C 
ATOM      4  C   UNL     1       2.801   6.694  17.908  0.00  0.00    +0.000 C 
ATOM      5  C   UNL     1       3.660   5.853  18.818  0.00  0.00    +0.000 C 
ATOM      6  C   UNL     1       2.838   4.758  19.408  0.00  0.00    +0.000 A 
ATOM      7  C   UNL     1       1.734   4.881  20.283  0.00  0.00    +0.000 A 
ATOM      8  C   UNL     1       1.195   3.702  20.788  0.00  0.00    +0.000 A 
ATOM      9  C   UNL     1       1.743   2.465  20.405  0.00  0.00    +0.000 A 
ATOM     10  C   UNL     1       2.786   2.385  19.449  0.00  0.00    +0.000 A 
ATOM     11 CL   UNL     1       3.376   0.825  19.034  0.00  0.00    +0.000 Cl
ATOM     12  C   UNL     1       3.335   3.552  18.920  0.00  0.00    +0.000 A 
ATOM     13  N   UNL     1       4.248   3.746  17.782  0.00  0.00    +0.000 N 
ATOM     14  C   UNL     1       4.784   5.149  17.992  0.00  0.00    +0.000 C 
ATOM     15  H   UNL     1       4.951   3.003  17.845  0.00  0.00    +0.000 HD
ENDROOT
BRANCH   7  16
ATOM     16  C   UNL     1       1.092   6.241  20.480  0.00  0.00    +0.000 C 
ATOM     17  C   UNL     1       1.741   7.349  21.279  0.00  0.00    +0.000 C 
ENDBRANCH   7  16
BRANCH   1  18
ATOM     18  C   UNL     1       5.600   5.635  15.315  0.00  0.00    +0.000 C 
BRANCH  18  20
ATOM     19  C   UNL     1       6.204   3.886  13.592  0.00  0.00    +0.000 C 
ATOM     20  C   UNL     1       6.146   4.223  15.068  0.00  0.00    +0.000 C 
ENDBRANCH  18  20
ENDBRANCH   1  18
BRANCH   1  21
ATOM     21  C   UNL     1       6.666   6.859  17.153  0.00  0.00    +0.000 C 
BRANCH  21  22
ATOM     22  C   UNL     1       7.620   6.114  18.054  0.00  0.00    +0.000 C 
ATOM     23  O   UNL     1       7.888   4.938  17.962  0.00  0.00    +0.000 OA
BRANCH  22  24
ATOM     24  O   UNL     1       8.219   6.894  18.993  0.00  0.00    +0.000 OA
ATOM     25  H   UNL     1       7.687   7.650  19.297  0.00  0.00    +0.000 HD
ENDBRANCH  22  24
ENDBRANCH  21  22
ENDBRANCH   1  21
TORSDOF 6
ENDMDL
