MODEL 1
REMARK VINA RESULT:      -8.7      0.000      0.000
REMARK  Name = 
REMARK  10 active torsions:
REMARK  status: ('A' for Active; 'I' for Inactive)
REMARK    1  A    between atoms: C_1  and  C_2
REMARK    2  A    between atoms: C_2  and  C_3
REMARK    3  A    between atoms: C_4  and  C_5
REMARK    4  A    between atoms: C_5  and  C_6
REMARK    5  A    between atoms: C_6  and  C_7
REMARK    6  A    between atoms: C_7  and  C_8
REMARK    7  A    between atoms: C_7  and  O_9
REMARK    8  A    between atoms: C_7  and  C_10
REMARK    9  A    between atoms: C_13  and  C_14
REMARK   10  A    between atoms: C_24  and  O_25
REMARK                            x       y       z     vdW  Elec       q    Type
REMARK                         _______ _______ _______ _____ _____    ______ ____
ROOT
ATOM      1  C   UNL     1       5.823   6.079  16.766  0.00  0.00    +0.000 C 
ATOM      2  C   UNL     1       6.311   6.346  18.201  0.00  0.00    +0.000 C 
ATOM      3  C   UNL     1       5.664   5.259  19.074  0.00  0.00    +0.000 C 
ATOM      4  C   UNL     1       4.384   4.803  18.335  0.00  0.00    +0.000 C 
ATOM      5  C   UNL     1       4.367   3.303  17.997  0.00  0.00    +0.000 C 
ATOM      6  O   UNL     1       3.267   4.862  19.231  0.00  0.00    +0.000 OA
ATOM      7  C   UNL     1       2.604   6.040  19.436  0.00  0.00    +0.000 C 
ATOM      8  C   UNL     1       2.703   7.061  18.584  0.00  0.00    +0.000 C 
ATOM      9  C   UNL     1       3.478   6.995  17.302  0.00  0.00    +0.000 C 
ATOM     10  C   UNL     1       4.319   5.702  17.075  0.00  0.00    +0.000 C 
ATOM     11  C   UNL     1       2.003   8.324  18.924  0.00  0.00    +0.000 C 
ATOM     12  O   UNL     1       1.879   9.204  18.073  0.00  0.00    +0.000 OA
ATOM     13  C   UNL     1       1.550   8.556  20.349  0.00  0.00    +0.000 C 
ATOM     14  C   UNL     1       1.123   7.318  21.117  0.00  0.00    +0.000 C 
ATOM     15  C   UNL     1       1.770   6.009  20.689  0.00  0.00    +0.000 C 
ENDROOT
BRANCH   1  16
ATOM     16  C   UNL     1       6.732   5.039  16.002  0.00  0.00    +0.000 C 
ATOM     17  C   UNL     1       7.711   4.332  16.952  0.00  0.00    +0.000 C 
BRANCH  16  18
ATOM     18  O   UNL     1       7.502   5.731  15.023  0.00  0.00    +0.000 OA
ATOM     19  H   UNL     1       7.826   6.571  15.410  0.00  0.00    +0.000 HD
ENDBRANCH  16  18
BRANCH  16  20
ATOM     20  C   UNL     1       5.937   3.997  15.157  0.00  0.00    +0.000 C 
BRANCH  20  21
ATOM     21  C   UNL     1       6.367   3.816  13.703  0.00  0.00    +0.000 C 
BRANCH  21  25
ATOM     22  C   UNL     1       3.664   3.135  10.950  0.00  0.00    +0.000 C 
ATOM     23  C   UNL     1       4.939   3.020  11.743  0.00  0.00    +0.000 C 
ATOM     24  C   UNL     1       5.859   1.890  11.376  0.00  0.00    +0.000 C 
ATOM     25  C   UNL     1       5.210   3.895  12.735  0.00  0.00    +0.000 C 
ENDBRANCH  21  25
ENDBRANCH  20  21
ENDBRANCH  16  20
ENDBRANCH   1  16
BRANCH  15  26
ATOM     26  O   UNL     1       0.722   5.052  20.531  0.00  0.00    +0.000 OA
ATOM     27  H   UNL     1       0.463   5.042  19.593  0.00  0.00    +0.000 HD
ENDBRANCH  15  26
TORSDOF 6
ENDMDL
MODEL 2
REMARK VINA RESULT:      -8.1      2.075      2.968
REMARK  Name = 
REMARK  10 active torsions:
REMARK  status: ('A' for Active; 'I' for Inactive)
REMARK    1  A    between atoms: C_1  and  C_2
REMARK    2  A    between atoms: C_2  and  C_3
REMARK    3  A    between atoms: C_4  and  C_5
REMARK    4  A    between atoms: C_5  and  C_6
REMARK    5  A    between atoms: C_6  and  C_7
REMARK    6  A    between atoms: C_7  and  C_8
REMARK    7  A    between atoms: C_7  and  O_9
REMARK    8  A    between atoms: C_7  and  C_10
REMARK    9  A    between atoms: C_13  and  C_14
REMARK   10  A    between atoms: C_24  and  O_25
REMARK                            x       y       z     vdW  Elec       q    Type
REMARK                         _______ _______ _______ _____ _____    ______ ____
ROOT
ATOM      1  C   UNL     1       5.225   4.692  16.302  0.00  0.00    +0.000 C 
ATOM      2  C   UNL     1       4.247   5.850  16.571  0.00  0.00    +0.000 C 
ATOM      3  C   UNL     1       4.451   6.238  18.044  0.00  0.00    +0.000 C 
ATOM      4  C   UNL     1       5.012   4.986  18.758  0.00  0.00    +0.000 C 
ATOM      5  C   UNL     1       6.379   5.214  19.422  0.00  0.00    +0.000 C 
ATOM      6  O   UNL     1       4.222   4.702  19.920  0.00  0.00    +0.000 OA
ATOM      7  C   UNL     1       3.059   3.992  19.811  0.00  0.00    +0.000 C 
ATOM      8  C   UNL     1       2.793   3.236  18.745  0.00  0.00    +0.000 C 
ATOM      9  C   UNL     1       3.756   3.035  17.615  0.00  0.00    +0.000 C 
ATOM     10  C   UNL     1       5.055   3.897  17.657  0.00  0.00    +0.000 C 
ATOM     11  C   UNL     1       1.476   2.556  18.684  0.00  0.00    +0.000 C 
ATOM     12  O   UNL     1       1.278   1.679  17.843  0.00  0.00    +0.000 OA
ATOM     13  C   UNL     1       0.358   3.030  19.585  0.00  0.00    +0.000 C 
ATOM     14  C   UNL     1       0.783   3.560  20.943  0.00  0.00    +0.000 C 
ATOM     15  C   UNL     1       2.178   4.161  21.019  0.00  0.00    +0.000 C 
ENDROOT
BRANCH   1  16
ATOM     16  C   UNL     1       6.661   5.198  15.886  0.00  0.00    +0.000 C 
ATOM     17  C   UNL     1       7.766   4.510  16.702  0.00  0.00    +0.000 C 
BRANCH  16  18
ATOM     18  O   UNL     1       6.748   6.598  16.136  0.00  0.00    +0.000 OA
ATOM     19  H   UNL     1       5.851   6.941  16.333  0.00  0.00    +0.000 HD
ENDBRANCH  16  18
BRANCH  16  20
ATOM     20  C   UNL     1       6.957   5.091  14.358  0.00  0.00    +0.000 C 
BRANCH  20  21
ATOM     21  C   UNL     1       6.567   3.785  13.671  0.00  0.00    +0.000 C 
BRANCH  21  25
ATOM     22  C   UNL     1       3.772   3.289  10.971  0.00  0.00    +0.000 C 
ATOM     23  C   UNL     1       5.036   3.067  11.759  0.00  0.00    +0.000 C 
ATOM     24  C   UNL     1       5.820   1.826  11.438  0.00  0.00    +0.000 C 
ATOM     25  C   UNL     1       5.414   3.950  12.708  0.00  0.00    +0.000 C 
ENDBRANCH  21  25
ENDBRANCH  20  21
ENDBRANCH  16  20
ENDBRANCH   1  16
BRANCH  15  26
ATOM     26  O   UNL     1       2.824   3.585  22.155  0.00  0.00    +0.000 OA
ATOM     27  H   UNL     1       3.681   3.226  21.864  0.00  0.00    +0.000 HD
ENDBRANCH  15  26
TORSDOF 6
ENDMDL
MODEL 3
REMARK VINA RESULT:      -7.8      2.221      3.250
REMARK  Name = 
REMARK  10 active torsions:
REMARK  status: ('A' for Active; 'I' for Inactive)
REMARK    1  A    between atoms: C_1  and  C_2
REMARK    2  A    between atoms: C_2  and  C_3
REMARK    3  A    between atoms: C_4  and  C_5
REMARK    4  A    between atoms: C_5  and  C_6
REMARK    5  A    between atoms: C_6  and  C_7
REMARK    6  A    between atoms: C_7  and  C_8
REMARK    7  A    between atoms: C_7  and  O_9
REMARK    8  A    between atoms: C_7  and  C_10
REMARK    9  A    between atoms: C_13  and  C_14
REMARK   10  A    between atoms: C_24  and  O_25
REMARK                            x       y       z     vdW  Elec       q    Type
REMARK                         _______ _______ _______ _____ _____    ______ ____
ROOT
ATOM      1  C   UNL     1       4.228   5.686  16.625  0.00  0.00    +0.000 C 
ATOM      2  C   UNL     1       3.796   6.579  17.803  0.00  0.00    +0.000 C 
ATOM      3  C   UNL     1       4.608   6.096  19.015  0.00  0.00    +0.000 C 
ATOM      4  C   UNL     1       4.987   4.622  18.735  0.00  0.00    +0.000 C 
ATOM      5  C   UNL     1       6.502   4.364  18.727  0.00  0.00    +0.000 C 
ATOM      6  O   UNL     1       4.609   3.810  19.853  0.00  0.00    +0.000 OA
ATOM      7  C   UNL     1       3.327   3.350  19.975  0.00  0.00    +0.000 C 
ATOM      8  C   UNL     1       2.494   3.308  18.935  0.00  0.00    +0.000 C 
ATOM      9  C   UNL     1       2.893   3.685  17.540  0.00  0.00    +0.000 C 
ATOM     10  C   UNL     1       4.316   4.299  17.377  0.00  0.00    +0.000 C 
ATOM     11  C   UNL     1       1.100   2.858  19.176  0.00  0.00    +0.000 C 
ATOM     12  O   UNL     1       0.370   2.589  18.223  0.00  0.00    +0.000 OA
ATOM     13  C   UNL     1       0.563   2.844  20.590  0.00  0.00    +0.000 C 
ATOM     14  C   UNL     1       1.574   2.528  21.678  0.00  0.00    +0.000 C 
ATOM     15  C   UNL     1       3.018   2.898  21.377  0.00  0.00    +0.000 C 
ENDROOT
BRANCH   1  16
ATOM     16  C   UNL     1       5.507   6.240  15.885  0.00  0.00    +0.000 C 
ATOM     17  C   UNL     1       6.453   6.970  16.851  0.00  0.00    +0.000 C 
BRANCH  16  18
ATOM     18  O   UNL     1       5.097   7.177  14.892  0.00  0.00    +0.000 OA
ATOM     19  H   UNL     1       4.310   6.822  14.428  0.00  0.00    +0.000 HD
ENDBRANCH  16  18
BRANCH  16  20
ATOM     20  C   UNL     1       6.283   5.166  15.062  0.00  0.00    +0.000 C 
BRANCH  20  21
ATOM     21  C   UNL     1       5.468   4.332  14.077  0.00  0.00    +0.000 C 
BRANCH  21  25
ATOM     22  C   UNL     1       6.984   2.203  11.158  0.00  0.00    +0.000 C 
ATOM     23  C   UNL     1       5.972   2.928  12.006  0.00  0.00    +0.000 C 
ATOM     24  C   UNL     1       4.580   3.030  11.450  0.00  0.00    +0.000 C 
ATOM     25  C   UNL     1       6.329   3.458  13.195  0.00  0.00    +0.000 C 
ENDBRANCH  21  25
ENDBRANCH  20  21
ENDBRANCH  16  20
ENDBRANCH   1  16
BRANCH  15  26
ATOM     26  O   UNL     1       3.820   1.759  21.690  0.00  0.00    +0.000 OA
ATOM     27  H   UNL     1       3.318   0.961  21.447  0.00  0.00    +0.000 HD
ENDBRANCH  15  26
TORSDOF 6
ENDMDL
MODEL 4
REMARK VINA RESULT:      -7.2      3.035      5.807
REMARK  Name = 
REMARK  10 active torsions:
REMARK  status: ('A' for Active; 'I' for Inactive)
REMARK    1  A    between atoms: C_1  and  C_2
REMARK    2  A    between atoms: C_2  and  C_3
REMARK    3  A    between atoms: C_4  and  C_5
REMARK    4  A    between atoms: C_5  and  C_6
REMARK    5  A    between atoms: C_6  and  C_7
REMARK    6  A    between atoms: C_7  and  C_8
REMARK    7  A    between atoms: C_7  and  O_9
REMARK    8  A    between atoms: C_7  and  C_10
REMARK    9  A    between atoms: C_13  and  C_14
REMARK   10  A    between atoms: C_24  and  O_25
REMARK                            x       y       z     vdW  Elec       q    Type
REMARK                         _______ _______ _______ _____ _____    ______ ____
ROOT
ATOM      1  C   UNL     1       5.922   6.382  18.552  0.00  0.00    +0.000 C 
ATOM      2  C   UNL     1       6.345   5.162  19.390  0.00  0.00    +0.000 C 
ATOM      3  C   UNL     1       5.982   3.928  18.549  0.00  0.00    +0.000 C 
ATOM      4  C   UNL     1       4.841   4.361  17.599  0.00  0.00    +0.000 C 
ATOM      5  C   UNL     1       5.177   4.188  16.109  0.00  0.00    +0.000 C 
ATOM      6  O   UNL     1       3.749   3.439  17.710  0.00  0.00    +0.000 OA
ATOM      7  C   UNL     1       2.828   3.572  18.710  0.00  0.00    +0.000 C 
ATOM      8  C   UNL     1       2.674   4.716  19.378  0.00  0.00    +0.000 C 
ATOM      9  C   UNL     1       3.431   5.969  19.054  0.00  0.00    +0.000 C 
ATOM     10  C   UNL     1       4.553   5.835  17.981  0.00  0.00    +0.000 C 
ATOM     11  C   UNL     1       1.697   4.748  20.494  0.00  0.00    +0.000 C 
ATOM     12  O   UNL     1       1.360   5.825  20.983  0.00  0.00    +0.000 OA
ATOM     13  C   UNL     1       1.214   3.443  21.088  0.00  0.00    +0.000 C 
ATOM     14  C   UNL     1       1.100   2.278  20.122  0.00  0.00    +0.000 C 
ATOM     15  C   UNL     1       2.036   2.310  18.923  0.00  0.00    +0.000 C 
ENDROOT
BRANCH   1  16
ATOM     16  C   UNL     1       7.045   6.841  17.543  0.00  0.00    +0.000 C 
ATOM     17  C   UNL     1       6.465   7.656  16.377  0.00  0.00    +0.000 C 
BRANCH  16  18
ATOM     18  O   UNL     1       7.672   5.685  16.994  0.00  0.00    +0.000 OA
ATOM     19  H   UNL     1       8.332   5.348  17.635  0.00  0.00    +0.000 HD
ENDBRANCH  16  18
BRANCH  16  20
ATOM     20  C   UNL     1       8.230   7.604  18.212  0.00  0.00    +0.000 C 
BRANCH  20  21
ATOM     21  C   UNL     1       8.270   9.118  18.020  0.00  0.00    +0.000 C 
BRANCH  21  25
ATOM     22  C   UNL     1      10.250  11.611  20.302  0.00  0.00    +0.000 C 
ATOM     23  C   UNL     1       9.776  10.894  19.067  0.00  0.00    +0.000 C 
ATOM     24  C   UNL     1      10.270  11.423  17.750  0.00  0.00    +0.000 C 
ATOM     25  C   UNL     1       8.940   9.838  19.167  0.00  0.00    +0.000 C 
ENDBRANCH  21  25
ENDBRANCH  20  21
ENDBRANCH  16  20
ENDBRANCH   1  16
BRANCH  15  26
ATOM     26  O   UNL     1       1.244   2.053  17.762  0.00  0.00    +0.000 OA
ATOM     27  H   UNL     1       0.730   1.242  17.922  0.00  0.00    +0.000 HD
ENDBRANCH  15  26
TORSDOF 6
ENDMDL
MODEL 5
REMARK VINA RESULT:      -7.2      1.819      3.350
REMARK  Name = 
REMARK  10 active torsions:
REMARK  status: ('A' for Active; 'I' for Inactive)
REMARK    1  A    between atoms: C_1  and  C_2
REMARK    2  A    between atoms: C_2  and  C_3
REMARK    3  A    between atoms: C_4  and  C_5
REMARK    4  A    between atoms: C_5  and  C_6
REMARK    5  A    between atoms: C_6  and  C_7
REMARK    6  A    between atoms: C_7  and  C_8
REMARK    7  A    between atoms: C_7  and  O_9
REMARK    8  A    between atoms: C_7  and  C_10
REMARK    9  A    between atoms: C_13  and  C_14
REMARK   10  A    between atoms: C_24  and  O_25
REMARK                            x       y       z     vdW  Elec       q    Type
REMARK                         _______ _______ _______ _____ _____    ______ ____
ROOT
ATOM      1  C   UNL     1       5.813   4.461  16.882  0.00  0.00    +0.000 C 
ATOM      2  C   UNL     1       4.554   3.789  16.303  0.00  0.00    +0.000 C 
ATOM      3  C   UNL     1       3.394   4.755  16.589  0.00  0.00    +0.000 C 
ATOM      4  C   UNL     1       3.815   5.603  17.812  0.00  0.00    +0.000 C 
ATOM      5  C   UNL     1       3.846   7.115  17.536  0.00  0.00    +0.000 C 
ATOM      6  O   UNL     1       2.781   5.559  18.804  0.00  0.00    +0.000 OA
ATOM      7  C   UNL     1       2.708   4.515  19.683  0.00  0.00    +0.000 C 
ATOM      8  C   UNL     1       3.747   3.712  19.911  0.00  0.00    +0.000 C 
ATOM      9  C   UNL     1       5.098   3.915  19.294  0.00  0.00    +0.000 C 
ATOM     10  C   UNL     1       5.199   5.039  18.219  0.00  0.00    +0.000 C 
ATOM     11  C   UNL     1       3.554   2.564  20.830  0.00  0.00    +0.000 C 
ATOM     12  O   UNL     1       4.530   1.938  21.243  0.00  0.00    +0.000 OA
ATOM     13  C   UNL     1       2.149   2.108  21.156  0.00  0.00    +0.000 C 
ATOM     14  C   UNL     1       1.095   3.200  21.207  0.00  0.00    +0.000 C 
ATOM     15  C   UNL     1       1.356   4.422  20.340  0.00  0.00    +0.000 C 
ENDROOT
BRANCH   1  16
ATOM     16  C   UNL     1       6.493   5.452  15.859  0.00  0.00    +0.000 C 
ATOM     17  C   UNL     1       7.425   6.448  16.565  0.00  0.00    +0.000 C 
BRANCH  16  18
ATOM     18  O   UNL     1       5.478   6.203  15.199  0.00  0.00    +0.000 OA
ATOM     19  H   UNL     1       4.814   5.583  14.831  0.00  0.00    +0.000 HD
ENDBRANCH  16  18
BRANCH  16  20
ATOM     20  C   UNL     1       7.234   4.744  14.682  0.00  0.00    +0.000 C 
BRANCH  20  21
ATOM     21  C   UNL     1       6.482   4.640  13.358  0.00  0.00    +0.000 C 
BRANCH  21  25
ATOM     22  C   UNL     1       6.053   1.410  11.185  0.00  0.00    +0.000 C 
ATOM     23  C   UNL     1       5.723   2.704  11.878  0.00  0.00    +0.000 C 
ATOM     24  C   UNL     1       4.378   3.303  11.578  0.00  0.00    +0.000 C 
ATOM     25  C   UNL     1       6.614   3.280  12.713  0.00  0.00    +0.000 C 
ENDBRANCH  21  25
ENDBRANCH  20  21
ENDBRANCH  16  20
ENDBRANCH   1  16
BRANCH  15  26
ATOM     26  O   UNL     1       1.154   5.573  21.161  0.00  0.00    +0.000 OA
ATOM     27  H   UNL     1       1.688   6.301  20.796  0.00  0.00    +0.000 HD
ENDBRANCH  15  26
TORSDOF 6
ENDMDL
MODEL 6
REMARK VINA RESULT:      -7.2      1.931      3.772
REMARK  Name = 
REMARK  10 active torsions:
REMARK  status: ('A' for Active; 'I' for Inactive)
REMARK    1  A    between atoms: C_1  and  C_2
REMARK    2  A    between atoms: C_2  and  C_3
REMARK    3  A    between atoms: C_4  and  C_5
REMARK    4  A    between atoms: C_5  and  C_6
REMARK    5  A    between atoms: C_6  and  C_7
REMARK    6  A    between atoms: C_7  and  C_8
REMARK    7  A    between atoms: C_7  and  O_9
REMARK    8  A    between atoms: C_7  and  C_10
REMARK    9  A    between atoms: C_13  and  C_14
REMARK   10  A    between atoms: C_24  and  O_25
REMARK                            x       y       z     vdW  Elec       q    Type
REMARK                         _______ _______ _______ _____ _____    ______ ____
ROOT
ATOM      1  C   UNL     1       3.085   4.704  19.570  0.00  0.00    +0.000 C 
ATOM      2  C   UNL     1       1.844   4.680  18.661  0.00  0.00    +0.000 C 
ATOM      3  C   UNL     1       2.140   5.665  17.519  0.00  0.00    +0.000 C 
ATOM      4  C   UNL     1       3.176   6.676  18.065  0.00  0.00    +0.000 C 
ATOM      5  C   UNL     1       4.485   6.715  17.260  0.00  0.00    +0.000 C 
ATOM      6  O   UNL     1       2.710   8.012  17.835  0.00  0.00    +0.000 OA
ATOM      7  C   UNL     1       1.833   8.599  18.703  0.00  0.00    +0.000 C 
ATOM      8  C   UNL     1       1.659   8.143  19.944  0.00  0.00    +0.000 C 
ATOM      9  C   UNL     1       2.446   7.008  20.525  0.00  0.00    +0.000 C 
ATOM     10  C   UNL     1       3.392   6.255  19.540  0.00  0.00    +0.000 C 
ATOM     11  C   UNL     1       0.635   8.802  20.792  0.00  0.00    +0.000 C 
ATOM     12  O   UNL     1       0.598   8.570  22.000  0.00  0.00    +0.000 OA
ATOM     13  C   UNL     1      -0.421   9.665  20.138  0.00  0.00    +0.000 C 
ATOM     14  C   UNL     1       0.019  10.423  18.898  0.00  0.00    +0.000 C 
ATOM     15  C   UNL     1       1.144   9.790  18.092  0.00  0.00    +0.000 C 
ENDROOT
BRANCH   1  16
ATOM     16  C   UNL     1       4.201   3.693  19.097  0.00  0.00    +0.000 C 
ATOM     17  C   UNL     1       4.170   2.389  19.909  0.00  0.00    +0.000 C 
BRANCH  16  18
ATOM     18  O   UNL     1       5.479   4.293  19.289  0.00  0.00    +0.000 OA
ATOM     19  H   UNL     1       5.814   4.608  18.424  0.00  0.00    +0.000 HD
ENDBRANCH  16  18
BRANCH  16  20
ATOM     20  C   UNL     1       4.178   3.389  17.567  0.00  0.00    +0.000 C 
BRANCH  20  21
ATOM     21  C   UNL     1       5.426   3.761  16.771  0.00  0.00    +0.000 C 
BRANCH  21  25
ATOM     22  C   UNL     1       5.879   3.589  12.884  0.00  0.00    +0.000 C 
ATOM     23  C   UNL     1       6.070   4.017  14.315  0.00  0.00    +0.000 C 
ATOM     24  C   UNL     1       7.197   4.974  14.586  0.00  0.00    +0.000 C 
ATOM     25  C   UNL     1       5.263   3.539  15.285  0.00  0.00    +0.000 C 
ENDBRANCH  21  25
ENDBRANCH  20  21
ENDBRANCH  16  20
ENDBRANCH   1  16
BRANCH  15  26
ATOM     26  O   UNL     1       2.109  10.812  17.840  0.00  0.00    +0.000 OA
ATOM     27  H   UNL     1       1.828  11.614  18.313  0.00  0.00    +0.000 HD
ENDBRANCH  15  26
TORSDOF 6
ENDMDL
MODEL 7
REMARK VINA RESULT:      -7.0      1.701      2.565
REMARK  Name = 
REMARK  10 active torsions:
REMARK  status: ('A' for Active; 'I' for Inactive)
REMARK    1  A    between atoms: C_1  and  C_2
REMARK    2  A    between atoms: C_2  and  C_3
REMARK    3  A    between atoms: C_4  and  C_5
REMARK    4  A    between atoms: C_5  and  C_6
REMARK    5  A    between atoms: C_6  and  C_7
REMARK    6  A    between atoms: C_7  and  C_8
REMARK    7  A    between atoms: C_7  and  O_9
REMARK    8  A    between atoms: C_7  and  C_10
REMARK    9  A    between atoms: C_13  and  C_14
REMARK   10  A    between atoms: C_24  and  O_25
REMARK                            x       y       z     vdW  Elec       q    Type
REMARK                         _______ _______ _______ _____ _____    ______ ____
ROOT
ATOM      1  C   UNL     1       3.912   5.344  17.526  0.00  0.00    +0.000 C 
ATOM      2  C   UNL     1       4.750   5.918  18.683  0.00  0.00    +0.000 C 
ATOM      3  C   UNL     1       3.951   5.628  19.964  0.00  0.00    +0.000 C 
ATOM      4  C   UNL     1       2.470   5.496  19.540  0.00  0.00    +0.000 C 
ATOM      5  C   UNL     1       1.845   4.136  19.893  0.00  0.00    +0.000 C 
ATOM      6  O   UNL     1       1.660   6.354  20.354  0.00  0.00    +0.000 OA
ATOM      7  C   UNL     1       1.524   7.678  20.044  0.00  0.00    +0.000 C 
ATOM      8  C   UNL     1       1.804   8.148  18.829  0.00  0.00    +0.000 C 
ATOM      9  C   UNL     1       2.219   7.278  17.681  0.00  0.00    +0.000 C 
ATOM     10  C   UNL     1       2.473   5.776  18.017  0.00  0.00    +0.000 C 
ATOM     11  C   UNL     1       1.692   9.611  18.603  0.00  0.00    +0.000 C 
ATOM     12  O   UNL     1       1.719  10.058  17.457  0.00  0.00    +0.000 OA
ATOM     13  C   UNL     1       1.658  10.541  19.796  0.00  0.00    +0.000 C 
ATOM     14  C   UNL     1       0.984   9.994  21.041  0.00  0.00    +0.000 C 
ATOM     15  C   UNL     1       1.013   8.483  21.209  0.00  0.00    +0.000 C 
ENDROOT
BRANCH   1  16
ATOM     16  C   UNL     1       4.207   3.816  17.266  0.00  0.00    +0.000 C 
ATOM     17  C   UNL     1       2.927   3.039  16.924  0.00  0.00    +0.000 C 
BRANCH  16  18
ATOM     18  O   UNL     1       4.756   3.244  18.450  0.00  0.00    +0.000 OA
ATOM     19  H   UNL     1       5.492   3.811  18.764  0.00  0.00    +0.000 HD
ENDBRANCH  16  18
BRANCH  16  20
ATOM     20  C   UNL     1       5.313   3.552  16.198  0.00  0.00    +0.000 C 
BRANCH  20  21
ATOM     21  C   UNL     1       5.259   4.396  14.927  0.00  0.00    +0.000 C 
BRANCH  21  25
ATOM     22  C   UNL     1       7.129   3.321  11.657  0.00  0.00    +0.000 C 
ATOM     23  C   UNL     1       6.008   3.574  12.630  0.00  0.00    +0.000 C 
ATOM     24  C   UNL     1       4.611   3.380  12.111  0.00  0.00    +0.000 C 
ATOM     25  C   UNL     1       6.274   3.966  13.894  0.00  0.00    +0.000 C 
ENDBRANCH  21  25
ENDBRANCH  20  21
ENDBRANCH  16  20
ENDBRANCH   1  16
BRANCH  15  26
ATOM     26  O   UNL     1      -0.317   8.066  21.520  0.00  0.00    +0.000 OA
ATOM     27  H   UNL     1      -0.709   8.731  22.113  0.00  0.00    +0.000 HD
ENDBRANCH  15  26
TORSDOF 6
ENDMDL
MODEL 8
REMARK VINA RESULT:      -7.0      1.879      2.859
REMARK  Name = 
REMARK  10 active torsions:
REMARK  status: ('A' for Active; 'I' for Inactive)
REMARK    1  A    between atoms: C_1  and  C_2
REMARK    2  A    between atoms: C_2  and  C_3
REMARK    3  A    between atoms: C_4  and  C_5
REMARK    4  A    between atoms: C_5  and  C_6
REMARK    5  A    between atoms: C_6  and  C_7
REMARK    6  A    between atoms: C_7  and  C_8
REMARK    7  A    between atoms: C_7  and  O_9
REMARK    8  A    between atoms: C_7  and  C_10
REMARK    9  A    between atoms: C_13  and  C_14
REMARK   10  A    between atoms: C_24  and  O_25
REMARK                            x       y       z     vdW  Elec       q    Type
REMARK                         _______ _______ _______ _____ _____    ______ ____
ROOT
ATOM      1  C   UNL     1       5.552   6.193  17.994  0.00  0.00    +0.000 C 
ATOM      2  C   UNL     1       6.135   5.102  18.911  0.00  0.00    +0.000 C 
ATOM      3  C   UNL     1       5.677   3.763  18.313  0.00  0.00    +0.000 C 
ATOM      4  C   UNL     1       4.388   4.055  17.509  0.00  0.00    +0.000 C 
ATOM      5  C   UNL     1       4.490   3.679  16.021  0.00  0.00    +0.000 C 
ATOM      6  O   UNL     1       3.353   3.151  17.916  0.00  0.00    +0.000 OA
ATOM      7  C   UNL     1       2.598   3.417  19.024  0.00  0.00    +0.000 C 
ATOM      8  C   UNL     1       2.521   4.641  19.547  0.00  0.00    +0.000 C 
ATOM      9  C   UNL     1       3.183   5.841  18.940  0.00  0.00    +0.000 C 
ATOM     10  C   UNL     1       4.125   5.565  17.729  0.00  0.00    +0.000 C 
ATOM     11  C   UNL     1       1.732   4.821  20.790  0.00  0.00    +0.000 C 
ATOM     12  O   UNL     1       1.448   5.954  21.178  0.00  0.00    +0.000 OA
ATOM     13  C   UNL     1       1.385   3.608  21.625  0.00  0.00    +0.000 C 
ATOM     14  C   UNL     1       1.151   2.321  20.856  0.00  0.00    +0.000 C 
ATOM     15  C   UNL     1       1.884   2.192  19.529  0.00  0.00    +0.000 C 
ENDROOT
BRANCH   1  16
ATOM     16  C   UNL     1       6.489   6.514  16.766  0.00  0.00    +0.000 C 
ATOM     17  C   UNL     1       7.494   7.630  17.092  0.00  0.00    +0.000 C 
BRANCH  16  18
ATOM     18  O   UNL     1       5.685   6.961  15.677  0.00  0.00    +0.000 OA
ATOM     19  H   UNL     1       5.610   6.236  15.021  0.00  0.00    +0.000 HD
ENDBRANCH  16  18
BRANCH  16  20
ATOM     20  C   UNL     1       7.221   5.268  16.180  0.00  0.00    +0.000 C 
BRANCH  20  21
ATOM     21  C   UNL     1       7.446   5.247  14.670  0.00  0.00    +0.000 C 
BRANCH  21  25
ATOM     22  C   UNL     1       5.725   2.862  12.083  0.00  0.00    +0.000 C 
ATOM     23  C   UNL     1       6.566   3.981  12.636  0.00  0.00    +0.000 C 
ATOM     24  C   UNL     1       7.410   4.739  11.649  0.00  0.00    +0.000 C 
ATOM     25  C   UNL     1       6.552   4.260  13.956  0.00  0.00    +0.000 C 
ENDBRANCH  21  25
ENDBRANCH  20  21
ENDBRANCH  16  20
ENDBRANCH   1  16
BRANCH  15  26
ATOM     26  O   UNL     1       0.926   1.773  18.556  0.00  0.00    +0.000 OA
ATOM     27  H   UNL     1       0.041   1.841  18.957  0.00  0.00    +0.000 HD
ENDBRANCH  15  26
TORSDOF 6
ENDMDL
MODEL 9
REMARK VINA RESULT:      -6.9      2.448      3.979
REMARK  Name = 
REMARK  10 active torsions:
REMARK  status: ('A' for Active; 'I' for Inactive)
REMARK    1  A    between atoms: C_1  and  C_2
REMARK    2  A    between atoms: C_2  and  C_3
REMARK    3  A    between atoms: C_4  and  C_5
REMARK    4  A    between atoms: C_5  and  C_6
REMARK    5  A    between atoms: C_6  and  C_7
REMARK    6  A    between atoms: C_7  and  C_8
REMARK    7  A    between atoms: C_7  and  O_9
REMARK    8  A    between atoms: C_7  and  C_10
REMARK    9  A    between atoms: C_13  and  C_14
REMARK   10  A    between atoms: C_24  and  O_25
REMARK                            x       y       z     vdW  Elec       q    Type
REMARK                         _______ _______ _______ _____ _____    ______ ____
ROOT
ATOM      1  C   UNL     1       3.777   5.689  17.778  0.00  0.00    +0.000 C 
ATOM      2  C   UNL     1       4.517   6.092  19.067  0.00  0.00    +0.000 C 
ATOM      3  C   UNL     1       3.607   5.656  20.227  0.00  0.00    +0.000 C 
ATOM      4  C   UNL     1       2.167   5.610  19.665  0.00  0.00    +0.000 C 
ATOM      5  C   UNL     1       1.501   4.229  19.785  0.00  0.00    +0.000 C 
ATOM      6  O   UNL     1       1.297   6.372  20.512  0.00  0.00    +0.000 OA
ATOM      7  C   UNL     1       1.200   7.727  20.366  0.00  0.00    +0.000 C 
ATOM      8  C   UNL     1       1.589   8.344  19.249  0.00  0.00    +0.000 C 
ATOM      9  C   UNL     1       2.094   7.619  18.038  0.00  0.00    +0.000 C 
ATOM     10  C   UNL     1       2.305   6.083  18.197  0.00  0.00    +0.000 C 
ATOM     11  C   UNL     1       1.510   9.825  19.206  0.00  0.00    +0.000 C 
ATOM     12  O   UNL     1       1.640  10.415  18.134  0.00  0.00    +0.000 OA
ATOM     13  C   UNL     1       1.381  10.595  20.502  0.00  0.00    +0.000 C 
ATOM     14  C   UNL     1       0.597   9.907  21.605  0.00  0.00    +0.000 C 
ATOM     15  C   UNL     1       0.598   8.386  21.578  0.00  0.00    +0.000 C 
ENDROOT
BRANCH   1  16
ATOM     16  C   UNL     1       4.080   4.200  17.349  0.00  0.00    +0.000 C 
ATOM     17  C   UNL     1       2.790   3.420  17.051  0.00  0.00    +0.000 C 
BRANCH  16  18
ATOM     18  O   UNL     1       4.748   3.538  18.419  0.00  0.00    +0.000 OA
ATOM     19  H   UNL     1       5.582   3.150  18.079  0.00  0.00    +0.000 HD
ENDBRANCH  16  18
BRANCH  16  20
ATOM     20  C   UNL     1       5.087   4.070  16.165  0.00  0.00    +0.000 C 
BRANCH  20  21
ATOM     21  C   UNL     1       6.553   4.366  16.472  0.00  0.00    +0.000 C 
BRANCH  21  25
ATOM     22  C   UNL     1       7.837   7.918  17.514  0.00  0.00    +0.000 C 
ATOM     23  C   UNL     1       7.477   6.459  17.605  0.00  0.00    +0.000 C 
ATOM     24  C   UNL     1       7.871   5.747  18.868  0.00  0.00    +0.000 C 
ATOM     25  C   UNL     1       6.843   5.845  16.583  0.00  0.00    +0.000 C 
ENDBRANCH  21  25
ENDBRANCH  20  21
ENDBRANCH  16  20
ENDBRANCH   1  16
BRANCH  15  26
ATOM     26  O   UNL     1      -0.758   7.960  21.718  0.00  0.00    +0.000 OA
ATOM     27  H   UNL     1      -1.280   8.382  21.013  0.00  0.00    +0.000 HD
ENDBRANCH  15  26
TORSDOF 6
ENDMDL
