MODEL 1
REMARK VINA RESULT:      -7.7      0.000      0.000
REMARK  Name = 
REMARK  3 active torsions:
REMARK  status: ('A' for Active; 'I' for Inactive)
REMARK    1  A    between atoms: C_1  and  C_2
REMARK    2  A    between atoms: C_7  and  N_8
REMARK    3  A    between atoms: N_8  and  C_9
REMARK                            x       y       z     vdW  Elec       q    Type
REMARK                         _______ _______ _______ _____ _____    ______ ____
ROOT
ATOM      1  N   UNL     1       5.409   3.581  18.896  0.00  0.00    +0.000 N 
ATOM      2  H   UNL     1       5.859   2.684  19.022  0.00  0.00    +0.000 HD
ENDROOT
BRANCH   1   3
ATOM      3  C   UNL     1       6.140   4.504  18.127  0.00  0.00    +0.000 A 
ATOM      4  N   UNL     1       6.760   5.547  18.731  0.00  0.00    +0.000 NA
ATOM      5  C   UNL     1       7.421   6.448  17.995  0.00  0.00    +0.000 A 
ATOM      6  N   UNL     1       7.564   6.459  16.673  0.00  0.00    +0.000 NA
ATOM      7  C   UNL     1       6.948   5.419  16.088  0.00  0.00    +0.000 A 
ATOM      8  S   UNL     1       7.000   5.235  14.395  0.00  0.00    +0.000 S 
ATOM      9  C   UNL     1       6.076   3.800  14.462  0.00  0.00    +0.000 A 
ATOM     10  C   UNL     1       5.734   3.468  15.756  0.00  0.00    +0.000 A 
ATOM     11  C   UNL     1       6.228   4.413  16.720  0.00  0.00    +0.000 A 
ENDBRANCH   1   3
BRANCH   1  18
ATOM     12  C   UNL     1       1.382   5.810  20.764  0.00  0.00    +0.000 C 
ATOM     13  C   UNL     1       2.003   4.632  20.073  0.00  0.00    +0.000 A 
ATOM     14  C   UNL     1       1.232   3.566  19.602  0.00  0.00    +0.000 A 
ATOM     15  C   UNL     1       1.847   2.499  18.948  0.00  0.00    +0.000 A 
ATOM     16  C   UNL     1       3.226   2.510  18.748  0.00  0.00    +0.000 A 
ATOM     17  F   UNL     1       3.796   1.481  18.099  0.00  0.00    +0.000 F 
ATOM     18  C   UNL     1       4.028   3.573  19.186  0.00  0.00    +0.000 A 
ATOM     19  C   UNL     1       3.392   4.616  19.870  0.00  0.00    +0.000 A 
ENDBRANCH   1  18
TORSDOF 2
ENDMDL
MODEL 2
REMARK VINA RESULT:      -7.2      1.003      1.003
REMARK  Name = 
REMARK  3 active torsions:
REMARK  status: ('A' for Active; 'I' for Inactive)
REMARK    1  A    between atoms: C_1  and  C_2
REMARK    2  A    between atoms: C_7  and  N_8
REMARK    3  A    between atoms: N_8  and  C_9
REMARK                            x       y       z     vdW  Elec       q    Type
REMARK                         _______ _______ _______ _____ _____    ______ ____
ROOT
ATOM      1  N   UNL     1       5.479   3.584  18.827  0.00  0.00    +0.000 N 
ATOM      2  H   UNL     1       5.649   2.621  18.569  0.00  0.00    +0.000 HD
ENDROOT
BRANCH   1   3
ATOM      3  C   UNL     1       6.180   4.533  18.063  0.00  0.00    +0.000 A 
ATOM      4  N   UNL     1       6.764   5.594  18.671  0.00  0.00    +0.000 NA
ATOM      5  C   UNL     1       7.396   6.519  17.939  0.00  0.00    +0.000 A 
ATOM      6  N   UNL     1       7.539   6.539  16.617  0.00  0.00    +0.000 NA
ATOM      7  C   UNL     1       6.959   5.481  16.027  0.00  0.00    +0.000 A 
ATOM      8  S   UNL     1       7.017   5.305  14.334  0.00  0.00    +0.000 S 
ATOM      9  C   UNL     1       6.141   3.840  14.395  0.00  0.00    +0.000 A 
ATOM     10  C   UNL     1       5.809   3.493  15.688  0.00  0.00    +0.000 A 
ATOM     11  C   UNL     1       6.271   4.450  16.655  0.00  0.00    +0.000 A 
ENDBRANCH   1   3
BRANCH   1  18
ATOM     12  C   UNL     1       1.729   6.446  20.386  0.00  0.00    +0.000 C 
ATOM     13  C   UNL     1       2.440   5.125  20.403  0.00  0.00    +0.000 A 
ATOM     14  C   UNL     1       1.927   4.023  21.093  0.00  0.00    +0.000 A 
ATOM     15  C   UNL     1       2.609   2.807  21.068  0.00  0.00    +0.000 A 
ATOM     16  C   UNL     1       3.790   2.690  20.339  0.00  0.00    +0.000 A 
ATOM     17  F   UNL     1       4.421   1.504  20.313  0.00  0.00    +0.000 F 
ATOM     18  C   UNL     1       4.322   3.766  19.616  0.00  0.00    +0.000 A 
ATOM     19  C   UNL     1       3.637   4.985  19.684  0.00  0.00    +0.000 A 
ENDBRANCH   1  18
TORSDOF 2
ENDMDL
MODEL 3
REMARK VINA RESULT:      -7.2      1.260      1.466
REMARK  Name = 
REMARK  3 active torsions:
REMARK  status: ('A' for Active; 'I' for Inactive)
REMARK    1  A    between atoms: C_1  and  C_2
REMARK    2  A    between atoms: C_7  and  N_8
REMARK    3  A    between atoms: N_8  and  C_9
REMARK                            x       y       z     vdW  Elec       q    Type
REMARK                         _______ _______ _______ _____ _____    ______ ____
ROOT
ATOM      1  N   UNL     1       5.168   3.447  18.564  0.00  0.00    +0.000 N 
ATOM      2  H   UNL     1       5.493   2.494  18.463  0.00  0.00    +0.000 HD
ENDROOT
BRANCH   1   3
ATOM      3  C   UNL     1       5.959   4.411  17.915  0.00  0.00    +0.000 A 
ATOM      4  N   UNL     1       6.497   5.434  18.623  0.00  0.00    +0.000 NA
ATOM      5  C   UNL     1       7.216   6.374  17.999  0.00  0.00    +0.000 A 
ATOM      6  N   UNL     1       7.492   6.445  16.700  0.00  0.00    +0.000 NA
ATOM      7  C   UNL     1       6.957   5.425  16.010  0.00  0.00    +0.000 A 
ATOM      8  S   UNL     1       7.184   5.317  14.325  0.00  0.00    +0.000 S 
ATOM      9  C   UNL     1       6.281   3.870  14.236  0.00  0.00    +0.000 A 
ATOM     10  C   UNL     1       5.814   3.477  15.472  0.00  0.00    +0.000 A 
ATOM     11  C   UNL     1       6.192   4.384  16.521  0.00  0.00    +0.000 A 
ENDBRANCH   1   3
BRANCH   1  18
ATOM     12  C   UNL     1       1.648   2.550  21.953  0.00  0.00    +0.000 C 
ATOM     13  C   UNL     1       2.055   3.155  20.642  0.00  0.00    +0.000 A 
ATOM     14  C   UNL     1       1.169   3.921  19.879  0.00  0.00    +0.000 A 
ATOM     15  C   UNL     1       1.593   4.481  18.675  0.00  0.00    +0.000 A 
ATOM     16  C   UNL     1       2.905   4.292  18.246  0.00  0.00    +0.000 A 
ATOM     17  F   UNL     1       3.298   4.857  17.092  0.00  0.00    +0.000 F 
ATOM     18  C   UNL     1       3.828   3.550  18.995  0.00  0.00    +0.000 A 
ATOM     19  C   UNL     1       3.369   2.969  20.184  0.00  0.00    +0.000 A 
ENDBRANCH   1  18
TORSDOF 2
ENDMDL
MODEL 4
REMARK VINA RESULT:      -7.1      3.049      5.753
REMARK  Name = 
REMARK  3 active torsions:
REMARK  status: ('A' for Active; 'I' for Inactive)
REMARK    1  A    between atoms: C_1  and  C_2
REMARK    2  A    between atoms: C_7  and  N_8
REMARK    3  A    between atoms: N_8  and  C_9
REMARK                            x       y       z     vdW  Elec       q    Type
REMARK                         _______ _______ _______ _____ _____    ______ ____
ROOT
ATOM      1  N   UNL     1       3.853   6.243  17.514  0.00  0.00    +0.000 N 
ATOM      2  H   UNL     1       3.482   6.938  16.879  0.00  0.00    +0.000 HD
ENDROOT
BRANCH   1   3
ATOM      3  C   UNL     1       2.974   5.851  18.538  0.00  0.00    +0.000 A 
ATOM      4  N   UNL     1       2.663   6.719  19.532  0.00  0.00    +0.000 NA
ATOM      5  C   UNL     1       1.859   6.332  20.529  0.00  0.00    +0.000 A 
ATOM      6  N   UNL     1       1.287   5.142  20.687  0.00  0.00    +0.000 NA
ATOM      7  C   UNL     1       1.601   4.293  19.694  0.00  0.00    +0.000 A 
ATOM      8  S   UNL     1       0.979   2.707  19.694  0.00  0.00    +0.000 S 
ATOM      9  C   UNL     1       1.772   2.332  18.229  0.00  0.00    +0.000 A 
ATOM     10  C   UNL     1       2.499   3.400  17.748  0.00  0.00    +0.000 A 
ATOM     11  C   UNL     1       2.419   4.553  18.602  0.00  0.00    +0.000 A 
ENDBRANCH   1   3
BRANCH   1  18
ATOM     12  C   UNL     1       6.285   4.081  13.760  0.00  0.00    +0.000 C 
ATOM     13  C   UNL     1       6.244   4.507  15.198  0.00  0.00    +0.000 A 
ATOM     14  C   UNL     1       7.347   4.354  16.042  0.00  0.00    +0.000 A 
ATOM     15  C   UNL     1       7.274   4.780  17.368  0.00  0.00    +0.000 A 
ATOM     16  C   UNL     1       6.106   5.375  17.841  0.00  0.00    +0.000 A 
ATOM     17  F   UNL     1       6.063   5.796  19.116  0.00  0.00    +0.000 F 
ATOM     18  C   UNL     1       4.988   5.567  17.017  0.00  0.00    +0.000 A 
ATOM     19  C   UNL     1       5.075   5.100  15.700  0.00  0.00    +0.000 A 
ENDBRANCH   1  18
TORSDOF 2
ENDMDL
MODEL 5
REMARK VINA RESULT:      -7.1      1.247      1.345
REMARK  Name = 
REMARK  3 active torsions:
REMARK  status: ('A' for Active; 'I' for Inactive)
REMARK    1  A    between atoms: C_1  and  C_2
REMARK    2  A    between atoms: C_7  and  N_8
REMARK    3  A    between atoms: N_8  and  C_9
REMARK                            x       y       z     vdW  Elec       q    Type
REMARK                         _______ _______ _______ _____ _____    ______ ____
ROOT
ATOM      1  N   UNL     1       5.643   3.621  18.843  0.00  0.00    +0.000 N 
ATOM      2  H   UNL     1       6.190   2.798  19.060  0.00  0.00    +0.000 HD
ENDROOT
BRANCH   1   3
ATOM      3  C   UNL     1       6.305   4.576  18.051  0.00  0.00    +0.000 A 
ATOM      4  N   UNL     1       6.861   5.668  18.630  0.00  0.00    +0.000 NA
ATOM      5  C   UNL     1       7.455   6.597  17.872  0.00  0.00    +0.000 A 
ATOM      6  N   UNL     1       7.582   6.595  16.549  0.00  0.00    +0.000 NA
ATOM      7  C   UNL     1       7.030   5.506  15.987  0.00  0.00    +0.000 A 
ATOM      8  S   UNL     1       7.076   5.297  14.298  0.00  0.00    +0.000 S 
ATOM      9  C   UNL     1       6.248   3.806  14.399  0.00  0.00    +0.000 A 
ATOM     10  C   UNL     1       5.942   3.475  15.702  0.00  0.00    +0.000 A 
ATOM     11  C   UNL     1       6.383   4.467  16.644  0.00  0.00    +0.000 A 
ENDBRANCH   1   3
BRANCH   1  18
ATOM     12  C   UNL     1       0.942   4.505  17.503  0.00  0.00    +0.000 C 
ATOM     13  C   UNL     1       1.919   3.842  18.429  0.00  0.00    +0.000 A 
ATOM     14  C   UNL     1       1.500   2.969  19.437  0.00  0.00    +0.000 A 
ATOM     15  C   UNL     1       2.442   2.359  20.265  0.00  0.00    +0.000 A 
ATOM     16  C   UNL     1       3.799   2.607  20.070  0.00  0.00    +0.000 A 
ATOM     17  F   UNL     1       4.691   1.994  20.867  0.00  0.00    +0.000 F 
ATOM     18  C   UNL     1       4.258   3.458  19.055  0.00  0.00    +0.000 A 
ATOM     19  C   UNL     1       3.291   4.085  18.259  0.00  0.00    +0.000 A 
ENDBRANCH   1  18
TORSDOF 2
ENDMDL
MODEL 6
REMARK VINA RESULT:      -7.0      1.894      2.697
REMARK  Name = 
REMARK  3 active torsions:
REMARK  status: ('A' for Active; 'I' for Inactive)
REMARK    1  A    between atoms: C_1  and  C_2
REMARK    2  A    between atoms: C_7  and  N_8
REMARK    3  A    between atoms: N_8  and  C_9
REMARK                            x       y       z     vdW  Elec       q    Type
REMARK                         _______ _______ _______ _____ _____    ______ ____
ROOT
ATOM      1  N   UNL     1       4.676   2.804  17.512  0.00  0.00    +0.000 N 
ATOM      2  H   UNL     1       4.821   1.886  17.113  0.00  0.00    +0.000 HD
ENDROOT
BRANCH   1   3
ATOM      3  C   UNL     1       5.463   3.824  16.949  0.00  0.00    +0.000 A 
ATOM      4  N   UNL     1       5.567   3.932  15.601  0.00  0.00    +0.000 NA
ATOM      5  C   UNL     1       6.349   4.877  15.066  0.00  0.00    +0.000 A 
ATOM      6  N   UNL     1       7.080   5.779  15.713  0.00  0.00    +0.000 NA
ATOM      7  C   UNL     1       6.966   5.663  17.046  0.00  0.00    +0.000 A 
ATOM      8  S   UNL     1       7.820   6.719  18.075  0.00  0.00    +0.000 S 
ATOM      9  C   UNL     1       7.174   5.977  19.472  0.00  0.00    +0.000 A 
ATOM     10  C   UNL     1       6.322   4.940  19.157  0.00  0.00    +0.000 A 
ATOM     11  C   UNL     1       6.197   4.736  17.739  0.00  0.00    +0.000 A 
ENDBRANCH   1   3
BRANCH   1  18
ATOM     12  C   UNL     1       2.275   2.732  21.861  0.00  0.00    +0.000 C 
ATOM     13  C   UNL     1       2.247   2.918  20.372  0.00  0.00    +0.000 A 
ATOM     14  C   UNL     1       1.086   3.316  19.703  0.00  0.00    +0.000 A 
ATOM     15  C   UNL     1       1.108   3.496  18.320  0.00  0.00    +0.000 A 
ATOM     16  C   UNL     1       2.292   3.297  17.613  0.00  0.00    +0.000 A 
ATOM     17  F   UNL     1       2.295   3.495  16.284  0.00  0.00    +0.000 F 
ATOM     18  C   UNL     1       3.480   2.920  18.254  0.00  0.00    +0.000 A 
ATOM     19  C   UNL     1       3.425   2.713  19.637  0.00  0.00    +0.000 A 
ENDBRANCH   1  18
TORSDOF 2
ENDMDL
MODEL 7
REMARK VINA RESULT:      -7.0      3.664      5.517
REMARK  Name = 
REMARK  3 active torsions:
REMARK  status: ('A' for Active; 'I' for Inactive)
REMARK    1  A    between atoms: C_1  and  C_2
REMARK    2  A    between atoms: C_7  and  N_8
REMARK    3  A    between atoms: N_8  and  C_9
REMARK                            x       y       z     vdW  Elec       q    Type
REMARK                         _______ _______ _______ _____ _____    ______ ____
ROOT
ATOM      1  N   UNL     1       2.820   6.538  20.074  0.00  0.00    +0.000 N 
ATOM      2  H   UNL     1       3.595   6.741  20.693  0.00  0.00    +0.000 HD
ENDROOT
BRANCH   1   3
ATOM      3  C   UNL     1       2.443   5.185  20.028  0.00  0.00    +0.000 A 
ATOM      4  N   UNL     1       1.528   4.706  20.907  0.00  0.00    +0.000 NA
ATOM      5  C   UNL     1       1.199   3.410  20.889  0.00  0.00    +0.000 A 
ATOM      6  N   UNL     1       1.674   2.469  20.077  0.00  0.00    +0.000 NA
ATOM      7  C   UNL     1       2.577   2.957  19.210  0.00  0.00    +0.000 A 
ATOM      8  S   UNL     1       3.318   1.925  18.075  0.00  0.00    +0.000 S 
ATOM      9  C   UNL     1       4.231   3.209  17.414  0.00  0.00    +0.000 A 
ATOM     10  C   UNL     1       3.973   4.405  18.050  0.00  0.00    +0.000 A 
ATOM     11  C   UNL     1       3.014   4.272  19.113  0.00  0.00    +0.000 A 
ENDBRANCH   1   3
BRANCH   1  18
ATOM     12  C   UNL     1      -0.261  10.247  21.272  0.00  0.00    +0.000 C 
ATOM     13  C   UNL     1       0.570   9.538  20.243  0.00  0.00    +0.000 A 
ATOM     14  C   UNL     1       0.717  10.038  18.946  0.00  0.00    +0.000 A 
ATOM     15  C   UNL     1       1.514   9.358  18.024  0.00  0.00    +0.000 A 
ATOM     16  C   UNL     1       2.177   8.194  18.407  0.00  0.00    +0.000 A 
ATOM     17  F   UNL     1       2.954   7.565  17.510  0.00  0.00    +0.000 F 
ATOM     18  C   UNL     1       2.072   7.676  19.705  0.00  0.00    +0.000 A 
ATOM     19  C   UNL     1       1.239   8.358  20.602  0.00  0.00    +0.000 A 
ENDBRANCH   1  18
TORSDOF 2
ENDMDL
MODEL 8
REMARK VINA RESULT:      -6.9      1.250      1.964
REMARK  Name = 
REMARK  3 active torsions:
REMARK  status: ('A' for Active; 'I' for Inactive)
REMARK    1  A    between atoms: C_1  and  C_2
REMARK    2  A    between atoms: C_7  and  N_8
REMARK    3  A    between atoms: N_8  and  C_9
REMARK                            x       y       z     vdW  Elec       q    Type
REMARK                         _______ _______ _______ _____ _____    ______ ____
ROOT
ATOM      1  N   UNL     1       5.258   3.772  18.844  0.00  0.00    +0.000 N 
ATOM      2  H   UNL     1       5.635   2.847  19.004  0.00  0.00    +0.000 HD
ENDROOT
BRANCH   1   3
ATOM      3  C   UNL     1       6.065   4.609  18.053  0.00  0.00    +0.000 A 
ATOM      4  N   UNL     1       6.753   5.626  18.628  0.00  0.00    +0.000 NA
ATOM      5  C   UNL     1       7.488   6.447  17.869  0.00  0.00    +0.000 A 
ATOM      6  N   UNL     1       7.647   6.398  16.550  0.00  0.00    +0.000 NA
ATOM      7  C   UNL     1       6.964   5.385  15.994  0.00  0.00    +0.000 A 
ATOM      8  S   UNL     1       7.022   5.134  14.310  0.00  0.00    +0.000 S 
ATOM      9  C   UNL     1       5.993   3.774  14.416  0.00  0.00    +0.000 A 
ATOM     10  C   UNL     1       5.612   3.517  15.716  0.00  0.00    +0.000 A 
ATOM     11  C   UNL     1       6.163   4.459  16.652  0.00  0.00    +0.000 A 
ENDBRANCH   1   3
BRANCH   1  18
ATOM     12  C   UNL     1       0.694   1.812  18.846  0.00  0.00    +0.000 C 
ATOM     13  C   UNL     1       1.608   2.957  19.166  0.00  0.00    +0.000 A 
ATOM     14  C   UNL     1       1.153   4.096  19.837  0.00  0.00    +0.000 A 
ATOM     15  C   UNL     1       2.040   5.131  20.131  0.00  0.00    +0.000 A 
ATOM     16  C   UNL     1       3.382   5.017  19.773  0.00  0.00    +0.000 A 
ATOM     17  F   UNL     1       4.223   6.018  20.084  0.00  0.00    +0.000 F 
ATOM     18  C   UNL     1       3.878   3.881  19.120  0.00  0.00    +0.000 A 
ATOM     19  C   UNL     1       2.962   2.870  18.805  0.00  0.00    +0.000 A 
ENDBRANCH   1  18
TORSDOF 2
ENDMDL
MODEL 9
REMARK VINA RESULT:      -6.9      1.589      2.377
REMARK  Name = 
REMARK  3 active torsions:
REMARK  status: ('A' for Active; 'I' for Inactive)
REMARK    1  A    between atoms: C_1  and  C_2
REMARK    2  A    between atoms: C_7  and  N_8
REMARK    3  A    between atoms: N_8  and  C_9
REMARK                            x       y       z     vdW  Elec       q    Type
REMARK                         _______ _______ _______ _____ _____    ______ ____
ROOT
ATOM      1  N   UNL     1       4.389   3.198  17.847  0.00  0.00    +0.000 N 
ATOM      2  H   UNL     1       4.447   2.284  17.417  0.00  0.00    +0.000 HD
ENDROOT
BRANCH   1   3
ATOM      3  C   UNL     1       5.085   4.213  17.169  0.00  0.00    +0.000 A 
ATOM      4  N   UNL     1       4.872   4.413  15.845  0.00  0.00    +0.000 NA
ATOM      5  C   UNL     1       5.564   5.353  15.191  0.00  0.00    +0.000 A 
ATOM      6  N   UNL     1       6.489   6.167  15.693  0.00  0.00    +0.000 NA
ATOM      7  C   UNL     1       6.688   5.961  17.005  0.00  0.00    +0.000 A 
ATOM      8  S   UNL     1       7.833   6.894  17.854  0.00  0.00    +0.000 S 
ATOM      9  C   UNL     1       7.491   6.087  19.320  0.00  0.00    +0.000 A 
ATOM     10  C   UNL     1       6.520   5.121  19.163  0.00  0.00    +0.000 A 
ATOM     11  C   UNL     1       6.047   5.027  17.809  0.00  0.00    +0.000 A 
ENDBRANCH   1   3
BRANCH   1  18
ATOM     12  C   UNL     1       1.491   6.022  20.728  0.00  0.00    +0.000 C 
ATOM     13  C   UNL     1       1.868   4.666  20.209  0.00  0.00    +0.000 A 
ATOM     14  C   UNL     1       1.137   3.522  20.542  0.00  0.00    +0.000 A 
ATOM     15  C   UNL     1       1.510   2.283  20.023  0.00  0.00    +0.000 A 
ATOM     16  C   UNL     1       2.599   2.193  19.159  0.00  0.00    +0.000 A 
ATOM     17  F   UNL     1       2.930   0.991  18.655  0.00  0.00    +0.000 F 
ATOM     18  C   UNL     1       3.341   3.321  18.785  0.00  0.00    +0.000 A 
ATOM     19  C   UNL     1       2.968   4.548  19.345  0.00  0.00    +0.000 A 
ENDBRANCH   1  18
TORSDOF 2
ENDMDL
