MODEL 1
REMARK VINA RESULT:      -8.0      0.000      0.000
REMARK  Name = 
REMARK  14 active torsions:
REMARK  status: ('A' for Active; 'I' for Inactive)
REMARK    1  A    between atoms: C_1  and  C_2
REMARK    2  A    between atoms: C_4  and  N_5
REMARK    3  A    between atoms: N_5  and  CA_6
REMARK    4  A    between atoms: CA_6  and  CB_7
REMARK    5  A    between atoms: CA_6  and  C_14
REMARK    6  A    between atoms: CB_7  and  CG_8
REMARK    7  A    between atoms: C_14  and  OXT_16
REMARK    8  A    between atoms: C_18  and  C_19
REMARK    9  A    between atoms: C_20  and  O_21
REMARK   10  A    between atoms: O_21  and  C_22
REMARK   11  A    between atoms: C_25  and  O_26
REMARK   12  A    between atoms: C_27  and  C_28
REMARK   13  A    between atoms: C_28  and  C_29
REMARK   14  A    between atoms: C_28  and  C_30
REMARK                            x       y       z     vdW  Elec       q    Type
REMARK                         _______ _______ _______ _____ _____    ______ ____
ROOT
ATOM      1  C   UNK A   0       0.199   9.031  22.216  0.00  0.00    +0.000 C 
ATOM      2  C   UNK A   0       0.929   8.422  21.047  0.00  0.00    +0.000 A 
ATOM      3  C   UNK A   0       1.345   7.092  21.226  0.00  0.00    +0.000 A 
ATOM      4  C   UNK A   0       1.973   6.358  20.223  0.00  0.00    +0.000 A 
ATOM      5  C   UNK A   0       2.357   7.028  19.064  0.00  0.00    +0.000 A 
ATOM      6  C   UNK A   0       2.005   8.376  18.857  0.00  0.00    +0.000 A 
ATOM      7  C   UNK A   0       2.413   9.047  17.572  0.00  0.00    +0.000 C 
ATOM      8  C   UNK A   0       1.243   9.059  19.833  0.00  0.00    +0.000 A 
ENDROOT
BRANCH   4   9
ATOM      9  N   PHE A   1       2.136   4.986  20.338  0.00  0.00    +0.000 N 
ATOM     10  H   PHE A   1       2.860   4.659  20.979  0.00  0.00    +0.000 HD
BRANCH   9  11
ATOM     11  CA  PHE A   1       1.976   4.116  19.142  0.00  0.00    +0.000 C 
BRANCH  11  12
ATOM     12  C   PHE A   1       0.891   3.059  19.402  0.00  0.00    +0.000 C 
ATOM     13  O   PHE A   1       0.375   2.368  18.531  0.00  0.00    +0.000 OA
BRANCH  12  14
ATOM     14  OXT PHE A   1       0.561   2.906  20.710  0.00  0.00    +0.000 OA
ATOM     15  HXT PHE A   1       0.831   3.637  21.297  0.00  0.00    +0.000 HD
ENDBRANCH  12  14
ENDBRANCH  11  12
BRANCH  11  16
ATOM     16  CB  PHE A   1       3.285   3.467  18.623  0.00  0.00    +0.000 C 
BRANCH  16  17
ATOM     17  CG  PHE A   1       4.415   4.364  18.174  0.00  0.00    +0.000 A 
ATOM     18  CD1 PHE A   1       4.404   4.949  16.902  0.00  0.00    +0.000 A 
ATOM     19  CE1 PHE A   1       5.395   5.862  16.531  0.00  0.00    +0.000 A 
ATOM     20  CZ  PHE A   1       6.411   6.194  17.423  0.00  0.00    +0.000 A 
ATOM     21  CE2 PHE A   1       6.442   5.609  18.685  0.00  0.00    +0.000 A 
ATOM     22  CD2 PHE A   1       5.443   4.704  19.065  0.00  0.00    +0.000 A 
ENDBRANCH  16  17
ENDBRANCH  11  16
ENDBRANCH   9  11
ENDBRANCH   4   9
BRANCH   8  23
ATOM     23  O   UNK A   0       0.954  10.377  19.544  0.00  0.00    +0.000 OA
BRANCH  23  24
ATOM     24  C   UNK A   0      -0.344  10.788  19.353  0.00  0.00    +0.000 A 
ATOM     25  C   UNK A   0      -0.978  10.253  18.231  0.00  0.00    +0.000 A 
ATOM     26  C   UNK A   0      -2.255  10.680  17.871  0.00  0.00    +0.000 A 
ATOM     27  C   UNK A   0      -2.893  11.662  18.629  0.00  0.00    +0.000 A 
ATOM     28  C   UNK A   0      -2.293  12.196  19.780  0.00  0.00    +0.000 A 
ATOM     29  C   UNK A   0      -1.035  11.693  20.166  0.00  0.00    +0.000 A 
BRANCH  28  30
ATOM     30  C   UNK A   0      -2.994  13.263  20.607  0.00  0.00    +0.000 C 
ATOM     31  C   UNK A   0      -3.338  12.686  21.979  0.00  0.00    +0.000 C 
ATOM     32  C   UNK A   0      -2.198  14.567  20.753  0.00  0.00    +0.000 C 
ENDBRANCH  28  30
BRANCH  27  33
ATOM     33  O   UNK A   0      -4.127  12.108  18.249  0.00  0.00    +0.000 OA
ATOM     34  H   UNK A   0      -4.783  11.414  18.423  0.00  0.00    +0.000 HD
ENDBRANCH  27  33
ENDBRANCH  23  24
ENDBRANCH   8  23
TORSDOF 10
ENDMDL
MODEL 2
REMARK VINA RESULT:      -7.8      1.197      2.359
REMARK  Name = 
REMARK  14 active torsions:
REMARK  status: ('A' for Active; 'I' for Inactive)
REMARK    1  A    between atoms: C_1  and  C_2
REMARK    2  A    between atoms: C_4  and  N_5
REMARK    3  A    between atoms: N_5  and  CA_6
REMARK    4  A    between atoms: CA_6  and  CB_7
REMARK    5  A    between atoms: CA_6  and  C_14
REMARK    6  A    between atoms: CB_7  and  CG_8
REMARK    7  A    between atoms: C_14  and  OXT_16
REMARK    8  A    between atoms: C_18  and  C_19
REMARK    9  A    between atoms: C_20  and  O_21
REMARK   10  A    between atoms: O_21  and  C_22
REMARK   11  A    between atoms: C_25  and  O_26
REMARK   12  A    between atoms: C_27  and  C_28
REMARK   13  A    between atoms: C_28  and  C_29
REMARK   14  A    between atoms: C_28  and  C_30
REMARK                            x       y       z     vdW  Elec       q    Type
REMARK                         _______ _______ _______ _____ _____    ______ ____
ROOT
ATOM      1  C   UNK A   0      -0.119   9.929  22.580  0.00  0.00    +0.000 C 
ATOM      2  C   UNK A   0       0.581   9.307  21.401  0.00  0.00    +0.000 A 
ATOM      3  C   UNK A   0       1.071   8.007  21.611  0.00  0.00    +0.000 A 
ATOM      4  C   UNK A   0       1.685   7.261  20.606  0.00  0.00    +0.000 A 
ATOM      5  C   UNK A   0       1.977   7.900  19.404  0.00  0.00    +0.000 A 
ATOM      6  C   UNK A   0       1.549   9.219  19.162  0.00  0.00    +0.000 A 
ATOM      7  C   UNK A   0       1.859   9.854  17.832  0.00  0.00    +0.000 C 
ATOM      8  C   UNK A   0       0.803   9.906  20.148  0.00  0.00    +0.000 A 
ENDROOT
BRANCH   4   9
ATOM      9  N   PHE A   1       1.921   5.905  20.767  0.00  0.00    +0.000 N 
ATOM     10  H   PHE A   1       2.338   5.611  21.651  0.00  0.00    +0.000 HD
BRANCH   9  11
ATOM     11  CA  PHE A   1       2.365   5.086  19.608  0.00  0.00    +0.000 C 
BRANCH  11  12
ATOM     12  C   PHE A   1       1.710   3.696  19.664  0.00  0.00    +0.000 C 
ATOM     13  O   PHE A   1       2.229   2.669  19.241  0.00  0.00    +0.000 OA
BRANCH  12  14
ATOM     14  OXT PHE A   1       0.496   3.674  20.272  0.00  0.00    +0.000 OA
ATOM     15  HXT PHE A   1       0.202   2.798  20.586  0.00  0.00    +0.000 HD
ENDBRANCH  12  14
ENDBRANCH  11  12
BRANCH  11  16
ATOM     16  CB  PHE A   1       3.901   4.980  19.429  0.00  0.00    +0.000 C 
BRANCH  16  17
ATOM     17  CG  PHE A   1       4.488   5.151  18.047  0.00  0.00    +0.000 A 
ATOM     18  CD1 PHE A   1       4.711   4.043  17.220  0.00  0.00    +0.000 A 
ATOM     19  CE1 PHE A   1       5.152   4.215  15.905  0.00  0.00    +0.000 A 
ATOM     20  CZ  PHE A   1       5.381   5.494  15.405  0.00  0.00    +0.000 A 
ATOM     21  CE2 PHE A   1       5.176   6.603  16.220  0.00  0.00    +0.000 A 
ATOM     22  CD2 PHE A   1       4.722   6.435  17.535  0.00  0.00    +0.000 A 
ENDBRANCH  16  17
ENDBRANCH  11  16
ENDBRANCH   9  11
ENDBRANCH   4   9
BRANCH   8  23
ATOM     23  O   UNK A   0       0.435  11.196  19.822  0.00  0.00    +0.000 OA
BRANCH  23  24
ATOM     24  C   UNK A   0      -0.874  11.503  19.535  0.00  0.00    +0.000 A 
ATOM     25  C   UNK A   0      -1.487  12.385  20.427  0.00  0.00    +0.000 A 
ATOM     26  C   UNK A   0      -2.842  12.684  20.305  0.00  0.00    +0.000 A 
ATOM     27  C   UNK A   0      -3.593  12.081  19.295  0.00  0.00    +0.000 A 
ATOM     28  C   UNK A   0      -2.998  11.214  18.365  0.00  0.00    +0.000 A 
ATOM     29  C   UNK A   0      -1.611  10.988  18.463  0.00  0.00    +0.000 A 
BRANCH  28  30
ATOM     30  C   UNK A   0      -3.819  10.563  17.263  0.00  0.00    +0.000 C 
ATOM     31  C   UNK A   0      -4.587  11.645  16.507  0.00  0.00    +0.000 C 
ATOM     32  C   UNK A   0      -2.996   9.706  16.291  0.00  0.00    +0.000 C 
ENDBRANCH  28  30
BRANCH  27  33
ATOM     33  O   UNK A   0      -4.931  12.344  19.204  0.00  0.00    +0.000 OA
ATOM     34  H   UNK A   0      -5.061  13.150  18.679  0.00  0.00    +0.000 HD
ENDBRANCH  27  33
ENDBRANCH  23  24
ENDBRANCH   8  23
TORSDOF 10
ENDMDL
MODEL 3
REMARK VINA RESULT:      -7.7      0.592      1.018
REMARK  Name = 
REMARK  14 active torsions:
REMARK  status: ('A' for Active; 'I' for Inactive)
REMARK    1  A    between atoms: C_1  and  C_2
REMARK    2  A    between atoms: C_4  and  N_5
REMARK    3  A    between atoms: N_5  and  CA_6
REMARK    4  A    between atoms: CA_6  and  CB_7
REMARK    5  A    between atoms: CA_6  and  C_14
REMARK    6  A    between atoms: CB_7  and  CG_8
REMARK    7  A    between atoms: C_14  and  OXT_16
REMARK    8  A    between atoms: C_18  and  C_19
REMARK    9  A    between atoms: C_20  and  O_21
REMARK   10  A    between atoms: O_21  and  C_22
REMARK   11  A    between atoms: C_25  and  O_26
REMARK   12  A    between atoms: C_27  and  C_28
REMARK   13  A    between atoms: C_28  and  C_29
REMARK   14  A    between atoms: C_28  and  C_30
REMARK                            x       y       z     vdW  Elec       q    Type
REMARK                         _______ _______ _______ _____ _____    ______ ____
ROOT
ATOM      1  C   UNK A   0       0.058   9.106  22.175  0.00  0.00    +0.000 C 
ATOM      2  C   UNK A   0       0.827   8.689  20.948  0.00  0.00    +0.000 A 
ATOM      3  C   UNK A   0       1.365   7.392  20.990  0.00  0.00    +0.000 A 
ATOM      4  C   UNK A   0       2.046   6.824  19.915  0.00  0.00    +0.000 A 
ATOM      5  C   UNK A   0       2.354   7.642  18.830  0.00  0.00    +0.000 A 
ATOM      6  C   UNK A   0       1.877   8.965  18.763  0.00  0.00    +0.000 A 
ATOM      7  C   UNK A   0       2.207   9.798  17.551  0.00  0.00    +0.000 C 
ATOM      8  C   UNK A   0       1.067   9.472  19.805  0.00  0.00    +0.000 A 
ENDROOT
BRANCH   4   9
ATOM      9  N   PHE A   1       2.336   5.469  19.889  0.00  0.00    +0.000 N 
ATOM     10  H   PHE A   1       3.233   5.181  20.282  0.00  0.00    +0.000 HD
BRANCH   9  11
ATOM     11  CA  PHE A   1       1.911   4.641  18.729  0.00  0.00    +0.000 C 
BRANCH  11  12
ATOM     12  C   PHE A   1       1.106   3.425  19.217  0.00  0.00    +0.000 C 
ATOM     13  O   PHE A   1       1.060   2.347  18.636  0.00  0.00    +0.000 OA
BRANCH  12  14
ATOM     14  OXT PHE A   1       0.462   3.618  20.397  0.00  0.00    +0.000 OA
ATOM     15  HXT PHE A   1       0.942   3.314  21.190  0.00  0.00    +0.000 HD
ENDBRANCH  12  14
ENDBRANCH  11  12
BRANCH  11  16
ATOM     16  CB  PHE A   1       3.055   4.214  17.773  0.00  0.00    +0.000 C 
BRANCH  16  17
ATOM     17  CG  PHE A   1       4.361   4.974  17.815  0.00  0.00    +0.000 A 
ATOM     18  CD1 PHE A   1       5.332   4.676  18.780  0.00  0.00    +0.000 A 
ATOM     19  CE1 PHE A   1       6.579   5.305  18.748  0.00  0.00    +0.000 A 
ATOM     20  CZ  PHE A   1       6.867   6.243  17.760  0.00  0.00    +0.000 A 
ATOM     21  CE2 PHE A   1       5.906   6.557  16.805  0.00  0.00    +0.000 A 
ATOM     22  CD2 PHE A   1       4.659   5.920  16.825  0.00  0.00    +0.000 A 
ENDBRANCH  16  17
ENDBRANCH  11  16
ENDBRANCH   9  11
ENDBRANCH   4   9
BRANCH   8  23
ATOM     23  O   UNK A   0       0.655  10.780  19.653  0.00  0.00    +0.000 OA
BRANCH  23  24
ATOM     24  C   UNK A   0      -0.669  11.080  19.430  0.00  0.00    +0.000 A 
ATOM     25  C   UNK A   0      -1.231  10.486  18.299  0.00  0.00    +0.000 A 
ATOM     26  C   UNK A   0      -2.530  10.802  17.907  0.00  0.00    +0.000 A 
ATOM     27  C   UNK A   0      -3.264  11.734  18.642  0.00  0.00    +0.000 A 
ATOM     28  C   UNK A   0      -2.736  12.325  19.800  0.00  0.00    +0.000 A 
ATOM     29  C   UNK A   0      -1.450  11.931  20.219  0.00  0.00    +0.000 A 
BRANCH  28  30
ATOM     30  C   UNK A   0      -3.541  13.336  20.601  0.00  0.00    +0.000 C 
ATOM     31  C   UNK A   0      -4.043  12.674  21.883  0.00  0.00    +0.000 C 
ATOM     32  C   UNK A   0      -2.781  14.631  20.923  0.00  0.00    +0.000 C 
ENDBRANCH  28  30
BRANCH  27  33
ATOM     33  O   UNK A   0      -4.522  12.073  18.231  0.00  0.00    +0.000 OA
ATOM     34  H   UNK A   0      -5.129  12.015  18.986  0.00  0.00    +0.000 HD
ENDBRANCH  27  33
ENDBRANCH  23  24
ENDBRANCH   8  23
TORSDOF 10
ENDMDL
MODEL 4
REMARK VINA RESULT:      -7.7      1.133      2.857
REMARK  Name = 
REMARK  14 active torsions:
REMARK  status: ('A' for Active; 'I' for Inactive)
REMARK    1  A    between atoms: C_1  and  C_2
REMARK    2  A    between atoms: C_4  and  N_5
REMARK    3  A    between atoms: N_5  and  CA_6
REMARK    4  A    between atoms: CA_6  and  CB_7
REMARK    5  A    between atoms: CA_6  and  C_14
REMARK    6  A    between atoms: CB_7  and  CG_8
REMARK    7  A    between atoms: C_14  and  OXT_16
REMARK    8  A    between atoms: C_18  and  C_19
REMARK    9  A    between atoms: C_20  and  O_21
REMARK   10  A    between atoms: O_21  and  C_22
REMARK   11  A    between atoms: C_25  and  O_26
REMARK   12  A    between atoms: C_27  and  C_28
REMARK   13  A    between atoms: C_28  and  C_29
REMARK   14  A    between atoms: C_28  and  C_30
REMARK                            x       y       z     vdW  Elec       q    Type
REMARK                         _______ _______ _______ _____ _____    ______ ____
ROOT
ATOM      1  C   UNK A   0       1.998   9.979  17.913  0.00  0.00    +0.000 C 
ATOM      2  C   UNK A   0       1.639   9.278  19.197  0.00  0.00    +0.000 A 
ATOM      3  C   UNK A   0       1.893   7.896  19.217  0.00  0.00    +0.000 A 
ATOM      4  C   UNK A   0       1.682   7.108  20.347  0.00  0.00    +0.000 A 
ATOM      5  C   UNK A   0       1.031   7.685  21.435  0.00  0.00    +0.000 A 
ATOM      6  C   UNK A   0       0.713   9.056  21.444  0.00  0.00    +0.000 A 
ATOM      7  C   UNK A   0       0.041   9.641  22.659  0.00  0.00    +0.000 C 
ATOM      8  C   UNK A   0       1.066   9.865  20.339  0.00  0.00    +0.000 A 
ENDROOT
BRANCH   4   9
ATOM      9  N   PHE A   1       2.179   5.816  20.419  0.00  0.00    +0.000 N 
ATOM     10  H   PHE A   1       2.897   5.636  21.123  0.00  0.00    +0.000 HD
BRANCH   9  11
ATOM     11  CA  PHE A   1       2.364   5.021  19.176  0.00  0.00    +0.000 C 
BRANCH  11  12
ATOM     12  C   PHE A   1       1.408   3.817  19.174  0.00  0.00    +0.000 C 
ATOM     13  O   PHE A   1       0.853   3.373  20.173  0.00  0.00    +0.000 OA
BRANCH  12  14
ATOM     14  OXT PHE A   1       1.179   3.286  17.946  0.00  0.00    +0.000 OA
ATOM     15  HXT PHE A   1       1.136   2.312  17.913  0.00  0.00    +0.000 HD
ENDBRANCH  12  14
ENDBRANCH  11  12
BRANCH  11  16
ATOM     16  CB  PHE A   1       3.823   4.584  18.887  0.00  0.00    +0.000 C 
BRANCH  16  17
ATOM     17  CG  PHE A   1       4.407   4.853  17.519  0.00  0.00    +0.000 A 
ATOM     18  CD1 PHE A   1       4.560   6.163  17.050  0.00  0.00    +0.000 A 
ATOM     19  CE1 PHE A   1       5.199   6.411  15.832  0.00  0.00    +0.000 A 
ATOM     20  CZ  PHE A   1       5.683   5.354  15.066  0.00  0.00    +0.000 A 
ATOM     21  CE2 PHE A   1       5.524   4.046  15.515  0.00  0.00    +0.000 A 
ATOM     22  CD2 PHE A   1       4.897   3.794  16.741  0.00  0.00    +0.000 A 
ENDBRANCH  16  17
ENDBRANCH  11  16
ENDBRANCH   9  11
ENDBRANCH   4   9
BRANCH   8  23
ATOM     23  O   UNK A   0       0.706  11.194  20.437  0.00  0.00    +0.000 OA
BRANCH  23  24
ATOM     24  C   UNK A   0      -0.529  11.623  20.009  0.00  0.00    +0.000 A 
ATOM     25  C   UNK A   0      -1.111  12.628  20.783  0.00  0.00    +0.000 A 
ATOM     26  C   UNK A   0      -2.406  13.064  20.514  0.00  0.00    +0.000 A 
ATOM     27  C   UNK A   0      -3.130  12.477  19.475  0.00  0.00    +0.000 A 
ATOM     28  C   UNK A   0      -2.560  11.487  18.661  0.00  0.00    +0.000 A 
ATOM     29  C   UNK A   0      -1.223  11.117  18.904  0.00  0.00    +0.000 A 
BRANCH  28  30
ATOM     30  C   UNK A   0      -3.350  10.854  17.526  0.00  0.00    +0.000 C 
ATOM     31  C   UNK A   0      -2.711  11.242  16.194  0.00  0.00    +0.000 C 
ATOM     32  C   UNK A   0      -3.491   9.329  17.634  0.00  0.00    +0.000 C 
ENDBRANCH  28  30
BRANCH  27  33
ATOM     33  O   UNK A   0      -4.415  12.879  19.241  0.00  0.00    +0.000 OA
ATOM     34  H   UNK A   0      -4.922  12.819  20.067  0.00  0.00    +0.000 HD
ENDBRANCH  27  33
ENDBRANCH  23  24
ENDBRANCH   8  23
TORSDOF 10
ENDMDL
MODEL 5
REMARK VINA RESULT:      -7.6      1.048      2.739
REMARK  Name = 
REMARK  14 active torsions:
REMARK  status: ('A' for Active; 'I' for Inactive)
REMARK    1  A    between atoms: C_1  and  C_2
REMARK    2  A    between atoms: C_4  and  N_5
REMARK    3  A    between atoms: N_5  and  CA_6
REMARK    4  A    between atoms: CA_6  and  CB_7
REMARK    5  A    between atoms: CA_6  and  C_14
REMARK    6  A    between atoms: CB_7  and  CG_8
REMARK    7  A    between atoms: C_14  and  OXT_16
REMARK    8  A    between atoms: C_18  and  C_19
REMARK    9  A    between atoms: C_20  and  O_21
REMARK   10  A    between atoms: O_21  and  C_22
REMARK   11  A    between atoms: C_25  and  O_26
REMARK   12  A    between atoms: C_27  and  C_28
REMARK   13  A    between atoms: C_28  and  C_29
REMARK   14  A    between atoms: C_28  and  C_30
REMARK                            x       y       z     vdW  Elec       q    Type
REMARK                         _______ _______ _______ _____ _____    ______ ____
ROOT
ATOM      1  C   UNK A   0       1.997  10.118  17.816  0.00  0.00    +0.000 C 
ATOM      2  C   UNK A   0       1.687   9.395  19.100  0.00  0.00    +0.000 A 
ATOM      3  C   UNK A   0       2.035   8.034  19.122  0.00  0.00    +0.000 A 
ATOM      4  C   UNK A   0       1.879   7.234  20.253  0.00  0.00    +0.000 A 
ATOM      5  C   UNK A   0       1.188   7.766  21.339  0.00  0.00    +0.000 A 
ATOM      6  C   UNK A   0       0.776   9.112  21.347  0.00  0.00    +0.000 A 
ATOM      7  C   UNK A   0       0.064   9.649  22.561  0.00  0.00    +0.000 C 
ATOM      8  C   UNK A   0       1.073   9.942  20.241  0.00  0.00    +0.000 A 
ENDROOT
BRANCH   4   9
ATOM      9  N   PHE A   1       2.464   5.979  20.326  0.00  0.00    +0.000 N 
ATOM     10  H   PHE A   1       3.480   5.949  20.419  0.00  0.00    +0.000 HD
BRANCH   9  11
ATOM     11  CA  PHE A   1       1.914   4.855  19.522  0.00  0.00    +0.000 C 
BRANCH  11  12
ATOM     12  C   PHE A   1       1.611   3.656  20.434  0.00  0.00    +0.000 C 
ATOM     13  O   PHE A   1       2.412   3.165  21.221  0.00  0.00    +0.000 OA
BRANCH  12  14
ATOM     14  OXT PHE A   1       0.340   3.186  20.337  0.00  0.00    +0.000 OA
ATOM     15  HXT PHE A   1       0.224   2.414  19.752  0.00  0.00    +0.000 HD
ENDBRANCH  12  14
ENDBRANCH  11  12
BRANCH  11  16
ATOM     16  CB  PHE A   1       2.777   4.436  18.305  0.00  0.00    +0.000 C 
BRANCH  16  17
ATOM     17  CG  PHE A   1       4.148   5.049  18.138  0.00  0.00    +0.000 A 
ATOM     18  CD1 PHE A   1       4.374   6.056  17.191  0.00  0.00    +0.000 A 
ATOM     19  CE1 PHE A   1       5.615   6.694  17.115  0.00  0.00    +0.000 A 
ATOM     20  CZ  PHE A   1       6.645   6.328  17.976  0.00  0.00    +0.000 A 
ATOM     21  CE2 PHE A   1       6.439   5.320  18.913  0.00  0.00    +0.000 A 
ATOM     22  CD2 PHE A   1       5.193   4.687  19.001  0.00  0.00    +0.000 A 
ENDBRANCH  16  17
ENDBRANCH  11  16
ENDBRANCH   9  11
ENDBRANCH   4   9
BRANCH   8  23
ATOM     23  O   UNK A   0       0.622  11.243  20.338  0.00  0.00    +0.000 OA
BRANCH  23  24
ATOM     24  C   UNK A   0      -0.637  11.586  19.902  0.00  0.00    +0.000 A 
ATOM     25  C   UNK A   0      -1.302  12.528  20.688  0.00  0.00    +0.000 A 
ATOM     26  C   UNK A   0      -2.623  12.871  20.410  0.00  0.00    +0.000 A 
ATOM     27  C   UNK A   0      -3.289  12.253  19.351  0.00  0.00    +0.000 A 
ATOM     28  C   UNK A   0      -2.636  11.325  18.525  0.00  0.00    +0.000 A 
ATOM     29  C   UNK A   0      -1.278  11.052  18.779  0.00  0.00    +0.000 A 
BRANCH  28  30
ATOM     30  C   UNK A   0      -3.363  10.657  17.368  0.00  0.00    +0.000 C 
ATOM     31  C   UNK A   0      -2.411  10.542  16.179  0.00  0.00    +0.000 C 
ATOM     32  C   UNK A   0      -3.967   9.289  17.712  0.00  0.00    +0.000 C 
ENDBRANCH  28  30
BRANCH  27  33
ATOM     33  O   UNK A   0      -4.598  12.562  19.108  0.00  0.00    +0.000 OA
ATOM     34  H   UNK A   0      -4.931  13.121  19.828  0.00  0.00    +0.000 HD
ENDBRANCH  27  33
ENDBRANCH  23  24
ENDBRANCH   8  23
TORSDOF 10
ENDMDL
MODEL 6
REMARK VINA RESULT:      -7.6      0.798      2.592
REMARK  Name = 
REMARK  14 active torsions:
REMARK  status: ('A' for Active; 'I' for Inactive)
REMARK    1  A    between atoms: C_1  and  C_2
REMARK    2  A    between atoms: C_4  and  N_5
REMARK    3  A    between atoms: N_5  and  CA_6
REMARK    4  A    between atoms: CA_6  and  CB_7
REMARK    5  A    between atoms: CA_6  and  C_14
REMARK    6  A    between atoms: CB_7  and  CG_8
REMARK    7  A    between atoms: C_14  and  OXT_16
REMARK    8  A    between atoms: C_18  and  C_19
REMARK    9  A    between atoms: C_20  and  O_21
REMARK   10  A    between atoms: O_21  and  C_22
REMARK   11  A    between atoms: C_25  and  O_26
REMARK   12  A    between atoms: C_27  and  C_28
REMARK   13  A    between atoms: C_28  and  C_29
REMARK   14  A    between atoms: C_28  and  C_30
REMARK                            x       y       z     vdW  Elec       q    Type
REMARK                         _______ _______ _______ _____ _____    ______ ____
ROOT
ATOM      1  C   UNK A   0       2.376   8.938  17.588  0.00  0.00    +0.000 C 
ATOM      2  C   UNK A   0       1.941   8.420  18.934  0.00  0.00    +0.000 A 
ATOM      3  C   UNK A   0       2.049   7.030  19.106  0.00  0.00    +0.000 A 
ATOM      4  C   UNK A   0       1.753   6.394  20.310  0.00  0.00    +0.000 A 
ATOM      5  C   UNK A   0       1.160   7.149  21.319  0.00  0.00    +0.000 A 
ATOM      6  C   UNK A   0       0.986   8.539  21.177  0.00  0.00    +0.000 A 
ATOM      7  C   UNK A   0       0.373   9.317  22.312  0.00  0.00    +0.000 C 
ATOM      8  C   UNK A   0       1.426   9.183  19.997  0.00  0.00    +0.000 A 
ENDROOT
BRANCH   4   9
ATOM      9  N   PHE A   1       2.112   5.073  20.527  0.00  0.00    +0.000 N 
ATOM     10  H   PHE A   1       2.864   4.904  21.196  0.00  0.00    +0.000 HD
BRANCH   9  11
ATOM     11  CA  PHE A   1       2.103   4.105  19.397  0.00  0.00    +0.000 C 
BRANCH  11  12
ATOM     12  C   PHE A   1       1.096   2.979  19.679  0.00  0.00    +0.000 C 
ATOM     13  O   PHE A   1       0.639   2.229  18.823  0.00  0.00    +0.000 OA
BRANCH  12  14
ATOM     14  OXT PHE A   1       0.767   2.836  20.989  0.00  0.00    +0.000 OA
ATOM     15  HXT PHE A   1      -0.158   3.051  21.213  0.00  0.00    +0.000 HD
ENDBRANCH  12  14
ENDBRANCH  11  12
BRANCH  11  16
ATOM     16  CB  PHE A   1       3.492   3.538  19.008  0.00  0.00    +0.000 C 
BRANCH  16  17
ATOM     17  CG  PHE A   1       4.423   4.394  18.181  0.00  0.00    +0.000 A 
ATOM     18  CD1 PHE A   1       4.346   4.391  16.782  0.00  0.00    +0.000 A 
ATOM     19  CE1 PHE A   1       5.133   5.263  16.026  0.00  0.00    +0.000 A 
ATOM     20  CZ  PHE A   1       6.011   6.140  16.656  0.00  0.00    +0.000 A 
ATOM     21  CE2 PHE A   1       6.108   6.143  18.044  0.00  0.00    +0.000 A 
ATOM     22  CD2 PHE A   1       5.311   5.280  18.807  0.00  0.00    +0.000 A 
ENDBRANCH  16  17
ENDBRANCH  11  16
ENDBRANCH   9  11
ENDBRANCH   4   9
BRANCH   8  23
ATOM     23  O   UNK A   0       1.205  10.544  19.948  0.00  0.00    +0.000 OA
BRANCH  23  24
ATOM     24  C   UNK A   0      -0.022  11.046  19.581  0.00  0.00    +0.000 A 
ATOM     25  C   UNK A   0      -0.456  12.150  20.316  0.00  0.00    +0.000 A 
ATOM     26  C   UNK A   0      -1.730  12.676  20.112  0.00  0.00    +0.000 A 
ATOM     27  C   UNK A   0      -2.581  12.081  19.179  0.00  0.00    +0.000 A 
ATOM     28  C   UNK A   0      -2.160  10.990  18.404  0.00  0.00    +0.000 A 
ATOM     29  C   UNK A   0      -0.841  10.525  18.574  0.00  0.00    +0.000 A 
BRANCH  28  30
ATOM     30  C   UNK A   0      -3.088  10.348  17.384  0.00  0.00    +0.000 C 
ATOM     31  C   UNK A   0      -2.268   9.888  16.181  0.00  0.00    +0.000 C 
ATOM     32  C   UNK A   0      -3.927   9.189  17.942  0.00  0.00    +0.000 C 
ENDBRANCH  28  30
BRANCH  27  33
ATOM     33  O   UNK A   0      -3.844  12.575  19.011  0.00  0.00    +0.000 OA
ATOM     34  H   UNK A   0      -3.939  12.902  18.103  0.00  0.00    +0.000 HD
ENDBRANCH  27  33
ENDBRANCH  23  24
ENDBRANCH   8  23
TORSDOF 10
ENDMDL
MODEL 7
REMARK VINA RESULT:      -7.5      1.112      2.229
REMARK  Name = 
REMARK  14 active torsions:
REMARK  status: ('A' for Active; 'I' for Inactive)
REMARK    1  A    between atoms: C_1  and  C_2
REMARK    2  A    between atoms: C_4  and  N_5
REMARK    3  A    between atoms: N_5  and  CA_6
REMARK    4  A    between atoms: CA_6  and  CB_7
REMARK    5  A    between atoms: CA_6  and  C_14
REMARK    6  A    between atoms: CB_7  and  CG_8
REMARK    7  A    between atoms: C_14  and  OXT_16
REMARK    8  A    between atoms: C_18  and  C_19
REMARK    9  A    between atoms: C_20  and  O_21
REMARK   10  A    between atoms: O_21  and  C_22
REMARK   11  A    between atoms: C_25  and  O_26
REMARK   12  A    between atoms: C_27  and  C_28
REMARK   13  A    between atoms: C_28  and  C_29
REMARK   14  A    between atoms: C_28  and  C_30
REMARK                            x       y       z     vdW  Elec       q    Type
REMARK                         _______ _______ _______ _____ _____    ______ ____
ROOT
ATOM      1  C   UNK A   0       2.938   8.298  17.353  0.00  0.00    +0.000 C 
ATOM      2  C   UNK A   0       2.408   7.660  18.611  0.00  0.00    +0.000 A 
ATOM      3  C   UNK A   0       2.519   6.261  18.667  0.00  0.00    +0.000 A 
ATOM      4  C   UNK A   0       2.139   5.519  19.784  0.00  0.00    +0.000 A 
ATOM      5  C   UNK A   0       1.464   6.178  20.808  0.00  0.00    +0.000 A 
ATOM      6  C   UNK A   0       1.285   7.574  20.776  0.00  0.00    +0.000 A 
ATOM      7  C   UNK A   0       0.579   8.245  21.926  0.00  0.00    +0.000 C 
ATOM      8  C   UNK A   0       1.806   8.323  19.695  0.00  0.00    +0.000 A 
ENDROOT
BRANCH   4   9
ATOM      9  N   PHE A   1       2.496   4.185  19.910  0.00  0.00    +0.000 N 
ATOM     10  H   PHE A   1       2.676   3.843  20.855  0.00  0.00    +0.000 HD
BRANCH   9  11
ATOM     11  CA  PHE A   1       3.358   3.546  18.881  0.00  0.00    +0.000 C 
BRANCH  11  12
ATOM     12  C   PHE A   1       2.909   2.096  18.644  0.00  0.00    +0.000 C 
ATOM     13  O   PHE A   1       3.673   1.147  18.509  0.00  0.00    +0.000 OA
BRANCH  12  14
ATOM     14  OXT PHE A   1       1.562   1.921  18.637  0.00  0.00    +0.000 OA
ATOM     15  HXT PHE A   1       1.035   2.736  18.734  0.00  0.00    +0.000 HD
ENDBRANCH  12  14
ENDBRANCH  11  12
BRANCH  11  16
ATOM     16  CB  PHE A   1       4.881   3.627  19.159  0.00  0.00    +0.000 C 
BRANCH  16  17
ATOM     17  CG  PHE A   1       5.686   4.722  18.496  0.00  0.00    +0.000 A 
ATOM     18  CD1 PHE A   1       6.710   5.379  19.190  0.00  0.00    +0.000 A 
ATOM     19  CE1 PHE A   1       7.521   6.314  18.540  0.00  0.00    +0.000 A 
ATOM     20  CZ  PHE A   1       7.313   6.608  17.195  0.00  0.00    +0.000 A 
ATOM     21  CE2 PHE A   1       6.290   5.972  16.498  0.00  0.00    +0.000 A 
ATOM     22  CD2 PHE A   1       5.483   5.025  17.142  0.00  0.00    +0.000 A 
ENDBRANCH  16  17
ENDBRANCH  11  16
ENDBRANCH   9  11
ENDBRANCH   4   9
BRANCH   8  23
ATOM     23  O   UNK A   0       1.575   9.682  19.750  0.00  0.00    +0.000 OA
BRANCH  23  24
ATOM     24  C   UNK A   0       0.336  10.198  19.447  0.00  0.00    +0.000 A 
ATOM     25  C   UNK A   0      -0.171   9.835  18.198  0.00  0.00    +0.000 A 
ATOM     26  C   UNK A   0      -1.364  10.384  17.734  0.00  0.00    +0.000 A 
ATOM     27  C   UNK A   0      -2.044  11.317  18.517  0.00  0.00    +0.000 A 
ATOM     28  C   UNK A   0      -1.575  11.679  19.789  0.00  0.00    +0.000 A 
ATOM     29  C   UNK A   0      -0.408  11.052  20.268  0.00  0.00    +0.000 A 
BRANCH  28  30
ATOM     30  C   UNK A   0      -2.323  12.692  20.642  0.00  0.00    +0.000 C 
ATOM     31  C   UNK A   0      -2.235  12.274  22.108  0.00  0.00    +0.000 C 
ATOM     32  C   UNK A   0      -1.841  14.139  20.463  0.00  0.00    +0.000 C 
ENDBRANCH  28  30
BRANCH  27  33
ATOM     33  O   UNK A   0      -3.192  11.885  18.040  0.00  0.00    +0.000 OA
ATOM     34  H   UNK A   0      -3.310  11.629  17.111  0.00  0.00    +0.000 HD
ENDBRANCH  27  33
ENDBRANCH  23  24
ENDBRANCH   8  23
TORSDOF 10
ENDMDL
MODEL 8
REMARK VINA RESULT:      -7.5      1.068      2.071
REMARK  Name = 
REMARK  14 active torsions:
REMARK  status: ('A' for Active; 'I' for Inactive)
REMARK    1  A    between atoms: C_1  and  C_2
REMARK    2  A    between atoms: C_4  and  N_5
REMARK    3  A    between atoms: N_5  and  CA_6
REMARK    4  A    between atoms: CA_6  and  CB_7
REMARK    5  A    between atoms: CA_6  and  C_14
REMARK    6  A    between atoms: CB_7  and  CG_8
REMARK    7  A    between atoms: C_14  and  OXT_16
REMARK    8  A    between atoms: C_18  and  C_19
REMARK    9  A    between atoms: C_20  and  O_21
REMARK   10  A    between atoms: O_21  and  C_22
REMARK   11  A    between atoms: C_25  and  O_26
REMARK   12  A    between atoms: C_27  and  C_28
REMARK   13  A    between atoms: C_28  and  C_29
REMARK   14  A    between atoms: C_28  and  C_30
REMARK                            x       y       z     vdW  Elec       q    Type
REMARK                         _______ _______ _______ _____ _____    ______ ____
ROOT
ATOM      1  C   UNK A   0       1.946   9.726  17.815  0.00  0.00    +0.000 C 
ATOM      2  C   UNK A   0       1.576   9.121  19.144  0.00  0.00    +0.000 A 
ATOM      3  C   UNK A   0       1.961   7.782  19.322  0.00  0.00    +0.000 A 
ATOM      4  C   UNK A   0       1.757   7.092  20.515  0.00  0.00    +0.000 A 
ATOM      5  C   UNK A   0       0.984   7.702  21.500  0.00  0.00    +0.000 A 
ATOM      6  C   UNK A   0       0.534   9.028  21.348  0.00  0.00    +0.000 A 
ATOM      7  C   UNK A   0      -0.269   9.656  22.458  0.00  0.00    +0.000 C 
ATOM      8  C   UNK A   0       0.876   9.756  20.185  0.00  0.00    +0.000 A 
ENDROOT
BRANCH   4   9
ATOM      9  N   PHE A   1       2.371   5.871  20.748  0.00  0.00    +0.000 N 
ATOM     10  H   PHE A   1       3.088   5.847  21.474  0.00  0.00    +0.000 HD
BRANCH   9  11
ATOM     11  CA  PHE A   1       2.655   4.954  19.613  0.00  0.00    +0.000 C 
BRANCH  11  12
ATOM     12  C   PHE A   1       1.939   3.611  19.830  0.00  0.00    +0.000 C 
ATOM     13  O   PHE A   1       0.722   3.469  19.833  0.00  0.00    +0.000 OA
BRANCH  12  14
ATOM     14  OXT PHE A   1       2.773   2.550  19.981  0.00  0.00    +0.000 OA
ATOM     15  HXT PHE A   1       3.677   2.768  20.275  0.00  0.00    +0.000 HD
ENDBRANCH  12  14
ENDBRANCH  11  12
BRANCH  11  16
ATOM     16  CB  PHE A   1       4.159   4.747  19.296  0.00  0.00    +0.000 C 
BRANCH  16  17
ATOM     17  CG  PHE A   1       4.657   5.044  17.900  0.00  0.00    +0.000 A 
ATOM     18  CD1 PHE A   1       4.959   4.005  17.011  0.00  0.00    +0.000 A 
ATOM     19  CE1 PHE A   1       5.315   4.283  15.689  0.00  0.00    +0.000 A 
ATOM     20  CZ  PHE A   1       5.381   5.600  15.243  0.00  0.00    +0.000 A 
ATOM     21  CE2 PHE A   1       5.097   6.642  16.120  0.00  0.00    +0.000 A 
ATOM     22  CD2 PHE A   1       4.727   6.367  17.443  0.00  0.00    +0.000 A 
ENDBRANCH  16  17
ENDBRANCH  11  16
ENDBRANCH   9  11
ENDBRANCH   4   9
BRANCH   8  23
ATOM     23  O   UNK A   0       0.383  11.043  20.125  0.00  0.00    +0.000 OA
BRANCH  23  24
ATOM     24  C   UNK A   0      -0.918  11.282  19.745  0.00  0.00    +0.000 A 
ATOM     25  C   UNK A   0      -1.326  10.630  18.580  0.00  0.00    +0.000 A 
ATOM     26  C   UNK A   0      -2.583  10.881  18.035  0.00  0.00    +0.000 A 
ATOM     27  C   UNK A   0      -3.429  11.804  18.650  0.00  0.00    +0.000 A 
ATOM     28  C   UNK A   0      -3.059  12.452  19.838  0.00  0.00    +0.000 A 
ATOM     29  C   UNK A   0      -1.814  12.124  20.411  0.00  0.00    +0.000 A 
BRANCH  28  30
ATOM     30  C   UNK A   0      -3.987  13.453  20.508  0.00  0.00    +0.000 C 
ATOM     31  C   UNK A   0      -4.797  12.740  21.588  0.00  0.00    +0.000 C 
ATOM     32  C   UNK A   0      -3.270  14.680  21.091  0.00  0.00    +0.000 C 
ENDBRANCH  28  30
BRANCH  27  33
ATOM     33  O   UNK A   0      -4.645  12.079  18.088  0.00  0.00    +0.000 OA
ATOM     34  H   UNK A   0      -4.944  11.304  17.585  0.00  0.00    +0.000 HD
ENDBRANCH  27  33
ENDBRANCH  23  24
ENDBRANCH   8  23
TORSDOF 10
ENDMDL
MODEL 9
REMARK VINA RESULT:      -7.4      0.919      2.026
REMARK  Name = 
REMARK  14 active torsions:
REMARK  status: ('A' for Active; 'I' for Inactive)
REMARK    1  A    between atoms: C_1  and  C_2
REMARK    2  A    between atoms: C_4  and  N_5
REMARK    3  A    between atoms: N_5  and  CA_6
REMARK    4  A    between atoms: CA_6  and  CB_7
REMARK    5  A    between atoms: CA_6  and  C_14
REMARK    6  A    between atoms: CB_7  and  CG_8
REMARK    7  A    between atoms: C_14  and  OXT_16
REMARK    8  A    between atoms: C_18  and  C_19
REMARK    9  A    between atoms: C_20  and  O_21
REMARK   10  A    between atoms: O_21  and  C_22
REMARK   11  A    between atoms: C_25  and  O_26
REMARK   12  A    between atoms: C_27  and  C_28
REMARK   13  A    between atoms: C_28  and  C_29
REMARK   14  A    between atoms: C_28  and  C_30
REMARK                            x       y       z     vdW  Elec       q    Type
REMARK                         _______ _______ _______ _____ _____    ______ ____
ROOT
ATOM      1  C   UNK A   0       1.936  10.051  17.788  0.00  0.00    +0.000 C 
ATOM      2  C   UNK A   0       1.657   9.258  19.038  0.00  0.00    +0.000 A 
ATOM      3  C   UNK A   0       2.081   7.919  19.007  0.00  0.00    +0.000 A 
ATOM      4  C   UNK A   0       1.962   7.064  20.101  0.00  0.00    +0.000 A 
ATOM      5  C   UNK A   0       1.234   7.510  21.202  0.00  0.00    +0.000 A 
ATOM      6  C   UNK A   0       0.747   8.829  21.262  0.00  0.00    +0.000 A 
ATOM      7  C   UNK A   0      -0.003   9.274  22.490  0.00  0.00    +0.000 C 
ATOM      8  C   UNK A   0       1.005   9.721  20.195  0.00  0.00    +0.000 A 
ENDROOT
BRANCH   4   9
ATOM      9  N   PHE A   1       2.616   5.842  20.127  0.00  0.00    +0.000 N 
ATOM     10  H   PHE A   1       3.609   5.856  20.364  0.00  0.00    +0.000 HD
BRANCH   9  11
ATOM     11  CA  PHE A   1       2.262   4.789  19.139  0.00  0.00    +0.000 C 
BRANCH  11  12
ATOM     12  C   PHE A   1       1.934   3.475  19.866  0.00  0.00    +0.000 C 
ATOM     13  O   PHE A   1       2.686   2.509  19.924  0.00  0.00    +0.000 OA
BRANCH  12  14
ATOM     14  OXT PHE A   1       0.731   3.470  20.497  0.00  0.00    +0.000 OA
ATOM     15  HXT PHE A   1       0.349   2.587  20.660  0.00  0.00    +0.000 HD
ENDBRANCH  12  14
ENDBRANCH  11  12
BRANCH  11  16
ATOM     16  CB  PHE A   1       3.306   4.567  18.015  0.00  0.00    +0.000 C 
BRANCH  16  17
ATOM     17  CG  PHE A   1       4.630   5.292  18.096  0.00  0.00    +0.000 A 
ATOM     18  CD1 PHE A   1       5.606   4.899  19.021  0.00  0.00    +0.000 A 
ATOM     19  CE1 PHE A   1       6.867   5.501  19.019  0.00  0.00    +0.000 A 
ATOM     20  CZ  PHE A   1       7.164   6.505  18.102  0.00  0.00    +0.000 A 
ATOM     21  CE2 PHE A   1       6.199   6.914  17.188  0.00  0.00    +0.000 A 
ATOM     22  CD2 PHE A   1       4.938   6.304  17.177  0.00  0.00    +0.000 A 
ENDBRANCH  16  17
ENDBRANCH  11  16
ENDBRANCH   9  11
ENDBRANCH   4   9
BRANCH   8  23
ATOM     23  O   UNK A   0       0.480  10.989  20.342  0.00  0.00    +0.000 OA
BRANCH  23  24
ATOM     24  C   UNK A   0      -0.809  11.268  19.951  0.00  0.00    +0.000 A 
ATOM     25  C   UNK A   0      -1.173  10.764  18.701  0.00  0.00    +0.000 A 
ATOM     26  C   UNK A   0      -2.413  11.076  18.149  0.00  0.00    +0.000 A 
ATOM     27  C   UNK A   0      -3.287  11.912  18.845  0.00  0.00    +0.000 A 
ATOM     28  C   UNK A   0      -2.961  12.408  20.117  0.00  0.00    +0.000 A 
ATOM     29  C   UNK A   0      -1.733  12.016  20.686  0.00  0.00    +0.000 A 
BRANCH  28  30
ATOM     30  C   UNK A   0      -3.919  13.314  20.874  0.00  0.00    +0.000 C 
ATOM     31  C   UNK A   0      -4.031  12.829  22.318  0.00  0.00    +0.000 C 
ATOM     32  C   UNK A   0      -3.541  14.802  20.832  0.00  0.00    +0.000 C 
ENDBRANCH  28  30
BRANCH  27  33
ATOM     33  O   UNK A   0      -4.486  12.249  18.282  0.00  0.00    +0.000 OA
ATOM     34  H   UNK A   0      -5.014  11.444  18.156  0.00  0.00    +0.000 HD
ENDBRANCH  27  33
ENDBRANCH  23  24
ENDBRANCH   8  23
TORSDOF 10
ENDMDL
