MODEL 1
REMARK VINA RESULT:      -6.7      0.000      0.000
REMARK  Name = 
REMARK  6 active torsions:
REMARK  status: ('A' for Active; 'I' for Inactive)
REMARK    1  A    between atoms: C_2  and  C_3
REMARK    2  A    between atoms: C_3  and  C_4
REMARK    3  A    between atoms: C_6  and  C_7
REMARK    4  A    between atoms: C_11  and  O_12
REMARK    5  A    between atoms: O_12  and  C_13
REMARK    6  A    between atoms: C_13  and  C_14
REMARK                            x       y       z     vdW  Elec       q    Type
REMARK                         _______ _______ _______ _____ _____    ______ ____
ROOT
ATOM      1  C   UNL     1       5.387   4.285  16.141  0.00  0.00    +0.000 A 
ATOM      2  C   UNL     1       6.235   4.524  17.225  0.00  0.00    +0.000 A 
ATOM      3  N   UNL     1       5.929   4.275  18.517  0.00  0.00    +0.000 NA
ATOM      4  C   UNL     1       4.714   3.730  18.754  0.00  0.00    +0.000 A 
ATOM      5  C   UNL     1       3.784   3.431  17.767  0.00  0.00    +0.000 A 
ATOM      6  C   UNL     1       4.141   3.708  16.448  0.00  0.00    +0.000 A 
ENDROOT
BRANCH   1   9
ATOM      7  C   UNL     1       6.351   3.824  13.746  0.00  0.00    +0.000 C 
ATOM      8  C   UNL     1       7.150   4.963  14.318  0.00  0.00    +0.000 C 
ATOM      9  C   UNL     1       5.720   4.760  14.751  0.00  0.00    +0.000 C 
BRANCH   7  10
ATOM     10  C   UNL     1       5.906   3.869  12.308  0.00  0.00    +0.000 C 
BRANCH  10  12
ATOM     11  F   UNL     1       4.170   2.700  11.238  0.00  0.00    +0.000 F 
ATOM     12  C   UNL     1       5.381   2.523  11.835  0.00  0.00    +0.000 C 
ENDBRANCH  10  12
ENDBRANCH   7  10
ENDBRANCH   1   9
BRANCH   5  13
ATOM     13  O   UNL     1       2.590   2.934  18.205  0.00  0.00    +0.000 OA
BRANCH  13  14
ATOM     14  C   UNL     1       1.550   3.880  18.469  0.00  0.00    +0.000 C 
BRANCH  14  15
ATOM     15  C   UNL     1       1.112   3.709  19.921  0.00  0.00    +0.000 C 
ATOM     16  C   UNL     1       1.964   4.404  21.006  0.00  0.00    +0.000 C 
ATOM     17  C   UNL     1       1.801   3.093  21.788  0.00  0.00    +0.000 C 
ATOM     18  N   UNL     1       1.548   2.407  20.503  0.00  0.00    +0.000 NA
ATOM     19  H   UNL     1       0.823   1.691  20.541  0.00  0.00    +0.000 HD
ENDBRANCH  14  15
ENDBRANCH  13  14
ENDBRANCH   5  13
TORSDOF 6
ENDMDL
MODEL 2
REMARK VINA RESULT:      -6.7      1.392      1.394
REMARK  Name = 
REMARK  6 active torsions:
REMARK  status: ('A' for Active; 'I' for Inactive)
REMARK    1  A    between atoms: C_2  and  C_3
REMARK    2  A    between atoms: C_3  and  C_4
REMARK    3  A    between atoms: C_6  and  C_7
REMARK    4  A    between atoms: C_11  and  O_12
REMARK    5  A    between atoms: O_12  and  C_13
REMARK    6  A    between atoms: C_13  and  C_14
REMARK                            x       y       z     vdW  Elec       q    Type
REMARK                         _______ _______ _______ _____ _____    ______ ____
ROOT
ATOM      1  C   UNL     1       5.329   5.048  16.630  0.00  0.00    +0.000 A 
ATOM      2  C   UNL     1       6.257   5.150  17.668  0.00  0.00    +0.000 A 
ATOM      3  N   UNL     1       5.945   5.249  18.979  0.00  0.00    +0.000 NA
ATOM      4  C   UNL     1       4.628   5.220  19.288  0.00  0.00    +0.000 A 
ATOM      5  C   UNL     1       3.606   5.108  18.355  0.00  0.00    +0.000 A 
ATOM      6  C   UNL     1       3.975   5.012  17.014  0.00  0.00    +0.000 A 
ENDROOT
BRANCH   1   9
ATOM      7  C   UNL     1       6.077   3.880  14.404  0.00  0.00    +0.000 C 
ATOM      8  C   UNL     1       7.162   4.859  14.761  0.00  0.00    +0.000 C 
ATOM      9  C   UNL     1       5.740   5.131  15.184  0.00  0.00    +0.000 C 
BRANCH   7  10
ATOM     10  C   UNL     1       5.625   3.752  12.974  0.00  0.00    +0.000 C 
BRANCH  10  12
ATOM     11  F   UNL     1       7.339   4.496  11.549  0.00  0.00    +0.000 F 
ATOM     12  C   UNL     1       6.770   3.367  12.051  0.00  0.00    +0.000 C 
ENDBRANCH  10  12
ENDBRANCH   7  10
ENDBRANCH   1   9
BRANCH   5  13
ATOM     13  O   UNL     1       2.337   5.149  18.854  0.00  0.00    +0.000 OA
BRANCH  13  14
ATOM     14  C   UNL     1       1.450   4.096  18.464  0.00  0.00    +0.000 C 
BRANCH  14  15
ATOM     15  C   UNL     1       1.036   3.335  19.721  0.00  0.00    +0.000 C 
ATOM     16  C   UNL     1       1.443   3.941  21.083  0.00  0.00    +0.000 C 
ATOM     17  C   UNL     1       1.804   2.499  21.468  0.00  0.00    +0.000 C 
ATOM     18  N   UNL     1       1.946   2.195  20.028  0.00  0.00    +0.000 NA
ATOM     19  H   UNL     1       1.594   1.280  19.751  0.00  0.00    +0.000 HD
ENDBRANCH  14  15
ENDBRANCH  13  14
ENDBRANCH   5  13
TORSDOF 6
ENDMDL
MODEL 3
REMARK VINA RESULT:      -6.6      1.554      1.778
REMARK  Name = 
REMARK  6 active torsions:
REMARK  status: ('A' for Active; 'I' for Inactive)
REMARK    1  A    between atoms: C_2  and  C_3
REMARK    2  A    between atoms: C_3  and  C_4
REMARK    3  A    between atoms: C_6  and  C_7
REMARK    4  A    between atoms: C_11  and  O_12
REMARK    5  A    between atoms: O_12  and  C_13
REMARK    6  A    between atoms: C_13  and  C_14
REMARK                            x       y       z     vdW  Elec       q    Type
REMARK                         _______ _______ _______ _____ _____    ______ ____
ROOT
ATOM      1  C   UNL     1       5.750   4.993  16.615  0.00  0.00    +0.000 A 
ATOM      2  C   UNL     1       6.888   4.678  17.360  0.00  0.00    +0.000 A 
ATOM      3  N   UNL     1       6.969   4.723  18.708  0.00  0.00    +0.000 NA
ATOM      4  C   UNL     1       5.842   5.080  19.367  0.00  0.00    +0.000 A 
ATOM      5  C   UNL     1       4.642   5.404  18.749  0.00  0.00    +0.000 A 
ATOM      6  C   UNL     1       4.606   5.346  17.356  0.00  0.00    +0.000 A 
ENDROOT
BRANCH   1   9
ATOM      7  C   UNL     1       6.020   3.878  14.256  0.00  0.00    +0.000 C 
ATOM      8  C   UNL     1       7.078   4.944  14.352  0.00  0.00    +0.000 C 
ATOM      9  C   UNL     1       5.786   5.102  15.114  0.00  0.00    +0.000 C 
BRANCH   7  10
ATOM     10  C   UNL     1       5.243   3.708  12.979  0.00  0.00    +0.000 C 
BRANCH  10  12
ATOM     11  F   UNL     1       5.547   1.762  11.695  0.00  0.00    +0.000 F 
ATOM     12  C   UNL     1       6.061   3.004  11.908  0.00  0.00    +0.000 C 
ENDBRANCH  10  12
ENDBRANCH   7  10
ENDBRANCH   1   9
BRANCH   5  13
ATOM     13  O   UNL     1       3.630   5.790  19.579  0.00  0.00    +0.000 OA
BRANCH  13  14
ATOM     14  C   UNL     1       2.298   5.456  19.179  0.00  0.00    +0.000 C 
BRANCH  14  15
ATOM     15  C   UNL     1       2.084   3.968  19.443  0.00  0.00    +0.000 C 
ATOM     16  C   UNL     1       1.692   3.083  18.239  0.00  0.00    +0.000 C 
ATOM     17  C   UNL     1       0.691   2.437  19.208  0.00  0.00    +0.000 C 
ATOM     18  N   UNL     1       0.740   3.674  20.016  0.00  0.00    +0.000 NA
ATOM     19  H   UNL     1       0.728   3.522  21.024  0.00  0.00    +0.000 HD
ENDBRANCH  14  15
ENDBRANCH  13  14
ENDBRANCH   5  13
TORSDOF 6
ENDMDL
MODEL 4
REMARK VINA RESULT:      -6.6      1.693      2.166
REMARK  Name = 
REMARK  6 active torsions:
REMARK  status: ('A' for Active; 'I' for Inactive)
REMARK    1  A    between atoms: C_2  and  C_3
REMARK    2  A    between atoms: C_3  and  C_4
REMARK    3  A    between atoms: C_6  and  C_7
REMARK    4  A    between atoms: C_11  and  O_12
REMARK    5  A    between atoms: O_12  and  C_13
REMARK    6  A    between atoms: C_13  and  C_14
REMARK                            x       y       z     vdW  Elec       q    Type
REMARK                         _______ _______ _______ _____ _____    ______ ____
ROOT
ATOM      1  C   UNL     1       6.038   4.289  15.233  0.00  0.00    +0.000 A 
ATOM      2  C   UNL     1       7.292   4.590  15.768  0.00  0.00    +0.000 A 
ATOM      3  N   UNL     1       7.549   4.775  17.082  0.00  0.00    +0.000 NA
ATOM      4  C   UNL     1       6.502   4.629  17.927  0.00  0.00    +0.000 A 
ATOM      5  C   UNL     1       5.210   4.318  17.527  0.00  0.00    +0.000 A 
ATOM      6  C   UNL     1       4.990   4.139  16.161  0.00  0.00    +0.000 A 
ENDROOT
BRANCH   1   9
ATOM      7  C   UNL     1       6.331   3.170  12.879  0.00  0.00    +0.000 C 
ATOM      8  C   UNL     1       6.901   4.558  12.768  0.00  0.00    +0.000 C 
ATOM      9  C   UNL     1       5.787   4.282  13.748  0.00  0.00    +0.000 C 
BRANCH   7  10
ATOM     10  C   UNL     1       5.483   2.618  11.764  0.00  0.00    +0.000 C 
BRANCH  10  12
ATOM     11  F   UNL     1       7.434   1.597  10.939  0.00  0.00    +0.000 F 
ATOM     12  C   UNL     1       6.105   1.378  11.140  0.00  0.00    +0.000 C 
ENDBRANCH  10  12
ENDBRANCH   7  10
ENDBRANCH   1   9
BRANCH   5  13
ATOM     13  O   UNL     1       4.276   4.265  18.520  0.00  0.00    +0.000 OA
BRANCH  13  14
ATOM     14  C   UNL     1       4.355   3.164  19.429  0.00  0.00    +0.000 C 
BRANCH  14  15
ATOM     15  C   UNL     1       2.964   2.545  19.547  0.00  0.00    +0.000 C 
ATOM     16  C   UNL     1       2.341   1.951  18.264  0.00  0.00    +0.000 C 
ATOM     17  C   UNL     1       1.048   2.633  18.734  0.00  0.00    +0.000 C 
ATOM     18  N   UNL     1       1.878   3.566  19.526  0.00  0.00    +0.000 NA
ATOM     19  H   UNL     1       1.495   3.803  20.440  0.00  0.00    +0.000 HD
ENDBRANCH  14  15
ENDBRANCH  13  14
ENDBRANCH   5  13
TORSDOF 6
ENDMDL
MODEL 5
REMARK VINA RESULT:      -6.6      1.272      1.323
REMARK  Name = 
REMARK  6 active torsions:
REMARK  status: ('A' for Active; 'I' for Inactive)
REMARK    1  A    between atoms: C_2  and  C_3
REMARK    2  A    between atoms: C_3  and  C_4
REMARK    3  A    between atoms: C_6  and  C_7
REMARK    4  A    between atoms: C_11  and  O_12
REMARK    5  A    between atoms: O_12  and  C_13
REMARK    6  A    between atoms: C_13  and  C_14
REMARK                            x       y       z     vdW  Elec       q    Type
REMARK                         _______ _______ _______ _____ _____    ______ ____
ROOT
ATOM      1  C   UNL     1       5.797   4.985  16.558  0.00  0.00    +0.000 A 
ATOM      2  C   UNL     1       6.989   4.834  17.270  0.00  0.00    +0.000 A 
ATOM      3  N   UNL     1       7.096   4.863  18.616  0.00  0.00    +0.000 NA
ATOM      4  C   UNL     1       5.944   5.025  19.308  0.00  0.00    +0.000 A 
ATOM      5  C   UNL     1       4.693   5.172  18.725  0.00  0.00    +0.000 A 
ATOM      6  C   UNL     1       4.631   5.140  17.332  0.00  0.00    +0.000 A 
ENDROOT
BRANCH   1   9
ATOM      7  C   UNL     1       6.029   3.938  14.164  0.00  0.00    +0.000 C 
ATOM      8  C   UNL     1       7.048   5.042  14.251  0.00  0.00    +0.000 C 
ATOM      9  C   UNL     1       5.777   5.131  15.060  0.00  0.00    +0.000 C 
BRANCH   7  10
ATOM     10  C   UNL     1       5.215   3.768  12.909  0.00  0.00    +0.000 C 
BRANCH  10  12
ATOM     11  F   UNL     1       4.877   2.258  11.140  0.00  0.00    +0.000 F 
ATOM     12  C   UNL     1       5.840   2.755  11.963  0.00  0.00    +0.000 C 
ENDBRANCH  10  12
ENDBRANCH   7  10
ENDBRANCH   1   9
BRANCH   5  13
ATOM     13  O   UNL     1       3.655   5.378  19.586  0.00  0.00    +0.000 OA
BRANCH  13  14
ATOM     14  C   UNL     1       2.335   5.193  19.069  0.00  0.00    +0.000 C 
BRANCH  14  15
ATOM     15  C   UNL     1       1.492   4.523  20.151  0.00  0.00    +0.000 C 
ATOM     16  C   UNL     1       2.226   4.030  21.418  0.00  0.00    +0.000 C 
ATOM     17  C   UNL     1       1.345   2.779  21.281  0.00  0.00    +0.000 C 
ATOM     18  N   UNL     1       1.193   3.095  19.845  0.00  0.00    +0.000 NA
ATOM     19  H   UNL     1       0.261   2.923  19.470  0.00  0.00    +0.000 HD
ENDBRANCH  14  15
ENDBRANCH  13  14
ENDBRANCH   5  13
TORSDOF 6
ENDMDL
MODEL 6
REMARK VINA RESULT:      -6.6      1.384      1.664
REMARK  Name = 
REMARK  6 active torsions:
REMARK  status: ('A' for Active; 'I' for Inactive)
REMARK    1  A    between atoms: C_2  and  C_3
REMARK    2  A    between atoms: C_3  and  C_4
REMARK    3  A    between atoms: C_6  and  C_7
REMARK    4  A    between atoms: C_11  and  O_12
REMARK    5  A    between atoms: O_12  and  C_13
REMARK    6  A    between atoms: C_13  and  C_14
REMARK                            x       y       z     vdW  Elec       q    Type
REMARK                         _______ _______ _______ _____ _____    ______ ____
ROOT
ATOM      1  C   UNL     1       5.471   4.254  16.712  0.00  0.00    +0.000 A 
ATOM      2  C   UNL     1       6.397   4.664  17.674  0.00  0.00    +0.000 A 
ATOM      3  N   UNL     1       6.270   4.468  19.004  0.00  0.00    +0.000 NA
ATOM      4  C   UNL     1       5.166   3.800  19.412  0.00  0.00    +0.000 A 
ATOM      5  C   UNL     1       4.177   3.327  18.560  0.00  0.00    +0.000 A 
ATOM      6  C   UNL     1       4.348   3.555  17.195  0.00  0.00    +0.000 A 
ENDROOT
BRANCH   1   9
ATOM      7  C   UNL     1       6.237   3.761  14.253  0.00  0.00    +0.000 C 
ATOM      8  C   UNL     1       6.917   5.038  14.667  0.00  0.00    +0.000 C 
ATOM      9  C   UNL     1       5.584   4.670  15.270  0.00  0.00    +0.000 C 
BRANCH   7  10
ATOM     10  C   UNL     1       5.644   3.642  12.875  0.00  0.00    +0.000 C 
BRANCH  10  12
ATOM     11  F   UNL     1       7.415   4.435  11.548  0.00  0.00    +0.000 F 
ATOM     12  C   UNL     1       6.699   3.313  11.831  0.00  0.00    +0.000 C 
ENDBRANCH  10  12
ENDBRANCH   7  10
ENDBRANCH   1   9
BRANCH   5  13
ATOM     13  O   UNL     1       3.112   2.723  19.162  0.00  0.00    +0.000 OA
BRANCH  13  14
ATOM     14  C   UNL     1       3.107   2.687  20.592  0.00  0.00    +0.000 C 
BRANCH  14  15
ATOM     15  C   UNL     1       2.036   3.656  21.087  0.00  0.00    +0.000 C 
ATOM     16  C   UNL     1       1.016   4.176  20.049  0.00  0.00    +0.000 C 
ATOM     17  C   UNL     1       1.225   5.540  20.724  0.00  0.00    +0.000 C 
ATOM     18  N   UNL     1       2.537   5.055  21.202  0.00  0.00    +0.000 NA
ATOM     19  H   UNL     1       2.777   5.347  22.149  0.00  0.00    +0.000 HD
ENDBRANCH  14  15
ENDBRANCH  13  14
ENDBRANCH   5  13
TORSDOF 6
ENDMDL
MODEL 7
REMARK VINA RESULT:      -6.5      1.425      1.579
REMARK  Name = 
REMARK  6 active torsions:
REMARK  status: ('A' for Active; 'I' for Inactive)
REMARK    1  A    between atoms: C_2  and  C_3
REMARK    2  A    between atoms: C_3  and  C_4
REMARK    3  A    between atoms: C_6  and  C_7
REMARK    4  A    between atoms: C_11  and  O_12
REMARK    5  A    between atoms: O_12  and  C_13
REMARK    6  A    between atoms: C_13  and  C_14
REMARK                            x       y       z     vdW  Elec       q    Type
REMARK                         _______ _______ _______ _____ _____    ______ ____
ROOT
ATOM      1  C   UNL     1       6.075   4.480  15.659  0.00  0.00    +0.000 A 
ATOM      2  C   UNL     1       7.339   4.689  16.215  0.00  0.00    +0.000 A 
ATOM      3  N   UNL     1       7.602   4.760  17.538  0.00  0.00    +0.000 NA
ATOM      4  C   UNL     1       6.550   4.587  18.371  0.00  0.00    +0.000 A 
ATOM      5  C   UNL     1       5.247   4.358  17.950  0.00  0.00    +0.000 A 
ATOM      6  C   UNL     1       5.022   4.297  16.575  0.00  0.00    +0.000 A 
ENDROOT
BRANCH   1   9
ATOM      7  C   UNL     1       6.229   3.488  13.236  0.00  0.00    +0.000 C 
ATOM      8  C   UNL     1       6.966   4.800  13.211  0.00  0.00    +0.000 C 
ATOM      9  C   UNL     1       5.827   4.600  14.179  0.00  0.00    +0.000 C 
BRANCH   7  10
ATOM     10  C   UNL     1       5.321   3.118  12.094  0.00  0.00    +0.000 C 
BRANCH  10  12
ATOM     11  F   UNL     1       7.150   1.923  11.228  0.00  0.00    +0.000 F 
ATOM     12  C   UNL     1       5.798   1.867  11.374  0.00  0.00    +0.000 C 
ENDBRANCH  10  12
ENDBRANCH   7  10
ENDBRANCH   1   9
BRANCH   5  13
ATOM     13  O   UNL     1       4.310   4.262  18.938  0.00  0.00    +0.000 OA
BRANCH  13  14
ATOM     14  C   UNL     1       3.197   5.158  18.867  0.00  0.00    +0.000 C 
BRANCH  14  15
ATOM     15  C   UNL     1       1.927   4.357  19.140  0.00  0.00    +0.000 C 
ATOM     16  C   UNL     1       1.281   4.505  20.536  0.00  0.00    +0.000 C 
ATOM     17  C   UNL     1       1.100   2.982  20.468  0.00  0.00    +0.000 C 
ATOM     18  N   UNL     1       2.208   2.936  19.490  0.00  0.00    +0.000 NA
ATOM     19  H   UNL     1       2.073   2.273  18.729  0.00  0.00    +0.000 HD
ENDBRANCH  14  15
ENDBRANCH  13  14
ENDBRANCH   5  13
TORSDOF 6
ENDMDL
MODEL 8
REMARK VINA RESULT:      -6.5      1.192      1.326
REMARK  Name = 
REMARK  6 active torsions:
REMARK  status: ('A' for Active; 'I' for Inactive)
REMARK    1  A    between atoms: C_2  and  C_3
REMARK    2  A    between atoms: C_3  and  C_4
REMARK    3  A    between atoms: C_6  and  C_7
REMARK    4  A    between atoms: C_11  and  O_12
REMARK    5  A    between atoms: O_12  and  C_13
REMARK    6  A    between atoms: C_13  and  C_14
REMARK                            x       y       z     vdW  Elec       q    Type
REMARK                         _______ _______ _______ _____ _____    ______ ____
ROOT
ATOM      1  C   UNL     1       6.022   4.995  16.356  0.00  0.00    +0.000 A 
ATOM      2  C   UNL     1       7.005   5.652  17.098  0.00  0.00    +0.000 A 
ATOM      3  N   UNL     1       7.028   5.741  18.446  0.00  0.00    +0.000 NA
ATOM      4  C   UNL     1       6.026   5.117  19.108  0.00  0.00    +0.000 A 
ATOM      5  C   UNL     1       4.997   4.417  18.492  0.00  0.00    +0.000 A 
ATOM      6  C   UNL     1       5.012   4.355  17.099  0.00  0.00    +0.000 A 
ENDROOT
BRANCH   1   9
ATOM      7  C   UNL     1       6.247   3.892  13.987  0.00  0.00    +0.000 C 
ATOM      8  C   UNL     1       7.210   5.047  14.015  0.00  0.00    +0.000 C 
ATOM      9  C   UNL     1       5.957   5.096  14.855  0.00  0.00    +0.000 C 
BRANCH   7  10
ATOM     10  C   UNL     1       5.412   3.644  12.759  0.00  0.00    +0.000 C 
BRANCH  10  12
ATOM     11  F   UNL     1       5.047   1.942  11.179  0.00  0.00    +0.000 F 
ATOM     12  C   UNL     1       6.034   2.593  11.853  0.00  0.00    +0.000 C 
ENDBRANCH  10  12
ENDBRANCH   7  10
ENDBRANCH   1   9
BRANCH   5  13
ATOM     13  O   UNL     1       4.048   3.899  19.324  0.00  0.00    +0.000 OA
BRANCH  13  14
ATOM     14  C   UNL     1       2.973   3.179  18.716  0.00  0.00    +0.000 C 
BRANCH  14  15
ATOM     15  C   UNL     1       2.174   2.496  19.822  0.00  0.00    +0.000 C 
ATOM     16  C   UNL     1       0.956   3.258  20.392  0.00  0.00    +0.000 C 
ATOM     17  C   UNL     1       1.466   2.782  21.761  0.00  0.00    +0.000 C 
ATOM     18  N   UNL     1       2.810   2.639  21.162  0.00  0.00    +0.000 NA
ATOM     19  H   UNL     1       3.329   1.821  21.479  0.00  0.00    +0.000 HD
ENDBRANCH  14  15
ENDBRANCH  13  14
ENDBRANCH   5  13
TORSDOF 6
ENDMDL
MODEL 9
REMARK VINA RESULT:      -6.4      1.592      1.955
REMARK  Name = 
REMARK  6 active torsions:
REMARK  status: ('A' for Active; 'I' for Inactive)
REMARK    1  A    between atoms: C_2  and  C_3
REMARK    2  A    between atoms: C_3  and  C_4
REMARK    3  A    between atoms: C_6  and  C_7
REMARK    4  A    between atoms: C_11  and  O_12
REMARK    5  A    between atoms: O_12  and  C_13
REMARK    6  A    between atoms: C_13  and  C_14
REMARK                            x       y       z     vdW  Elec       q    Type
REMARK                         _______ _______ _______ _____ _____    ______ ____
ROOT
ATOM      1  C   UNL     1       6.033   4.939  16.190  0.00  0.00    +0.000 A 
ATOM      2  C   UNL     1       7.147   5.425  16.877  0.00  0.00    +0.000 A 
ATOM      3  N   UNL     1       7.245   5.527  18.221  0.00  0.00    +0.000 NA
ATOM      4  C   UNL     1       6.180   5.096  18.936  0.00  0.00    +0.000 A 
ATOM      5  C   UNL     1       5.019   4.580  18.378  0.00  0.00    +0.000 A 
ATOM      6  C   UNL     1       4.961   4.497  16.987  0.00  0.00    +0.000 A 
ENDROOT
BRANCH   1   9
ATOM      7  C   UNL     1       6.179   3.818  13.823  0.00  0.00    +0.000 C 
ATOM      8  C   UNL     1       7.146   4.971  13.813  0.00  0.00    +0.000 C 
ATOM      9  C   UNL     1       5.921   5.030  14.691  0.00  0.00    +0.000 C 
BRANCH   7  10
ATOM     10  C   UNL     1       5.304   3.564  12.624  0.00  0.00    +0.000 C 
BRANCH  10  12
ATOM     11  F   UNL     1       7.151   2.613  11.524  0.00  0.00    +0.000 F 
ATOM     12  C   UNL     1       5.828   2.417  11.775  0.00  0.00    +0.000 C 
ENDBRANCH  10  12
ENDBRANCH   7  10
ENDBRANCH   1   9
BRANCH   5  13
ATOM     13  O   UNL     1       4.031   4.247  19.259  0.00  0.00    +0.000 OA
BRANCH  13  14
ATOM     14  C   UNL     1       4.062   2.925  19.802  0.00  0.00    +0.000 C 
BRANCH  14  15
ATOM     15  C   UNL     1       2.694   2.287  19.576  0.00  0.00    +0.000 C 
ATOM     16  C   UNL     1       2.193   2.182  18.118  0.00  0.00    +0.000 C 
ATOM     17  C   UNL     1       0.841   2.635  18.689  0.00  0.00    +0.000 C 
ATOM     18  N   UNL     1       1.571   3.234  19.827  0.00  0.00    +0.000 NA
ATOM     19  H   UNL     1       1.111   3.123  20.730  0.00  0.00    +0.000 HD
ENDBRANCH  14  15
ENDBRANCH  13  14
ENDBRANCH   5  13
TORSDOF 6
ENDMDL
