MODEL 1
REMARK VINA RESULT:      -7.6      0.000      0.000
REMARK  Name = 
REMARK  1 active torsions:
REMARK  status: ('A' for Active; 'I' for Inactive)
REMARK    1  A    between atoms: N_3  and  C_4
REMARK                            x       y       z     vdW  Elec       q    Type
REMARK                         _______ _______ _______ _____ _____    ______ ____
ROOT
ATOM      1  O   UNL     1       2.566   8.498  17.413  0.00  0.00    +0.000 OA
ATOM      2  C   UNL     1       2.203   8.058  18.503  0.00  0.00    +0.000 C 
ATOM      3  N   UNL     1       2.487   6.776  18.955  0.00  0.00    +0.000 N 
ATOM      4  N   UNL     1       1.444   8.825  19.407  0.00  0.00    +0.000 N 
ATOM      5  S   UNL     1       0.993  10.444  18.969  0.00  0.00    +0.000 S 
ATOM      6  C   UNL     1       0.235  10.702  20.537  0.00  0.00    +0.000 A 
ATOM      7  C   UNL     1      -0.406  11.845  20.986  0.00  0.00    +0.000 A 
ATOM      8  C   UNL     1      -0.936  11.848  22.280  0.00  0.00    +0.000 A 
ATOM      9  C   UNL     1      -0.823  10.718  23.104  0.00  0.00    +0.000 A 
ATOM     10  C   UNL     1      -0.179   9.568  22.642  0.00  0.00    +0.000 A 
ATOM     11  C   UNL     1       0.338   9.582  21.354  0.00  0.00    +0.000 A 
ATOM     12  C   UNL     1       1.034   8.464  20.693  0.00  0.00    +0.000 A 
ATOM     13  O   UNL     1       1.185   7.377  21.236  0.00  0.00    +0.000 OA
ATOM     14  H   UNL     1       1.983   6.475  19.787  0.00  0.00    +0.000 HD
ENDROOT
BRANCH   3  15
ATOM     15  C   UNL     1       3.283   5.809  18.308  0.00  0.00    +0.000 A 
ATOM     16  C   UNL     1       2.749   4.705  17.637  0.00  0.00    +0.000 A 
ATOM     17  C   UNL     1       3.586   3.766  17.029  0.00  0.00    +0.000 A 
ATOM     18  C   UNL     1       4.967   3.923  17.087  0.00  0.00    +0.000 A 
ATOM     19  C   UNL     1       5.504   5.031  17.739  0.00  0.00    +0.000 A 
ATOM     20 BR   UNL     1       7.381   5.239  17.828  0.00  0.00    +0.000 Br
ATOM     21  C   UNL     1       4.672   5.981  18.336  0.00  0.00    +0.000 A 
ENDBRANCH   3  15
TORSDOF 1
ENDMDL
MODEL 2
REMARK VINA RESULT:      -7.5      1.297      1.589
REMARK  Name = 
REMARK  1 active torsions:
REMARK  status: ('A' for Active; 'I' for Inactive)
REMARK    1  A    between atoms: N_3  and  C_4
REMARK                            x       y       z     vdW  Elec       q    Type
REMARK                         _______ _______ _______ _____ _____    ______ ____
ROOT
ATOM      1  O   UNL     1       2.225   8.976  17.300  0.00  0.00    +0.000 OA
ATOM      2  C   UNL     1       1.958   8.518  18.411  0.00  0.00    +0.000 C 
ATOM      3  N   UNL     1       2.372   7.270  18.854  0.00  0.00    +0.000 N 
ATOM      4  N   UNL     1       1.187   9.229  19.348  0.00  0.00    +0.000 N 
ATOM      5  S   UNL     1       0.579  10.800  18.925  0.00  0.00    +0.000 S 
ATOM      6  C   UNL     1      -0.114  11.011  20.531  0.00  0.00    +0.000 A 
ATOM      7  C   UNL     1      -0.825  12.100  21.006  0.00  0.00    +0.000 A 
ATOM      8  C   UNL     1      -1.285  12.073  22.326  0.00  0.00    +0.000 A 
ATOM      9  C   UNL     1      -1.033  10.965  23.151  0.00  0.00    +0.000 A 
ATOM     10  C   UNL     1      -0.320   9.868  22.661  0.00  0.00    +0.000 A 
ATOM     11  C   UNL     1       0.125   9.912  21.348  0.00  0.00    +0.000 A 
ATOM     12  C   UNL     1       0.877   8.849  20.658  0.00  0.00    +0.000 A 
ATOM     13  O   UNL     1       1.147   7.784  21.198  0.00  0.00    +0.000 OA
ATOM     14  H   UNL     1       1.941   6.937  19.714  0.00  0.00    +0.000 HD
ENDROOT
BRANCH   3  15
ATOM     15  C   UNL     1       3.212   6.366  18.172  0.00  0.00    +0.000 A 
ATOM     16  C   UNL     1       4.298   6.773  17.392  0.00  0.00    +0.000 A 
ATOM     17  C   UNL     1       5.087   5.835  16.722  0.00  0.00    +0.000 A 
ATOM     18  C   UNL     1       4.796   4.478  16.827  0.00  0.00    +0.000 A 
ATOM     19  C   UNL     1       3.727   4.066  17.618  0.00  0.00    +0.000 A 
ATOM     20 BR   UNL     1       3.324   2.223  17.751  0.00  0.00    +0.000 Br
ATOM     21  C   UNL     1       2.943   4.999  18.302  0.00  0.00    +0.000 A 
ENDBRANCH   3  15
TORSDOF 1
ENDMDL
MODEL 3
REMARK VINA RESULT:      -7.3      3.205      7.688
REMARK  Name = 
REMARK  1 active torsions:
REMARK  status: ('A' for Active; 'I' for Inactive)
REMARK    1  A    between atoms: N_3  and  C_4
REMARK                            x       y       z     vdW  Elec       q    Type
REMARK                         _______ _______ _______ _____ _____    ______ ____
ROOT
ATOM      1  O   UNL     1       1.584   6.043  20.830  0.00  0.00    +0.000 OA
ATOM      2  C   UNL     1       2.028   6.757  19.930  0.00  0.00    +0.000 C 
ATOM      3  N   UNL     1       1.772   8.117  19.823  0.00  0.00    +0.000 N 
ATOM      4  N   UNL     1       2.843   6.248  18.903  0.00  0.00    +0.000 N 
ATOM      5  S   UNL     1       3.232   4.555  18.893  0.00  0.00    +0.000 S 
ATOM      6  C   UNL     1       4.269   4.758  17.484  0.00  0.00    +0.000 A 
ATOM      7  C   UNL     1       4.992   3.780  16.821  0.00  0.00    +0.000 A 
ATOM      8  C   UNL     1       5.768   4.155  15.721  0.00  0.00    +0.000 A 
ATOM      9  C   UNL     1       5.813   5.492  15.296  0.00  0.00    +0.000 A 
ATOM     10  C   UNL     1       5.076   6.471  15.967  0.00  0.00    +0.000 A 
ATOM     11  C   UNL     1       4.309   6.079  17.055  0.00  0.00    +0.000 A 
ATOM     12  C   UNL     1       3.461   6.963  17.873  0.00  0.00    +0.000 A 
ATOM     13  O   UNL     1       3.330   8.155  17.625  0.00  0.00    +0.000 OA
ATOM     14  H   UNL     1       2.046   8.554  18.945  0.00  0.00    +0.000 HD
ENDROOT
BRANCH   3  15
ATOM     15  C   UNL     1       1.054   8.917  20.735  0.00  0.00    +0.000 A 
ATOM     16  C   UNL     1       1.114   8.737  22.120  0.00  0.00    +0.000 A 
ATOM     17  C   UNL     1       0.367   9.547  22.978  0.00  0.00    +0.000 A 
ATOM     18  C   UNL     1      -0.449  10.547  22.458  0.00  0.00    +0.000 A 
ATOM     19  C   UNL     1      -0.498  10.743  21.079  0.00  0.00    +0.000 A 
ATOM     20 BR   UNL     1      -1.615  12.093  20.371  0.00  0.00    +0.000 Br
ATOM     21  C   UNL     1       0.259   9.945  20.217  0.00  0.00    +0.000 A 
ENDBRANCH   3  15
TORSDOF 1
ENDMDL
MODEL 4
REMARK VINA RESULT:      -7.2      3.710      7.076
REMARK  Name = 
REMARK  1 active torsions:
REMARK  status: ('A' for Active; 'I' for Inactive)
REMARK    1  A    between atoms: N_3  and  C_4
REMARK                            x       y       z     vdW  Elec       q    Type
REMARK                         _______ _______ _______ _____ _____    ______ ____
ROOT
ATOM      1  O   UNL     1       2.550   8.691  17.316  0.00  0.00    +0.000 OA
ATOM      2  C   UNL     1       2.126   8.277  18.395  0.00  0.00    +0.000 C 
ATOM      3  N   UNL     1       1.273   8.998  19.220  0.00  0.00    +0.000 N 
ATOM      4  N   UNL     1       2.479   7.014  18.905  0.00  0.00    +0.000 N 
ATOM      5  S   UNL     1       3.558   6.006  17.991  0.00  0.00    +0.000 S 
ATOM      6  C   UNL     1       3.404   4.703  19.166  0.00  0.00    +0.000 A 
ATOM      7  C   UNL     1       4.019   3.463  19.136  0.00  0.00    +0.000 A 
ATOM      8  C   UNL     1       3.753   2.560  20.170  0.00  0.00    +0.000 A 
ATOM      9  C   UNL     1       2.883   2.905  21.216  0.00  0.00    +0.000 A 
ATOM     10  C   UNL     1       2.271   4.159  21.242  0.00  0.00    +0.000 A 
ATOM     11  C   UNL     1       2.550   5.043  20.209  0.00  0.00    +0.000 A 
ATOM     12  C   UNL     1       2.011   6.408  20.074  0.00  0.00    +0.000 A 
ATOM     13  O   UNL     1       1.275   6.905  20.917  0.00  0.00    +0.000 OA
ATOM     14  H   UNL     1       1.139   8.624  20.157  0.00  0.00    +0.000 HD
ENDROOT
BRANCH   3  15
ATOM     15  C   UNL     1       0.693  10.253  18.946  0.00  0.00    +0.000 A 
ATOM     16  C   UNL     1       1.401  11.455  19.031  0.00  0.00    +0.000 A 
ATOM     17  C   UNL     1       0.771  12.674  18.767  0.00  0.00    +0.000 A 
ATOM     18  C   UNL     1      -0.575  12.701  18.414  0.00  0.00    +0.000 A 
ATOM     19  C   UNL     1      -1.280  11.504  18.310  0.00  0.00    +0.000 A 
ATOM     20 BR   UNL     1      -3.112  11.541  17.844  0.00  0.00    +0.000 Br
ATOM     21  C   UNL     1      -0.651  10.281  18.559  0.00  0.00    +0.000 A 
ENDBRANCH   3  15
TORSDOF 1
ENDMDL
MODEL 5
REMARK VINA RESULT:      -7.1      3.408      6.821
REMARK  Name = 
REMARK  1 active torsions:
REMARK  status: ('A' for Active; 'I' for Inactive)
REMARK    1  A    between atoms: N_3  and  C_4
REMARK                            x       y       z     vdW  Elec       q    Type
REMARK                         _______ _______ _______ _____ _____    ______ ____
ROOT
ATOM      1  O   UNL     1       2.501   8.800  17.272  0.00  0.00    +0.000 OA
ATOM      2  C   UNL     1       2.085   8.411  18.364  0.00  0.00    +0.000 C 
ATOM      3  N   UNL     1       1.271   9.168  19.197  0.00  0.00    +0.000 N 
ATOM      4  N   UNL     1       2.409   7.144  18.882  0.00  0.00    +0.000 N 
ATOM      5  S   UNL     1       3.439   6.093  17.959  0.00  0.00    +0.000 S 
ATOM      6  C   UNL     1       3.267   4.809  19.152  0.00  0.00    +0.000 A 
ATOM      7  C   UNL     1       3.843   3.549  19.124  0.00  0.00    +0.000 A 
ATOM      8  C   UNL     1       3.570   2.667  20.174  0.00  0.00    +0.000 A 
ATOM      9  C   UNL     1       2.732   3.050  21.233  0.00  0.00    +0.000 A 
ATOM     10  C   UNL     1       2.159   4.323  21.256  0.00  0.00    +0.000 A 
ATOM     11  C   UNL     1       2.445   5.186  20.207  0.00  0.00    +0.000 A 
ATOM     12  C   UNL     1       1.946   6.565  20.067  0.00  0.00    +0.000 A 
ATOM     13  O   UNL     1       1.242   7.094  20.918  0.00  0.00    +0.000 OA
ATOM     14  H   UNL     1       1.144   8.808  20.141  0.00  0.00    +0.000 HD
ENDROOT
BRANCH   3  15
ATOM     15  C   UNL     1       0.725  10.437  18.920  0.00  0.00    +0.000 A 
ATOM     16  C   UNL     1      -0.629  10.640  18.638  0.00  0.00    +0.000 A 
ATOM     17  C   UNL     1      -1.114  11.919  18.353  0.00  0.00    +0.000 A 
ATOM     18  C   UNL     1      -0.248  13.008  18.346  0.00  0.00    +0.000 A 
ATOM     19  C   UNL     1       1.099  12.813  18.645  0.00  0.00    +0.000 A 
ATOM     20 BR   UNL     1       2.278  14.291  18.625  0.00  0.00    +0.000 Br
ATOM     21  C   UNL     1       1.587  11.539  18.946  0.00  0.00    +0.000 A 
ENDBRANCH   3  15
TORSDOF 1
ENDMDL
MODEL 6
REMARK VINA RESULT:      -7.1      5.767      6.755
REMARK  Name = 
REMARK  1 active torsions:
REMARK  status: ('A' for Active; 'I' for Inactive)
REMARK    1  A    between atoms: N_3  and  C_4
REMARK                            x       y       z     vdW  Elec       q    Type
REMARK                         _______ _______ _______ _____ _____    ______ ____
ROOT
ATOM      1  O   UNL     1       6.725   4.418  17.098  0.00  0.00    +0.000 OA
ATOM      2  C   UNL     1       5.564   4.180  16.765  0.00  0.00    +0.000 C 
ATOM      3  N   UNL     1       5.142   4.081  15.446  0.00  0.00    +0.000 N 
ATOM      4  N   UNL     1       4.537   3.992  17.708  0.00  0.00    +0.000 N 
ATOM      5  S   UNL     1       4.911   4.109  19.399  0.00  0.00    +0.000 S 
ATOM      6  C   UNL     1       3.260   3.680  19.838  0.00  0.00    +0.000 A 
ATOM      7  C   UNL     1       2.730   3.560  21.112  0.00  0.00    +0.000 A 
ATOM      8  C   UNL     1       1.387   3.197  21.244  0.00  0.00    +0.000 A 
ATOM      9  C   UNL     1       0.592   2.961  20.110  0.00  0.00    +0.000 A 
ATOM     10  C   UNL     1       1.134   3.090  18.830  0.00  0.00    +0.000 A 
ATOM     11  C   UNL     1       2.468   3.455  18.718  0.00  0.00    +0.000 A 
ATOM     12  C   UNL     1       3.205   3.650  17.458  0.00  0.00    +0.000 A 
ATOM     13  O   UNL     1       2.666   3.541  16.363  0.00  0.00    +0.000 OA
ATOM     14  H   UNL     1       4.134   4.060  15.302  0.00  0.00    +0.000 HD
ENDROOT
BRANCH   3  15
ATOM     15  C   UNL     1       5.949   4.149  14.292  0.00  0.00    +0.000 A 
ATOM     16  C   UNL     1       6.843   5.194  14.047  0.00  0.00    +0.000 A 
ATOM     17  C   UNL     1       7.606   5.221  12.877  0.00  0.00    +0.000 A 
ATOM     18  C   UNL     1       7.481   4.200  11.940  0.00  0.00    +0.000 A 
ATOM     19  C   UNL     1       6.604   3.146  12.188  0.00  0.00    +0.000 A 
ATOM     20 BR   UNL     1       6.424   1.765  10.909  0.00  0.00    +0.000 Br
ATOM     21  C   UNL     1       5.849   3.107  13.363  0.00  0.00    +0.000 A 
ENDBRANCH   3  15
TORSDOF 1
ENDMDL
MODEL 7
REMARK VINA RESULT:      -7.0      1.255      2.152
REMARK  Name = 
REMARK  1 active torsions:
REMARK  status: ('A' for Active; 'I' for Inactive)
REMARK    1  A    between atoms: N_3  and  C_4
REMARK                            x       y       z     vdW  Elec       q    Type
REMARK                         _______ _______ _______ _____ _____    ______ ____
ROOT
ATOM      1  O   UNL     1       2.106   6.394  20.699  0.00  0.00    +0.000 OA
ATOM      2  C   UNL     1       2.046   7.233  19.800  0.00  0.00    +0.000 C 
ATOM      3  N   UNL     1       2.561   7.040  18.525  0.00  0.00    +0.000 N 
ATOM      4  N   UNL     1       1.447   8.492  19.988  0.00  0.00    +0.000 N 
ATOM      5  S   UNL     1       0.777   8.884  21.542  0.00  0.00    +0.000 S 
ATOM      6  C   UNL     1       0.194  10.435  20.946  0.00  0.00    +0.000 A 
ATOM      7  C   UNL     1      -0.496  11.406  21.653  0.00  0.00    +0.000 A 
ATOM      8  C   UNL     1      -0.880  12.572  20.985  0.00  0.00    +0.000 A 
ATOM      9  C   UNL     1      -0.572  12.756  19.628  0.00  0.00    +0.000 A 
ATOM     10  C   UNL     1       0.129  11.775  18.924  0.00  0.00    +0.000 A 
ATOM     11  C   UNL     1       0.505  10.626  19.604  0.00  0.00    +0.000 A 
ATOM     12  C   UNL     1       1.256   9.494  19.034  0.00  0.00    +0.000 A 
ATOM     13  O   UNL     1       1.659   9.495  17.877  0.00  0.00    +0.000 OA
ATOM     14  H   UNL     1       2.607   7.868  17.934  0.00  0.00    +0.000 HD
ENDROOT
BRANCH   3  15
ATOM     15  C   UNL     1       3.150   5.863  18.020  0.00  0.00    +0.000 A 
ATOM     16  C   UNL     1       2.421   4.703  17.744  0.00  0.00    +0.000 A 
ATOM     17  C   UNL     1       3.058   3.558  17.261  0.00  0.00    +0.000 A 
ATOM     18  C   UNL     1       4.433   3.562  17.048  0.00  0.00    +0.000 A 
ATOM     19  C   UNL     1       5.161   4.722  17.304  0.00  0.00    +0.000 A 
ATOM     20 BR   UNL     1       7.032   4.726  17.027  0.00  0.00    +0.000 Br
ATOM     21  C   UNL     1       4.527   5.875  17.773  0.00  0.00    +0.000 A 
ENDBRANCH   3  15
TORSDOF 1
ENDMDL
MODEL 8
REMARK VINA RESULT:      -6.8      4.782      6.335
REMARK  Name = 
REMARK  1 active torsions:
REMARK  status: ('A' for Active; 'I' for Inactive)
REMARK    1  A    between atoms: N_3  and  C_4
REMARK                            x       y       z     vdW  Elec       q    Type
REMARK                         _______ _______ _______ _____ _____    ______ ____
ROOT
ATOM      1  O   UNL     1       4.930   6.406  15.972  0.00  0.00    +0.000 OA
ATOM      2  C   UNL     1       4.773   5.227  16.292  0.00  0.00    +0.000 C 
ATOM      3  N   UNL     1       5.246   4.154  15.549  0.00  0.00    +0.000 N 
ATOM      4  N   UNL     1       4.082   4.853  17.459  0.00  0.00    +0.000 N 
ATOM      5  S   UNL     1       3.414   6.091  18.478  0.00  0.00    +0.000 S 
ATOM      6  C   UNL     1       2.869   4.892  19.648  0.00  0.00    +0.000 A 
ATOM      7  C   UNL     1       2.190   5.118  20.833  0.00  0.00    +0.000 A 
ATOM      8  C   UNL     1       1.855   4.020  21.630  0.00  0.00    +0.000 A 
ATOM      9  C   UNL     1       2.198   2.717  21.238  0.00  0.00    +0.000 A 
ATOM     10  C   UNL     1       2.879   2.497  20.038  0.00  0.00    +0.000 A 
ATOM     11  C   UNL     1       3.199   3.599  19.258  0.00  0.00    +0.000 A 
ATOM     12  C   UNL     1       3.900   3.562  17.963  0.00  0.00    +0.000 A 
ATOM     13  O   UNL     1       4.235   2.511  17.431  0.00  0.00    +0.000 OA
ATOM     14  H   UNL     1       4.901   3.236  15.825  0.00  0.00    +0.000 HD
ENDROOT
BRANCH   3  15
ATOM     15  C   UNL     1       6.032   4.214  14.381  0.00  0.00    +0.000 A 
ATOM     16  C   UNL     1       6.989   5.207  14.156  0.00  0.00    +0.000 A 
ATOM     17  C   UNL     1       7.729   5.230  12.971  0.00  0.00    +0.000 A 
ATOM     18  C   UNL     1       7.517   4.258  11.998  0.00  0.00    +0.000 A 
ATOM     19  C   UNL     1       6.577   3.255  12.226  0.00  0.00    +0.000 A 
ATOM     20 BR   UNL     1       6.279   1.940  10.900  0.00  0.00    +0.000 Br
ATOM     21  C   UNL     1       5.845   3.218  13.416  0.00  0.00    +0.000 A 
ENDBRANCH   3  15
TORSDOF 1
ENDMDL
MODEL 9
REMARK VINA RESULT:      -6.7      3.254      7.740
REMARK  Name = 
REMARK  1 active torsions:
REMARK  status: ('A' for Active; 'I' for Inactive)
REMARK    1  A    between atoms: N_3  and  C_4
REMARK                            x       y       z     vdW  Elec       q    Type
REMARK                         _______ _______ _______ _____ _____    ______ ____
ROOT
ATOM      1  O   UNL     1       1.272   7.624  20.998  0.00  0.00    +0.000 OA
ATOM      2  C   UNL     1       1.666   7.993  19.891  0.00  0.00    +0.000 C 
ATOM      3  N   UNL     1       1.279   9.182  19.288  0.00  0.00    +0.000 N 
ATOM      4  N   UNL     1       2.557   7.225  19.119  0.00  0.00    +0.000 N 
ATOM      5  S   UNL     1       3.112   5.700  19.736  0.00  0.00    +0.000 S 
ATOM      6  C   UNL     1       4.162   5.469  18.342  0.00  0.00    +0.000 A 
ATOM      7  C   UNL     1       4.997   4.395  18.083  0.00  0.00    +0.000 A 
ATOM      8  C   UNL     1       5.762   4.411  16.913  0.00  0.00    +0.000 A 
ATOM      9  C   UNL     1       5.684   5.491  16.019  0.00  0.00    +0.000 A 
ATOM     10  C   UNL     1       4.836   6.568  16.285  0.00  0.00    +0.000 A 
ATOM     11  C   UNL     1       4.082   6.533  17.450  0.00  0.00    +0.000 A 
ATOM     12  C   UNL     1       3.128   7.566  17.889  0.00  0.00    +0.000 A 
ATOM     13  O   UNL     1       2.886   8.560  17.216  0.00  0.00    +0.000 OA
ATOM     14  H   UNL     1       1.532   9.286  18.307  0.00  0.00    +0.000 HD
ENDROOT
BRANCH   3  15
ATOM     15  C   UNL     1       0.460  10.185  19.844  0.00  0.00    +0.000 A 
ATOM     16  C   UNL     1       0.788  10.876  21.014  0.00  0.00    +0.000 A 
ATOM     17  C   UNL     1      -0.069  11.850  21.532  0.00  0.00    +0.000 A 
ATOM     18  C   UNL     1      -1.265  12.141  20.883  0.00  0.00    +0.000 A 
ATOM     19  C   UNL     1      -1.588  11.469  19.707  0.00  0.00    +0.000 A 
ATOM     20 BR   UNL     1      -3.219  11.855  18.832  0.00  0.00    +0.000 Br
ATOM     21  C   UNL     1      -0.727  10.505  19.176  0.00  0.00    +0.000 A 
ENDBRANCH   3  15
TORSDOF 1
ENDMDL
