MODEL 1
REMARK VINA RESULT:      -8.7      0.000      0.000
REMARK  Name = 
REMARK  9 active torsions:
REMARK  status: ('A' for Active; 'I' for Inactive)
REMARK    1  A    between atoms: C_1  and  O_2
REMARK    2  A    between atoms: O_2  and  C_3
REMARK    3  A    between atoms: C_6  and  C_7
REMARK    4  A    between atoms: N_9  and  C_10
REMARK    5  A    between atoms: C_17  and  C_18
REMARK    6  A    between atoms: C_18  and  O_20
REMARK    7  A    between atoms: O_20  and  C_21
REMARK    8  A    between atoms: C_21  and  C_22
REMARK    9  A    between atoms: C_22  and  C_24
REMARK                            x       y       z     vdW  Elec       q    Type
REMARK                         _______ _______ _______ _____ _____    ______ ____
ROOT
ATOM      1  C   UNL     1       5.077   6.073  17.126  0.00  0.00    +0.000 A 
ATOM      2  N   UNL     1       5.079   5.934  15.789  0.00  0.00    +0.000 NA
ATOM      3  N   UNL     1       6.130   5.126  15.506  0.00  0.00    +0.000 N 
ATOM      4  C   UNL     1       6.823   4.797  16.641  0.00  0.00    +0.000 A 
ATOM      5  C   UNL     1       6.207   5.434  17.699  0.00  0.00    +0.000 A 
ENDROOT
BRANCH   1   9
ATOM      6  C   UNL     1       1.946   8.128  19.205  0.00  0.00    +0.000 A 
ATOM      7  C   UNL     1       2.497   8.667  18.046  0.00  0.00    +0.000 A 
ATOM      8  C   UNL     1       3.495   7.984  17.351  0.00  0.00    +0.000 A 
ATOM      9  C   UNL     1       3.962   6.741  17.804  0.00  0.00    +0.000 A 
ATOM     10  C   UNL     1       3.401   6.203  18.969  0.00  0.00    +0.000 A 
ATOM     11  C   UNL     1       2.398   6.892  19.667  0.00  0.00    +0.000 A 
BRANCH   6  13
ATOM     12  C   UNL     1       0.420   9.923  19.010  0.00  0.00    +0.000 C 
ATOM     13  O   UNL     1       1.028   8.929  19.822  0.00  0.00    +0.000 OA
ENDBRANCH   6  13
ENDBRANCH   1   9
BRANCH   3  14
ATOM     14  C   UNL     1       6.399   4.701  14.173  0.00  0.00    +0.000 A 
ATOM     15  C   UNL     1       5.591   3.718  13.583  0.00  0.00    +0.000 A 
ATOM     16  C   UNL     1       5.857   3.273  12.285  0.00  0.00    +0.000 A 
ATOM     17  C   UNL     1       6.927   3.809  11.570  0.00  0.00    +0.000 A 
ATOM     18  C   UNL     1       7.731   4.790  12.147  0.00  0.00    +0.000 A 
ATOM     19  C   UNL     1       7.469   5.242  13.443  0.00  0.00    +0.000 A 
ENDBRANCH   3  14
BRANCH   5  20
ATOM     20  C   UNL     1       6.677   5.430  19.065  0.00  0.00    +0.000 C 
ATOM     21  O   UNL     1       7.551   6.172  19.494  0.00  0.00    +0.000 OA
BRANCH  20  22
ATOM     22  O   UNL     1       6.054   4.476  19.812  0.00  0.00    +0.000 OA
BRANCH  22  23
ATOM     23  C   UNL     1       5.583   3.350  19.060  0.00  0.00    +0.000 C 
BRANCH  23  24
ATOM     24  C   UNL     1       4.663   2.541  19.964  0.00  0.00    +0.000 C 
ATOM     25  O   UNL     1       5.111   1.678  20.727  0.00  0.00    +0.000 OA
BRANCH  24  26
ATOM     26  C   UNL     1       3.196   2.792  19.996  0.00  0.00    +0.000 A 
ATOM     27  C   UNL     1       2.615   2.791  21.282  0.00  0.00    +0.000 A 
ATOM     28  C   UNL     1       1.238   2.920  21.453  0.00  0.00    +0.000 A 
ATOM     29  C   UNL     1       0.416   3.055  20.343  0.00  0.00    +0.000 A 
ATOM     30  C   UNL     1       0.975   3.075  19.066  0.00  0.00    +0.000 A 
ATOM     31  C   UNL     1       2.360   2.947  18.883  0.00  0.00    +0.000 A 
ATOM     32 CL   UNL     1       2.895   2.927  17.244  0.00  0.00    +0.000 Cl
ENDBRANCH  24  26
ENDBRANCH  23  24
ENDBRANCH  22  23
ENDBRANCH  20  22
ENDBRANCH   5  20
TORSDOF 8
ENDMDL
MODEL 2
REMARK VINA RESULT:      -8.5      1.063      1.619
REMARK  Name = 
REMARK  9 active torsions:
REMARK  status: ('A' for Active; 'I' for Inactive)
REMARK    1  A    between atoms: C_1  and  O_2
REMARK    2  A    between atoms: O_2  and  C_3
REMARK    3  A    between atoms: C_6  and  C_7
REMARK    4  A    between atoms: N_9  and  C_10
REMARK    5  A    between atoms: C_17  and  C_18
REMARK    6  A    between atoms: C_18  and  O_20
REMARK    7  A    between atoms: O_20  and  C_21
REMARK    8  A    between atoms: C_21  and  C_22
REMARK    9  A    between atoms: C_22  and  C_24
REMARK                            x       y       z     vdW  Elec       q    Type
REMARK                         _______ _______ _______ _____ _____    ______ ____
ROOT
ATOM      1  C   UNL     1       5.077   5.998  17.180  0.00  0.00    +0.000 A 
ATOM      2  N   UNL     1       5.088   5.863  15.842  0.00  0.00    +0.000 NA
ATOM      3  N   UNL     1       6.149   5.066  15.563  0.00  0.00    +0.000 N 
ATOM      4  C   UNL     1       6.838   4.740  16.701  0.00  0.00    +0.000 A 
ATOM      5  C   UNL     1       6.210   5.368  17.758  0.00  0.00    +0.000 A 
ENDROOT
BRANCH   1   9
ATOM      6  C   UNL     1       1.914   8.018  19.244  0.00  0.00    +0.000 A 
ATOM      7  C   UNL     1       2.454   8.555  18.078  0.00  0.00    +0.000 A 
ATOM      8  C   UNL     1       3.462   7.883  17.389  0.00  0.00    +0.000 A 
ATOM      9  C   UNL     1       3.951   6.653  17.853  0.00  0.00    +0.000 A 
ATOM     10  C   UNL     1       3.402   6.117  19.024  0.00  0.00    +0.000 A 
ATOM     11  C   UNL     1       2.388   6.795  19.717  0.00  0.00    +0.000 A 
BRANCH   6  13
ATOM     12  C   UNL     1       0.861   8.658  21.262  0.00  0.00    +0.000 C 
ATOM     13  O   UNL     1       0.983   8.809  19.855  0.00  0.00    +0.000 OA
ENDBRANCH   6  13
ENDBRANCH   1   9
BRANCH   3  14
ATOM     14  C   UNL     1       6.429   4.648  14.231  0.00  0.00    +0.000 A 
ATOM     15  C   UNL     1       7.500   5.227  13.533  0.00  0.00    +0.000 A 
ATOM     16  C   UNL     1       7.772   4.845  12.217  0.00  0.00    +0.000 A 
ATOM     17  C   UNL     1       6.980   3.884  11.591  0.00  0.00    +0.000 A 
ATOM     18  C   UNL     1       5.917   3.300  12.278  0.00  0.00    +0.000 A 
ATOM     19  C   UNL     1       5.641   3.674  13.596  0.00  0.00    +0.000 A 
ENDBRANCH   3  14
BRANCH   5  20
ATOM     20  C   UNL     1       6.672   5.363  19.126  0.00  0.00    +0.000 C 
ATOM     21  O   UNL     1       7.569   6.080  19.552  0.00  0.00    +0.000 OA
BRANCH  20  22
ATOM     22  O   UNL     1       6.011   4.442  19.881  0.00  0.00    +0.000 OA
BRANCH  22  23
ATOM     23  C   UNL     1       5.555   3.296  19.149  0.00  0.00    +0.000 C 
BRANCH  23  24
ATOM     24  C   UNL     1       4.561   2.549  20.029  0.00  0.00    +0.000 C 
ATOM     25  O   UNL     1       4.928   1.956  21.048  0.00  0.00    +0.000 OA
BRANCH  24  26
ATOM     26  C   UNL     1       3.105   2.549  19.718  0.00  0.00    +0.000 A 
ATOM     27  C   UNL     1       2.771   2.123  18.415  0.00  0.00    +0.000 A 
ATOM     28  C   UNL     1       1.454   2.162  17.958  0.00  0.00    +0.000 A 
ATOM     29  C   UNL     1       0.448   2.625  18.795  0.00  0.00    +0.000 A 
ATOM     30  C   UNL     1       0.759   3.033  20.091  0.00  0.00    +0.000 A 
ATOM     31  C   UNL     1       2.081   2.997  20.561  0.00  0.00    +0.000 A 
ATOM     32 CL   UNL     1       2.317   3.592  22.162  0.00  0.00    +0.000 Cl
ENDBRANCH  24  26
ENDBRANCH  23  24
ENDBRANCH  22  23
ENDBRANCH  20  22
ENDBRANCH   5  20
TORSDOF 8
ENDMDL
MODEL 3
REMARK VINA RESULT:      -8.4      0.594      1.040
REMARK  Name = 
REMARK  9 active torsions:
REMARK  status: ('A' for Active; 'I' for Inactive)
REMARK    1  A    between atoms: C_1  and  O_2
REMARK    2  A    between atoms: O_2  and  C_3
REMARK    3  A    between atoms: C_6  and  C_7
REMARK    4  A    between atoms: N_9  and  C_10
REMARK    5  A    between atoms: C_17  and  C_18
REMARK    6  A    between atoms: C_18  and  O_20
REMARK    7  A    between atoms: O_20  and  C_21
REMARK    8  A    between atoms: C_21  and  C_22
REMARK    9  A    between atoms: C_22  and  C_24
REMARK                            x       y       z     vdW  Elec       q    Type
REMARK                         _______ _______ _______ _____ _____    ______ ____
ROOT
ATOM      1  C   UNL     1       4.850   5.993  17.320  0.00  0.00    +0.000 A 
ATOM      2  N   UNL     1       4.980   5.940  15.982  0.00  0.00    +0.000 NA
ATOM      3  N   UNL     1       5.951   5.025  15.744  0.00  0.00    +0.000 N 
ATOM      4  C   UNL     1       6.473   4.539  16.913  0.00  0.00    +0.000 A 
ATOM      5  C   UNL     1       5.828   5.181  17.951  0.00  0.00    +0.000 A 
ENDROOT
BRANCH   1   9
ATOM      6  C   UNL     1       1.786   8.320  19.202  0.00  0.00    +0.000 A 
ATOM      7  C   UNL     1       2.353   8.737  18.000  0.00  0.00    +0.000 A 
ATOM      8  C   UNL     1       3.328   7.964  17.371  0.00  0.00    +0.000 A 
ATOM      9  C   UNL     1       3.757   6.753  17.934  0.00  0.00    +0.000 A 
ATOM     10  C   UNL     1       3.181   6.338  19.140  0.00  0.00    +0.000 A 
ATOM     11  C   UNL     1       2.200   7.116  19.772  0.00  0.00    +0.000 A 
BRANCH   6  13
ATOM     12  C   UNL     1       0.274  10.099  18.835  0.00  0.00    +0.000 C 
ATOM     13  O   UNL     1       0.893   9.200  19.744  0.00  0.00    +0.000 OA
ENDBRANCH   6  13
ENDBRANCH   1   9
BRANCH   3  14
ATOM     14  C   UNL     1       6.308   4.655  14.416  0.00  0.00    +0.000 A 
ATOM     15  C   UNL     1       7.422   5.251  13.806  0.00  0.00    +0.000 A 
ATOM     16  C   UNL     1       7.770   4.917  12.494  0.00  0.00    +0.000 A 
ATOM     17  C   UNL     1       7.011   3.986  11.787  0.00  0.00    +0.000 A 
ATOM     18  C   UNL     1       5.906   3.385  12.387  0.00  0.00    +0.000 A 
ATOM     19  C   UNL     1       5.554   3.711  13.699  0.00  0.00    +0.000 A 
ENDBRANCH   3  14
BRANCH   5  20
ATOM     20  C   UNL     1       6.145   5.030  19.352  0.00  0.00    +0.000 C 
ATOM     21  O   UNL     1       7.147   5.489  19.884  0.00  0.00    +0.000 OA
BRANCH  20  22
ATOM     22  O   UNL     1       5.210   4.285  20.006  0.00  0.00    +0.000 OA
BRANCH  22  23
ATOM     23  C   UNL     1       5.522   2.888  20.090  0.00  0.00    +0.000 C 
BRANCH  23  24
ATOM     24  C   UNL     1       4.344   2.115  19.510  0.00  0.00    +0.000 C 
ATOM     25  O   UNL     1       4.496   0.997  19.007  0.00  0.00    +0.000 OA
BRANCH  24  26
ATOM     26  C   UNL     1       2.959   2.659  19.571  0.00  0.00    +0.000 A 
ATOM     27  C   UNL     1       2.364   2.640  20.850  0.00  0.00    +0.000 A 
ATOM     28  C   UNL     1       1.039   3.031  21.036  0.00  0.00    +0.000 A 
ATOM     29  C   UNL     1       0.285   3.450  19.948  0.00  0.00    +0.000 A 
ATOM     30  C   UNL     1       0.864   3.492  18.680  0.00  0.00    +0.000 A 
ATOM     31  C   UNL     1       2.197   3.101  18.483  0.00  0.00    +0.000 A 
ATOM     32 CL   UNL     1       2.751   3.148  16.851  0.00  0.00    +0.000 Cl
ENDBRANCH  24  26
ENDBRANCH  23  24
ENDBRANCH  22  23
ENDBRANCH  20  22
ENDBRANCH   5  20
TORSDOF 8
ENDMDL
MODEL 4
REMARK VINA RESULT:      -8.4      4.237      6.879
REMARK  Name = 
REMARK  9 active torsions:
REMARK  status: ('A' for Active; 'I' for Inactive)
REMARK    1  A    between atoms: C_1  and  O_2
REMARK    2  A    between atoms: O_2  and  C_3
REMARK    3  A    between atoms: C_6  and  C_7
REMARK    4  A    between atoms: N_9  and  C_10
REMARK    5  A    between atoms: C_17  and  C_18
REMARK    6  A    between atoms: C_18  and  O_20
REMARK    7  A    between atoms: O_20  and  C_21
REMARK    8  A    between atoms: C_21  and  C_22
REMARK    9  A    between atoms: C_22  and  C_24
REMARK                            x       y       z     vdW  Elec       q    Type
REMARK                         _______ _______ _______ _____ _____    ______ ____
ROOT
ATOM      1  C   UNL     1       5.538   5.197  17.255  0.00  0.00    +0.000 A 
ATOM      2  N   UNL     1       5.236   4.720  16.035  0.00  0.00    +0.000 NA
ATOM      3  N   UNL     1       6.348   4.905  15.283  0.00  0.00    +0.000 N 
ATOM      4  C   UNL     1       7.329   5.541  15.996  0.00  0.00    +0.000 A 
ATOM      5  C   UNL     1       6.825   5.796  17.255  0.00  0.00    +0.000 A 
ENDROOT
BRANCH   1   9
ATOM      6  C   UNL     1       2.738   4.535  20.428  0.00  0.00    +0.000 A 
ATOM      7  C   UNL     1       3.611   3.524  20.033  0.00  0.00    +0.000 A 
ATOM      8  C   UNL     1       4.544   3.750  19.021  0.00  0.00    +0.000 A 
ATOM      9  C   UNL     1       4.623   4.996  18.383  0.00  0.00    +0.000 A 
ATOM     10  C   UNL     1       3.744   6.008  18.787  0.00  0.00    +0.000 A 
ATOM     11  C   UNL     1       2.806   5.780  19.805  0.00  0.00    +0.000 A 
BRANCH   6  13
ATOM     12  C   UNL     1       1.614   2.765  21.521  0.00  0.00    +0.000 C 
ATOM     13  O   UNL     1       1.833   4.162  21.381  0.00  0.00    +0.000 OA
ENDBRANCH   6  13
ENDBRANCH   1   9
BRANCH   3  14
ATOM     14  C   UNL     1       6.414   4.447  13.936  0.00  0.00    +0.000 A 
ATOM     15  C   UNL     1       5.419   3.588  13.446  0.00  0.00    +0.000 A 
ATOM     16  C   UNL     1       5.484   3.109  12.135  0.00  0.00    +0.000 A 
ATOM     17  C   UNL     1       6.538   3.489  11.305  0.00  0.00    +0.000 A 
ATOM     18  C   UNL     1       7.528   4.346  11.782  0.00  0.00    +0.000 A 
ATOM     19  C   UNL     1       7.468   4.831  13.091  0.00  0.00    +0.000 A 
ENDBRANCH   3  14
BRANCH   5  20
ATOM     20  C   UNL     1       7.503   6.539  18.292  0.00  0.00    +0.000 C 
ATOM     21  O   UNL     1       7.780   6.085  19.395  0.00  0.00    +0.000 OA
BRANCH  20  22
ATOM     22  O   UNL     1       7.770   7.818  17.907  0.00  0.00    +0.000 OA
BRANCH  22  23
ATOM     23  C   UNL     1       8.656   8.526  18.784  0.00  0.00    +0.000 C 
BRANCH  23  24
ATOM     24  C   UNL     1       8.686   9.982  18.337  0.00  0.00    +0.000 C 
ATOM     25  O   UNL     1       7.799  10.448  17.613  0.00  0.00    +0.000 OA
BRANCH  24  26
ATOM     26  C   UNL     1       9.758  10.907  18.794  0.00  0.00    +0.000 A 
ATOM     27  C   UNL     1      10.693  11.278  17.805  0.00  0.00    +0.000 A 
ATOM     28  C   UNL     1      11.802  12.063  18.115  0.00  0.00    +0.000 A 
ATOM     29  C   UNL     1      11.997  12.494  19.420  0.00  0.00    +0.000 A 
ATOM     30  C   UNL     1      11.074  12.151  20.407  0.00  0.00    +0.000 A 
ATOM     31  C   UNL     1       9.954  11.362  20.104  0.00  0.00    +0.000 A 
ATOM     32 CL   UNL     1       8.937  10.969  21.441  0.00  0.00    +0.000 Cl
ENDBRANCH  24  26
ENDBRANCH  23  24
ENDBRANCH  22  23
ENDBRANCH  20  22
ENDBRANCH   5  20
TORSDOF 8
ENDMDL
MODEL 5
REMARK VINA RESULT:      -8.4      1.165      1.524
REMARK  Name = 
REMARK  9 active torsions:
REMARK  status: ('A' for Active; 'I' for Inactive)
REMARK    1  A    between atoms: C_1  and  O_2
REMARK    2  A    between atoms: O_2  and  C_3
REMARK    3  A    between atoms: C_6  and  C_7
REMARK    4  A    between atoms: N_9  and  C_10
REMARK    5  A    between atoms: C_17  and  C_18
REMARK    6  A    between atoms: C_18  and  O_20
REMARK    7  A    between atoms: O_20  and  C_21
REMARK    8  A    between atoms: C_21  and  C_22
REMARK    9  A    between atoms: C_22  and  C_24
REMARK                            x       y       z     vdW  Elec       q    Type
REMARK                         _______ _______ _______ _____ _____    ______ ____
ROOT
ATOM      1  C   UNL     1       4.831   6.014  17.350  0.00  0.00    +0.000 A 
ATOM      2  N   UNL     1       4.977   5.984  16.014  0.00  0.00    +0.000 NA
ATOM      3  N   UNL     1       5.940   5.062  15.770  0.00  0.00    +0.000 N 
ATOM      4  C   UNL     1       6.443   4.549  16.937  0.00  0.00    +0.000 A 
ATOM      5  C   UNL     1       5.792   5.178  17.978  0.00  0.00    +0.000 A 
ENDROOT
BRANCH   1   9
ATOM      6  C   UNL     1       1.770   8.346  19.231  0.00  0.00    +0.000 A 
ATOM      7  C   UNL     1       2.312   8.742  18.011  0.00  0.00    +0.000 A 
ATOM      8  C   UNL     1       3.287   7.967  17.383  0.00  0.00    +0.000 A 
ATOM      9  C   UNL     1       3.739   6.774  17.965  0.00  0.00    +0.000 A 
ATOM     10  C   UNL     1       3.188   6.380  19.190  0.00  0.00    +0.000 A 
ATOM     11  C   UNL     1       2.209   7.161  19.821  0.00  0.00    +0.000 A 
BRANCH   6  13
ATOM     12  C   UNL     1       0.625   9.095  21.159  0.00  0.00    +0.000 C 
ATOM     13  O   UNL     1       0.876   9.228  19.767  0.00  0.00    +0.000 OA
ENDBRANCH   6  13
ENDBRANCH   1   9
BRANCH   3  14
ATOM     14  C   UNL     1       6.310   4.713  14.440  0.00  0.00    +0.000 A 
ATOM     15  C   UNL     1       5.559   3.756  13.740  0.00  0.00    +0.000 A 
ATOM     16  C   UNL     1       5.924   3.385  12.443  0.00  0.00    +0.000 A 
ATOM     17  C   UNL     1       7.036   3.969  11.837  0.00  0.00    +0.000 A 
ATOM     18  C   UNL     1       7.783   4.924  12.523  0.00  0.00    +0.000 A 
ATOM     19  C   UNL     1       7.423   5.303  13.819  0.00  0.00    +0.000 A 
ENDBRANCH   3  14
BRANCH   5  20
ATOM     20  C   UNL     1       6.091   4.998  19.380  0.00  0.00    +0.000 C 
ATOM     21  O   UNL     1       7.105   5.411  19.926  0.00  0.00    +0.000 OA
BRANCH  20  22
ATOM     22  O   UNL     1       5.121   4.283  20.016  0.00  0.00    +0.000 OA
BRANCH  22  23
ATOM     23  C   UNL     1       5.471   2.918  20.279  0.00  0.00    +0.000 C 
BRANCH  23  24
ATOM     24  C   UNL     1       4.432   2.035  19.601  0.00  0.00    +0.000 C 
ATOM     25  O   UNL     1       4.631   0.828  19.427  0.00  0.00    +0.000 OA
BRANCH  24  26
ATOM     26  C   UNL     1       3.119   2.584  19.164  0.00  0.00    +0.000 A 
ATOM     27  C   UNL     1       3.027   2.899  17.792  0.00  0.00    +0.000 A 
ATOM     28  C   UNL     1       1.889   3.508  17.265  0.00  0.00    +0.000 A 
ATOM     29  C   UNL     1       0.822   3.812  18.099  0.00  0.00    +0.000 A 
ATOM     30  C   UNL     1       0.889   3.493  19.455  0.00  0.00    +0.000 A 
ATOM     31  C   UNL     1       2.030   2.879  19.994  0.00  0.00    +0.000 A 
ATOM     32 CL   UNL     1       1.990   2.602  21.696  0.00  0.00    +0.000 Cl
ENDBRANCH  24  26
ENDBRANCH  23  24
ENDBRANCH  22  23
ENDBRANCH  20  22
ENDBRANCH   5  20
TORSDOF 8
ENDMDL
MODEL 6
REMARK VINA RESULT:      -8.3      0.192      1.221
REMARK  Name = 
REMARK  9 active torsions:
REMARK  status: ('A' for Active; 'I' for Inactive)
REMARK    1  A    between atoms: C_1  and  O_2
REMARK    2  A    between atoms: O_2  and  C_3
REMARK    3  A    between atoms: C_6  and  C_7
REMARK    4  A    between atoms: N_9  and  C_10
REMARK    5  A    between atoms: C_17  and  C_18
REMARK    6  A    between atoms: C_18  and  O_20
REMARK    7  A    between atoms: O_20  and  C_21
REMARK    8  A    between atoms: C_21  and  C_22
REMARK    9  A    between atoms: C_22  and  C_24
REMARK                            x       y       z     vdW  Elec       q    Type
REMARK                         _______ _______ _______ _____ _____    ______ ____
ROOT
ATOM      1  C   UNL     1       5.182   6.124  17.022  0.00  0.00    +0.000 A 
ATOM      2  N   UNL     1       5.158   5.962  15.688  0.00  0.00    +0.000 NA
ATOM      3  N   UNL     1       6.138   5.068  15.409  0.00  0.00    +0.000 N 
ATOM      4  C   UNL     1       6.815   4.704  16.543  0.00  0.00    +0.000 A 
ATOM      5  C   UNL     1       6.264   5.406  17.596  0.00  0.00    +0.000 A 
ENDROOT
BRANCH   1   9
ATOM      6  C   UNL     1       1.984   8.268  18.900  0.00  0.00    +0.000 A 
ATOM      7  C   UNL     1       2.402   7.038  19.403  0.00  0.00    +0.000 A 
ATOM      8  C   UNL     1       3.464   6.354  18.810  0.00  0.00    +0.000 A 
ATOM      9  C   UNL     1       4.132   6.890  17.700  0.00  0.00    +0.000 A 
ATOM     10  C   UNL     1       3.709   8.128  17.202  0.00  0.00    +0.000 A 
ATOM     11  C   UNL     1       2.641   8.815  17.798  0.00  0.00    +0.000 A 
BRANCH   6  13
ATOM     12  C   UNL     1       0.281   9.908  18.891  0.00  0.00    +0.000 C 
ATOM     13  O   UNL     1       0.894   8.797  19.530  0.00  0.00    +0.000 OA
ENDBRANCH   6  13
ENDBRANCH   1   9
BRANCH   3  14
ATOM     14  C   UNL     1       6.357   4.601  14.081  0.00  0.00    +0.000 A 
ATOM     15  C   UNL     1       7.422   5.120  13.330  0.00  0.00    +0.000 A 
ATOM     16  C   UNL     1       7.634   4.690  12.017  0.00  0.00    +0.000 A 
ATOM     17  C   UNL     1       6.787   3.739  11.450  0.00  0.00    +0.000 A 
ATOM     18  C   UNL     1       5.730   3.214  12.191  0.00  0.00    +0.000 A 
ATOM     19  C   UNL     1       5.514   3.637  13.505  0.00  0.00    +0.000 A 
ENDBRANCH   3  14
BRANCH   5  20
ATOM     20  C   UNL     1       6.749   5.387  18.956  0.00  0.00    +0.000 C 
ATOM     21  O   UNL     1       7.624   6.127  19.385  0.00  0.00    +0.000 OA
BRANCH  20  22
ATOM     22  O   UNL     1       6.135   4.423  19.699  0.00  0.00    +0.000 OA
BRANCH  22  23
ATOM     23  C   UNL     1       5.512   3.390  18.925  0.00  0.00    +0.000 C 
BRANCH  23  24
ATOM     24  C   UNL     1       4.609   2.593  19.858  0.00  0.00    +0.000 C 
ATOM     25  O   UNL     1       5.071   1.735  20.618  0.00  0.00    +0.000 OA
BRANCH  24  26
ATOM     26  C   UNL     1       3.145   2.853  19.923  0.00  0.00    +0.000 A 
ATOM     27  C   UNL     1       2.580   2.780  21.213  0.00  0.00    +0.000 A 
ATOM     28  C   UNL     1       1.205   2.909  21.410  0.00  0.00    +0.000 A 
ATOM     29  C   UNL     1       0.371   3.113  20.319  0.00  0.00    +0.000 A 
ATOM     30  C   UNL     1       0.915   3.205  19.039  0.00  0.00    +0.000 A 
ATOM     31  C   UNL     1       2.297   3.077  18.831  0.00  0.00    +0.000 A 
ATOM     32 CL   UNL     1       2.812   3.150  17.187  0.00  0.00    +0.000 Cl
ENDBRANCH  24  26
ENDBRANCH  23  24
ENDBRANCH  22  23
ENDBRANCH  20  22
ENDBRANCH   5  20
TORSDOF 8
ENDMDL
MODEL 7
REMARK VINA RESULT:      -8.3      3.655      5.884
REMARK  Name = 
REMARK  9 active torsions:
REMARK  status: ('A' for Active; 'I' for Inactive)
REMARK    1  A    between atoms: C_1  and  O_2
REMARK    2  A    between atoms: O_2  and  C_3
REMARK    3  A    between atoms: C_6  and  C_7
REMARK    4  A    between atoms: N_9  and  C_10
REMARK    5  A    between atoms: C_17  and  C_18
REMARK    6  A    between atoms: C_18  and  O_20
REMARK    7  A    between atoms: O_20  and  C_21
REMARK    8  A    between atoms: C_21  and  C_22
REMARK    9  A    between atoms: C_22  and  C_24
REMARK                            x       y       z     vdW  Elec       q    Type
REMARK                         _______ _______ _______ _____ _____    ______ ____
ROOT
ATOM      1  C   UNL     1       7.452   7.221  17.376  0.00  0.00    +0.000 A 
ATOM      2  N   UNL     1       7.652   8.534  17.167  0.00  0.00    +0.000 NA
ATOM      3  N   UNL     1       8.356   8.973  18.239  0.00  0.00    +0.000 N 
ATOM      4  C   UNL     1       8.557   7.967  19.146  0.00  0.00    +0.000 A 
ATOM      5  C   UNL     1       7.941   6.835  18.652  0.00  0.00    +0.000 A 
ENDROOT
BRANCH   1   9
ATOM      6  C   UNL     1       5.701   4.640  14.440  0.00  0.00    +0.000 A 
ATOM      7  C   UNL     1       4.946   5.646  15.037  0.00  0.00    +0.000 A 
ATOM      8  C   UNL     1       5.524   6.506  15.971  0.00  0.00    +0.000 A 
ATOM      9  C   UNL     1       6.875   6.377  16.325  0.00  0.00    +0.000 A 
ATOM     10  C   UNL     1       7.629   5.366  15.718  0.00  0.00    +0.000 A 
ATOM     11  C   UNL     1       7.047   4.501  14.780  0.00  0.00    +0.000 A 
BRANCH   6  13
ATOM     12  C   UNL     1       5.695   3.368  12.447  0.00  0.00    +0.000 C 
ATOM     13  O   UNL     1       4.998   3.828  13.596  0.00  0.00    +0.000 OA
ENDBRANCH   6  13
ENDBRANCH   1   9
BRANCH   3  14
ATOM     14  C   UNL     1       8.811  10.320  18.323  0.00  0.00    +0.000 A 
ATOM     15  C   UNL     1       8.191  11.310  17.547  0.00  0.00    +0.000 A 
ATOM     16  C   UNL     1       8.643  12.632  17.599  0.00  0.00    +0.000 A 
ATOM     17  C   UNL     1       9.711  12.972  18.428  0.00  0.00    +0.000 A 
ATOM     18  C   UNL     1      10.329  11.995  19.207  0.00  0.00    +0.000 A 
ATOM     19  C   UNL     1       9.881  10.672  19.162  0.00  0.00    +0.000 A 
ENDBRANCH   3  14
BRANCH   5  20
ATOM     20  C   UNL     1       7.833   5.573  19.345  0.00  0.00    +0.000 C 
ATOM     21  O   UNL     1       8.740   4.756  19.432  0.00  0.00    +0.000 OA
BRANCH  20  22
ATOM     22  O   UNL     1       6.587   5.385  19.863  0.00  0.00    +0.000 OA
BRANCH  22  23
ATOM     23  C   UNL     1       5.781   4.446  19.138  0.00  0.00    +0.000 C 
BRANCH  23  24
ATOM     24  C   UNL     1       4.359   4.992  19.096  0.00  0.00    +0.000 C 
ATOM     25  O   UNL     1       4.140   6.206  19.038  0.00  0.00    +0.000 OA
BRANCH  24  26
ATOM     26  C   UNL     1       3.183   4.078  19.074  0.00  0.00    +0.000 A 
ATOM     27  C   UNL     1       3.292   2.983  18.192  0.00  0.00    +0.000 A 
ATOM     28  C   UNL     1       2.229   2.100  18.001  0.00  0.00    +0.000 A 
ATOM     29  C   UNL     1       1.040   2.297  18.688  0.00  0.00    +0.000 A 
ATOM     30  C   UNL     1       0.921   3.365  19.576  0.00  0.00    +0.000 A 
ATOM     31  C   UNL     1       1.985   4.258  19.776  0.00  0.00    +0.000 A 
ATOM     32 CL   UNL     1       1.667   5.563  20.857  0.00  0.00    +0.000 Cl
ENDBRANCH  24  26
ENDBRANCH  23  24
ENDBRANCH  22  23
ENDBRANCH  20  22
ENDBRANCH   5  20
TORSDOF 8
ENDMDL
MODEL 8
REMARK VINA RESULT:      -8.3      3.633      5.848
REMARK  Name = 
REMARK  9 active torsions:
REMARK  status: ('A' for Active; 'I' for Inactive)
REMARK    1  A    between atoms: C_1  and  O_2
REMARK    2  A    between atoms: O_2  and  C_3
REMARK    3  A    between atoms: C_6  and  C_7
REMARK    4  A    between atoms: N_9  and  C_10
REMARK    5  A    between atoms: C_17  and  C_18
REMARK    6  A    between atoms: C_18  and  O_20
REMARK    7  A    between atoms: O_20  and  C_21
REMARK    8  A    between atoms: C_21  and  C_22
REMARK    9  A    between atoms: C_22  and  C_24
REMARK                            x       y       z     vdW  Elec       q    Type
REMARK                         _______ _______ _______ _____ _____    ______ ____
ROOT
ATOM      1  C   UNL     1       7.404   7.195  17.484  0.00  0.00    +0.000 A 
ATOM      2  N   UNL     1       7.596   8.498  17.213  0.00  0.00    +0.000 NA
ATOM      3  N   UNL     1       8.363   8.975  18.224  0.00  0.00    +0.000 N 
ATOM      4  C   UNL     1       8.613   8.003  19.157  0.00  0.00    +0.000 A 
ATOM      5  C   UNL     1       7.966   6.857  18.743  0.00  0.00    +0.000 A 
ENDROOT
BRANCH   1   9
ATOM      6  C   UNL     1       5.607   4.733  14.475  0.00  0.00    +0.000 A 
ATOM      7  C   UNL     1       6.915   4.498  14.893  0.00  0.00    +0.000 A 
ATOM      8  C   UNL     1       7.490   5.280  15.894  0.00  0.00    +0.000 A 
ATOM      9  C   UNL     1       6.764   6.315  16.501  0.00  0.00    +0.000 A 
ATOM     10  C   UNL     1       5.449   6.543  16.080  0.00  0.00    +0.000 A 
ATOM     11  C   UNL     1       4.872   5.757  15.072  0.00  0.00    +0.000 A 
BRANCH   6  13
ATOM     12  C   UNL     1       6.213   3.412  12.610  0.00  0.00    +0.000 C 
ATOM     13  O   UNL     1       5.191   3.941  13.444  0.00  0.00    +0.000 OA
ENDBRANCH   6  13
ENDBRANCH   1   9
BRANCH   3  14
ATOM     14  C   UNL     1       8.826  10.321  18.230  0.00  0.00    +0.000 A 
ATOM     15  C   UNL     1       8.090  11.310  17.560  0.00  0.00    +0.000 A 
ATOM     16  C   UNL     1       8.544  12.632  17.535  0.00  0.00    +0.000 A 
ATOM     17  C   UNL     1       9.732  12.973  18.180  0.00  0.00    +0.000 A 
ATOM     18  C   UNL     1      10.467  11.998  18.852  0.00  0.00    +0.000 A 
ATOM     19  C   UNL     1      10.017  10.675  18.884  0.00  0.00    +0.000 A 
ENDBRANCH   3  14
BRANCH   5  20
ATOM     20  C   UNL     1       7.894   5.622  19.489  0.00  0.00    +0.000 C 
ATOM     21  O   UNL     1       8.837   4.857  19.647  0.00  0.00    +0.000 OA
BRANCH  20  22
ATOM     22  O   UNL     1       6.641   5.394  19.972  0.00  0.00    +0.000 OA
BRANCH  22  23
ATOM     23  C   UNL     1       5.864   4.479  19.188  0.00  0.00    +0.000 C 
BRANCH  23  24
ATOM     24  C   UNL     1       4.418   4.957  19.215  0.00  0.00    +0.000 C 
ATOM     25  O   UNL     1       4.140   6.151  19.361  0.00  0.00    +0.000 OA
BRANCH  24  26
ATOM     26  C   UNL     1       3.288   4.007  19.017  0.00  0.00    +0.000 A 
ATOM     27  C   UNL     1       2.284   4.447  18.129  0.00  0.00    +0.000 A 
ATOM     28  C   UNL     1       1.124   3.702  17.922  0.00  0.00    +0.000 A 
ATOM     29  C   UNL     1       0.948   2.503  18.599  0.00  0.00    +0.000 A 
ATOM     30  C   UNL     1       1.938   2.045  19.467  0.00  0.00    +0.000 A 
ATOM     31  C   UNL     1       3.109   2.787  19.681  0.00  0.00    +0.000 A 
ATOM     32 CL   UNL     1       4.211   2.124  20.829  0.00  0.00    +0.000 Cl
ENDBRANCH  24  26
ENDBRANCH  23  24
ENDBRANCH  22  23
ENDBRANCH  20  22
ENDBRANCH   5  20
TORSDOF 8
ENDMDL
MODEL 9
REMARK VINA RESULT:      -8.1      0.974      1.529
REMARK  Name = 
REMARK  9 active torsions:
REMARK  status: ('A' for Active; 'I' for Inactive)
REMARK    1  A    between atoms: C_1  and  O_2
REMARK    2  A    between atoms: O_2  and  C_3
REMARK    3  A    between atoms: C_6  and  C_7
REMARK    4  A    between atoms: N_9  and  C_10
REMARK    5  A    between atoms: C_17  and  C_18
REMARK    6  A    between atoms: C_18  and  O_20
REMARK    7  A    between atoms: O_20  and  C_21
REMARK    8  A    between atoms: C_21  and  C_22
REMARK    9  A    between atoms: C_22  and  C_24
REMARK                            x       y       z     vdW  Elec       q    Type
REMARK                         _______ _______ _______ _____ _____    ______ ____
ROOT
ATOM      1  C   UNL     1       5.160   6.104  17.186  0.00  0.00    +0.000 A 
ATOM      2  N   UNL     1       5.153   5.975  15.847  0.00  0.00    +0.000 NA
ATOM      3  N   UNL     1       6.156   5.111  15.556  0.00  0.00    +0.000 N 
ATOM      4  C   UNL     1       6.830   4.733  16.688  0.00  0.00    +0.000 A 
ATOM      5  C   UNL     1       6.253   5.396  17.752  0.00  0.00    +0.000 A 
ENDROOT
BRANCH   1   9
ATOM      6  C   UNL     1       1.898   8.124  19.089  0.00  0.00    +0.000 A 
ATOM      7  C   UNL     1       2.370   6.914  19.591  0.00  0.00    +0.000 A 
ATOM      8  C   UNL     1       3.452   6.272  18.991  0.00  0.00    +0.000 A 
ATOM      9  C   UNL     1       4.087   6.830  17.872  0.00  0.00    +0.000 A 
ATOM     10  C   UNL     1       3.609   8.048  17.374  0.00  0.00    +0.000 A 
ATOM     11  C   UNL     1       2.520   8.693  17.978  0.00  0.00    +0.000 A 
BRANCH   6  13
ATOM     12  C   UNL     1       0.559  10.006  19.596  0.00  0.00    +0.000 C 
ATOM     13  O   UNL     1       0.794   8.611  19.728  0.00  0.00    +0.000 OA
ENDBRANCH   6  13
ENDBRANCH   1   9
BRANCH   3  14
ATOM     14  C   UNL     1       6.397   4.682  14.220  0.00  0.00    +0.000 A 
ATOM     15  C   UNL     1       5.552   3.728  13.634  0.00  0.00    +0.000 A 
ATOM     16  C   UNL     1       5.791   3.279  12.332  0.00  0.00    +0.000 A 
ATOM     17  C   UNL     1       6.871   3.782  11.609  0.00  0.00    +0.000 A 
ATOM     18  C   UNL     1       7.713   4.734  12.181  0.00  0.00    +0.000 A 
ATOM     19  C   UNL     1       7.478   5.190  13.481  0.00  0.00    +0.000 A 
ENDBRANCH   3  14
BRANCH   5  20
ATOM     20  C   UNL     1       6.724   5.354  19.117  0.00  0.00    +0.000 C 
ATOM     21  O   UNL     1       7.644   6.036  19.549  0.00  0.00    +0.000 OA
BRANCH  20  22
ATOM     22  O   UNL     1       6.042   4.438  19.860  0.00  0.00    +0.000 OA
BRANCH  22  23
ATOM     23  C   UNL     1       5.498   3.349  19.101  0.00  0.00    +0.000 C 
BRANCH  23  24
ATOM     24  C   UNL     1       4.534   2.591  20.005  0.00  0.00    +0.000 C 
ATOM     25  O   UNL     1       4.937   1.968  20.992  0.00  0.00    +0.000 OA
BRANCH  24  26
ATOM     26  C   UNL     1       3.066   2.613  19.757  0.00  0.00    +0.000 A 
ATOM     27  C   UNL     1       2.653   2.015  18.548  0.00  0.00    +0.000 A 
ATOM     28  C   UNL     1       1.319   2.047  18.144  0.00  0.00    +0.000 A 
ATOM     29  C   UNL     1       0.374   2.676  18.942  0.00  0.00    +0.000 A 
ATOM     30  C   UNL     1       0.762   3.257  20.148  0.00  0.00    +0.000 A 
ATOM     31  C   UNL     1       2.102   3.229  20.564  0.00  0.00    +0.000 A 
ATOM     32 CL   UNL     1       2.437   4.043  22.046  0.00  0.00    +0.000 Cl
ENDBRANCH  24  26
ENDBRANCH  23  24
ENDBRANCH  22  23
ENDBRANCH  20  22
ENDBRANCH   5  20
TORSDOF 8
ENDMDL
