MODEL 1
REMARK VINA RESULT:      -8.5      0.000      0.000
REMARK  Name = 
REMARK  8 active torsions:
REMARK  status: ('A' for Active; 'I' for Inactive)
REMARK    1  A    between atoms: C_1  and  C_2
REMARK    2  A    between atoms: C_5  and  C_6
REMARK    3  A    between atoms: C_7  and  C_8
REMARK    4  A    between atoms: C_11  and  C_12
REMARK    5  A    between atoms: C_12  and  C_13
REMARK    6  A    between atoms: N_15  and  C_16
REMARK    7  A    between atoms: C_19  and  C_20
REMARK    8  A    between atoms: N_22  and  O_23
REMARK                            x       y       z     vdW  Elec       q    Type
REMARK                         _______ _______ _______ _____ _____    ______ ____
ROOT
ATOM      1  C   UNL     1       1.971   5.503  19.967  0.00  0.00    +0.000 C 
ATOM      2  C   UNL     1       2.889   5.021  21.111  0.00  0.00    +0.000 C 
ATOM      3  C   UNL     1       2.634   3.517  21.166  0.00  0.00    +0.000 C 
ATOM      4  C   UNL     1       1.154   3.354  20.828  0.00  0.00    +0.000 C 
ATOM      5  C   UNL     1       0.684   4.714  20.301  0.00  0.00    +0.000 C 
ENDROOT
BRANCH   1   9
ATOM      6  C   UNL     1       0.808   9.707  19.708  0.00  0.00    +0.000 A 
ATOM      7  C   UNL     1       0.626   8.967  20.879  0.00  0.00    +0.000 A 
ATOM      8  C   UNL     1       1.048   7.636  20.963  0.00  0.00    +0.000 A 
ATOM      9  C   UNL     1       1.676   6.999  19.877  0.00  0.00    +0.000 A 
ATOM     10  C   UNL     1       1.944   7.769  18.742  0.00  0.00    +0.000 A 
ATOM     11  C   UNL     1       1.505   9.099  18.658  0.00  0.00    +0.000 A 
BRANCH   6  18
ATOM     12  C   UNL     1      -2.044  10.671  18.314  0.00  0.00    +0.000 C 
ATOM     13  C   UNL     1      -1.000  11.473  19.005  0.00  0.00    +0.000 A 
ATOM     14  N   UNL     1      -1.164  12.798  19.093  0.00  0.00    +0.000 NA
ATOM     15  N   UNL     1      -0.051  13.224  19.697  0.00  0.00    +0.000 N 
ATOM     16  C   UNL     1       0.838  12.230  20.000  0.00  0.00    +0.000 A 
ATOM     17  C   UNL     1       2.133  12.558  20.646  0.00  0.00    +0.000 C 
ATOM     18  C   UNL     1       0.239  11.048  19.589  0.00  0.00    +0.000 A 
ATOM     19  H   UNL     1       0.045  14.219  19.867  0.00  0.00    +0.000 HD
ENDBRANCH   6  18
ENDBRANCH   1   9
BRANCH   1  20
ATOM     20  C   UNL     1       2.566   5.027  18.605  0.00  0.00    +0.000 C 
ATOM     21  O   UNL     1       1.863   4.442  17.784  0.00  0.00    +0.000 OA
ATOM     22  N   UNL     1       3.915   5.320  18.429  0.00  0.00    +0.000 N 
ATOM     23  H   UNL     1       4.409   5.733  19.211  0.00  0.00    +0.000 HD
BRANCH  22  24
ATOM     24  C   UNL     1       4.668   5.096  17.255  0.00  0.00    +0.000 A 
ATOM     25  C   UNL     1       5.144   3.833  16.896  0.00  0.00    +0.000 A 
ATOM     26  C   UNL     1       5.855   3.644  15.707  0.00  0.00    +0.000 A 
ATOM     27  C   UNL     1       6.111   4.725  14.862  0.00  0.00    +0.000 A 
ATOM     28  C   UNL     1       5.633   5.994  15.210  0.00  0.00    +0.000 A 
ATOM     29  C   UNL     1       4.912   6.177  16.401  0.00  0.00    +0.000 A 
BRANCH  27  30
ATOM     30  C   UNL     1       6.821   4.534  13.572  0.00  0.00    +0.000 C 
ATOM     31  O   UNL     1       7.700   5.306  13.204  0.00  0.00    +0.000 OA
ATOM     32  N   UNL     1       6.444   3.438  12.823  0.00  0.00    +0.000 N 
ATOM     33  H   UNL     1       5.958   2.636  13.206  0.00  0.00    +0.000 HD
BRANCH  32  34
ATOM     34  O   UNL     1       7.173   3.228  11.631  0.00  0.00    +0.000 OA
ATOM     35  H   UNL     1       7.907   3.874  11.722  0.00  0.00    +0.000 HD
ENDBRANCH  32  34
ENDBRANCH  27  30
ENDBRANCH  22  24
ENDBRANCH   1  20
TORSDOF 6
ENDMDL
MODEL 2
REMARK VINA RESULT:      -8.5      0.161      1.468
REMARK  Name = 
REMARK  8 active torsions:
REMARK  status: ('A' for Active; 'I' for Inactive)
REMARK    1  A    between atoms: C_1  and  C_2
REMARK    2  A    between atoms: C_5  and  C_6
REMARK    3  A    between atoms: C_7  and  C_8
REMARK    4  A    between atoms: C_11  and  C_12
REMARK    5  A    between atoms: C_12  and  C_13
REMARK    6  A    between atoms: N_15  and  C_16
REMARK    7  A    between atoms: C_19  and  C_20
REMARK    8  A    between atoms: N_22  and  O_23
REMARK                            x       y       z     vdW  Elec       q    Type
REMARK                         _______ _______ _______ _____ _____    ______ ____
ROOT
ATOM      1  C   UNL     1       1.976   5.550  19.962  0.00  0.00    +0.000 C 
ATOM      2  C   UNL     1       2.921   5.120  21.105  0.00  0.00    +0.000 C 
ATOM      3  C   UNL     1       2.689   3.616  21.215  0.00  0.00    +0.000 C 
ATOM      4  C   UNL     1       1.207   3.420  20.908  0.00  0.00    +0.000 C 
ATOM      5  C   UNL     1       0.707   4.755  20.345  0.00  0.00    +0.000 C 
ENDROOT
BRANCH   1   9
ATOM      6  C   UNL     1       0.746   9.725  19.576  0.00  0.00    +0.000 A 
ATOM      7  C   UNL     1       0.563   9.014  20.764  0.00  0.00    +0.000 A 
ATOM      8  C   UNL     1       1.005   7.693  20.889  0.00  0.00    +0.000 A 
ATOM      9  C   UNL     1       1.657   7.038  19.828  0.00  0.00    +0.000 A 
ATOM     10  C   UNL     1       1.925   7.781  18.676  0.00  0.00    +0.000 A 
ATOM     11  C   UNL     1       1.465   9.101  18.550  0.00  0.00    +0.000 A 
BRANCH   6  18
ATOM     12  C   UNL     1       1.836  12.666  20.659  0.00  0.00    +0.000 C 
ATOM     13  C   UNL     1       0.627  12.331  19.862  0.00  0.00    +0.000 A 
ATOM     14  N   UNL     1      -0.205  13.319  19.512  0.00  0.00    +0.000 NA
ATOM     15  N   UNL     1      -1.200  12.697  18.876  0.00  0.00    +0.000 N 
ATOM     16  C   UNL     1      -1.057  11.339  18.802  0.00  0.00    +0.000 A 
ATOM     17  C   UNL     1      -2.101  10.512  18.149  0.00  0.00    +0.000 C 
ATOM     18  C   UNL     1       0.155  11.052  19.413  0.00  0.00    +0.000 A 
ATOM     19  H   UNL     1      -1.962  13.263  18.520  0.00  0.00    +0.000 HD
ENDBRANCH   6  18
ENDBRANCH   1   9
BRANCH   1  20
ATOM     20  C   UNL     1       2.555   5.038  18.607  0.00  0.00    +0.000 C 
ATOM     21  O   UNL     1       1.839   4.441  17.805  0.00  0.00    +0.000 OA
ATOM     22  N   UNL     1       3.905   5.315  18.413  0.00  0.00    +0.000 N 
ATOM     23  H   UNL     1       4.409   5.741  19.180  0.00  0.00    +0.000 HD
BRANCH  22  24
ATOM     24  C   UNL     1       4.646   5.058  17.238  0.00  0.00    +0.000 A 
ATOM     25  C   UNL     1       5.161   3.796  16.935  0.00  0.00    +0.000 A 
ATOM     26  C   UNL     1       5.858   3.570  15.744  0.00  0.00    +0.000 A 
ATOM     27  C   UNL     1       6.060   4.614  14.840  0.00  0.00    +0.000 A 
ATOM     28  C   UNL     1       5.542   5.882  15.131  0.00  0.00    +0.000 A 
ATOM     29  C   UNL     1       4.835   6.101  16.325  0.00  0.00    +0.000 A 
BRANCH  27  30
ATOM     30  C   UNL     1       6.755   4.382  13.548  0.00  0.00    +0.000 C 
ATOM     31  O   UNL     1       7.627   5.144  13.143  0.00  0.00    +0.000 OA
ATOM     32  N   UNL     1       6.372   3.261  12.841  0.00  0.00    +0.000 N 
ATOM     33  H   UNL     1       5.893   2.471  13.256  0.00  0.00    +0.000 HD
BRANCH  32  34
ATOM     34  O   UNL     1       7.086   3.013  11.648  0.00  0.00    +0.000 OA
ATOM     35  H   UNL     1       7.782   2.389  11.950  0.00  0.00    +0.000 HD
ENDBRANCH  32  34
ENDBRANCH  27  30
ENDBRANCH  22  24
ENDBRANCH   1  20
TORSDOF 6
ENDMDL
MODEL 3
REMARK VINA RESULT:      -8.4      0.951      1.312
REMARK  Name = 
REMARK  8 active torsions:
REMARK  status: ('A' for Active; 'I' for Inactive)
REMARK    1  A    between atoms: C_1  and  C_2
REMARK    2  A    between atoms: C_5  and  C_6
REMARK    3  A    between atoms: C_7  and  C_8
REMARK    4  A    between atoms: C_11  and  C_12
REMARK    5  A    between atoms: C_12  and  C_13
REMARK    6  A    between atoms: N_15  and  C_16
REMARK    7  A    between atoms: C_19  and  C_20
REMARK    8  A    between atoms: N_22  and  O_23
REMARK                            x       y       z     vdW  Elec       q    Type
REMARK                         _______ _______ _______ _____ _____    ______ ____
ROOT
ATOM      1  C   UNL     1       2.007   5.153  20.027  0.00  0.00    +0.000 C 
ATOM      2  C   UNL     1       2.877   4.470  21.104  0.00  0.00    +0.000 C 
ATOM      3  C   UNL     1       2.511   2.993  20.977  0.00  0.00    +0.000 C 
ATOM      4  C   UNL     1       1.027   2.983  20.621  0.00  0.00    +0.000 C 
ATOM      5  C   UNL     1       0.662   4.427  20.264  0.00  0.00    +0.000 C 
ENDROOT
BRANCH   1   9
ATOM      6  C   UNL     1       1.161   9.429  20.337  0.00  0.00    +0.000 A 
ATOM      7  C   UNL     1       1.112   8.590  21.453  0.00  0.00    +0.000 A 
ATOM      8  C   UNL     1       1.432   7.232  21.347  0.00  0.00    +0.000 A 
ATOM      9  C   UNL     1       1.823   6.667  20.120  0.00  0.00    +0.000 A 
ATOM     10  C   UNL     1       1.965   7.527  19.028  0.00  0.00    +0.000 A 
ATOM     11  C   UNL     1       1.628   8.885  19.135  0.00  0.00    +0.000 A 
BRANCH   6  18
ATOM     12  C   UNL     1       1.979  12.070  18.502  0.00  0.00    +0.000 C 
ATOM     13  C   UNL     1       1.023  11.954  19.635  0.00  0.00    +0.000 A 
ATOM     14  N   UNL     1       0.376  13.051  20.043  0.00  0.00    +0.000 NA
ATOM     15  N   UNL     1      -0.339  12.637  21.091  0.00  0.00    +0.000 N 
ATOM     16  C   UNL     1      -0.179  11.312  21.391  0.00  0.00    +0.000 A 
ATOM     17  C   UNL     1      -0.888  10.718  22.551  0.00  0.00    +0.000 C 
ATOM     18  C   UNL     1       0.690  10.809  20.434  0.00  0.00    +0.000 A 
ATOM     19  H   UNL     1      -0.916  13.319  21.571  0.00  0.00    +0.000 HD
ENDBRANCH   6  18
ENDBRANCH   1   9
BRANCH   1  20
ATOM     20  C   UNL     1       2.577   4.803  18.618  0.00  0.00    +0.000 C 
ATOM     21  O   UNL     1       1.839   4.385  17.729  0.00  0.00    +0.000 OA
ATOM     22  N   UNL     1       3.948   5.004  18.482  0.00  0.00    +0.000 N 
ATOM     23  H   UNL     1       4.464   5.274  19.310  0.00  0.00    +0.000 HD
BRANCH  22  24
ATOM     24  C   UNL     1       4.695   4.867  17.291  0.00  0.00    +0.000 A 
ATOM     25  C   UNL     1       5.248   3.650  16.886  0.00  0.00    +0.000 A 
ATOM     26  C   UNL     1       5.950   3.545  15.681  0.00  0.00    +0.000 A 
ATOM     27  C   UNL     1       6.119   4.665  14.867  0.00  0.00    +0.000 A 
ATOM     28  C   UNL     1       5.563   5.889  15.261  0.00  0.00    +0.000 A 
ATOM     29  C   UNL     1       4.850   5.987  16.467  0.00  0.00    +0.000 A 
BRANCH  27  30
ATOM     30  C   UNL     1       6.818   4.562  13.560  0.00  0.00    +0.000 C 
ATOM     31  O   UNL     1       7.662   5.383  13.218  0.00  0.00    +0.000 OA
ATOM     32  N   UNL     1       6.473   3.488  12.766  0.00  0.00    +0.000 N 
ATOM     33  H   UNL     1       6.022   2.651  13.117  0.00  0.00    +0.000 HD
BRANCH  32  34
ATOM     34  O   UNL     1       7.193   3.361  11.557  0.00  0.00    +0.000 OA
ATOM     35  H   UNL     1       7.844   2.660  11.778  0.00  0.00    +0.000 HD
ENDBRANCH  32  34
ENDBRANCH  27  30
ENDBRANCH  22  24
ENDBRANCH   1  20
TORSDOF 6
ENDMDL
MODEL 4
REMARK VINA RESULT:      -8.3      0.970      1.196
REMARK  Name = 
REMARK  8 active torsions:
REMARK  status: ('A' for Active; 'I' for Inactive)
REMARK    1  A    between atoms: C_1  and  C_2
REMARK    2  A    between atoms: C_5  and  C_6
REMARK    3  A    between atoms: C_7  and  C_8
REMARK    4  A    between atoms: C_11  and  C_12
REMARK    5  A    between atoms: C_12  and  C_13
REMARK    6  A    between atoms: N_15  and  C_16
REMARK    7  A    between atoms: C_19  and  C_20
REMARK    8  A    between atoms: N_22  and  O_23
REMARK                            x       y       z     vdW  Elec       q    Type
REMARK                         _______ _______ _______ _____ _____    ______ ____
ROOT
ATOM      1  C   UNL     1       1.946   5.207  20.024  0.00  0.00    +0.000 C 
ATOM      2  C   UNL     1       2.824   4.482  21.068  0.00  0.00    +0.000 C 
ATOM      3  C   UNL     1       2.451   3.012  20.892  0.00  0.00    +0.000 C 
ATOM      4  C   UNL     1       0.963   3.020  20.550  0.00  0.00    +0.000 C 
ATOM      5  C   UNL     1       0.601   4.478  20.248  0.00  0.00    +0.000 C 
ENDROOT
BRANCH   1   9
ATOM      6  C   UNL     1       1.119   9.474  20.466  0.00  0.00    +0.000 A 
ATOM      7  C   UNL     1       0.978   8.586  21.535  0.00  0.00    +0.000 A 
ATOM      8  C   UNL     1       1.293   7.231  21.391  0.00  0.00    +0.000 A 
ATOM      9  C   UNL     1       1.770   6.717  20.172  0.00  0.00    +0.000 A 
ATOM     10  C   UNL     1       2.002   7.623  19.134  0.00  0.00    +0.000 A 
ATOM     11  C   UNL     1       1.670   8.979  19.279  0.00  0.00    +0.000 A 
BRANCH   6  18
ATOM     12  C   UNL     1      -0.937  10.816  22.698  0.00  0.00    +0.000 C 
ATOM     13  C   UNL     1      -0.219  11.449  21.561  0.00  0.00    +0.000 A 
ATOM     14  N   UNL     1      -0.403  12.754  21.332  0.00  0.00    +0.000 NA
ATOM     15  N   UNL     1       0.312  12.996  20.231  0.00  0.00    +0.000 N 
ATOM     16  C   UNL     1       0.951  11.898  19.725  0.00  0.00    +0.000 A 
ATOM     17  C   UNL     1       1.759  12.009  18.486  0.00  0.00    +0.000 C 
ATOM     18  C   UNL     1       0.655  10.855  20.590  0.00  0.00    +0.000 A 
ATOM     19  H   UNL     1       0.315  13.942  19.866  0.00  0.00    +0.000 HD
ENDBRANCH   6  18
ENDBRANCH   1   9
BRANCH   1  20
ATOM     20  C   UNL     1       2.501   4.904  18.598  0.00  0.00    +0.000 C 
ATOM     21  O   UNL     1       1.739   4.630  17.673  0.00  0.00    +0.000 OA
ATOM     22  N   UNL     1       3.887   4.973  18.490  0.00  0.00    +0.000 N 
ATOM     23  H   UNL     1       4.415   5.127  19.341  0.00  0.00    +0.000 HD
BRANCH  22  24
ATOM     24  C   UNL     1       4.636   4.848  17.299  0.00  0.00    +0.000 A 
ATOM     25  C   UNL     1       5.111   3.620  16.834  0.00  0.00    +0.000 A 
ATOM     26  C   UNL     1       5.817   3.530  15.631  0.00  0.00    +0.000 A 
ATOM     27  C   UNL     1       6.069   4.677  14.877  0.00  0.00    +0.000 A 
ATOM     28  C   UNL     1       5.592   5.913  15.331  0.00  0.00    +0.000 A 
ATOM     29  C   UNL     1       4.875   5.996  16.536  0.00  0.00    +0.000 A 
BRANCH  27  30
ATOM     30  C   UNL     1       6.774   4.595  13.572  0.00  0.00    +0.000 C 
ATOM     31  O   UNL     1       7.583   5.449  13.226  0.00  0.00    +0.000 OA
ATOM     32  N   UNL     1       6.476   3.502  12.785  0.00  0.00    +0.000 N 
ATOM     33  H   UNL     1       6.060   2.650  13.141  0.00  0.00    +0.000 HD
BRANCH  32  34
ATOM     34  O   UNL     1       7.202   3.398  11.578  0.00  0.00    +0.000 OA
ATOM     35  H   UNL     1       7.665   4.263  11.540  0.00  0.00    +0.000 HD
ENDBRANCH  32  34
ENDBRANCH  27  30
ENDBRANCH  22  24
ENDBRANCH   1  20
TORSDOF 6
ENDMDL
MODEL 5
REMARK VINA RESULT:      -8.3      1.445      1.948
REMARK  Name = 
REMARK  8 active torsions:
REMARK  status: ('A' for Active; 'I' for Inactive)
REMARK    1  A    between atoms: C_1  and  C_2
REMARK    2  A    between atoms: C_5  and  C_6
REMARK    3  A    between atoms: C_7  and  C_8
REMARK    4  A    between atoms: C_11  and  C_12
REMARK    5  A    between atoms: C_12  and  C_13
REMARK    6  A    between atoms: N_15  and  C_16
REMARK    7  A    between atoms: C_19  and  C_20
REMARK    8  A    between atoms: N_22  and  O_23
REMARK                            x       y       z     vdW  Elec       q    Type
REMARK                         _______ _______ _______ _____ _____    ______ ____
ROOT
ATOM      1  C   UNL     1       2.048   5.158  20.428  0.00  0.00    +0.000 C 
ATOM      2  C   UNL     1       2.353   4.442  21.761  0.00  0.00    +0.000 C 
ATOM      3  C   UNL     1       2.471   2.974  21.361  0.00  0.00    +0.000 C 
ATOM      4  C   UNL     1       1.449   2.785  20.243  0.00  0.00    +0.000 C 
ATOM      5  C   UNL     1       0.997   4.191  19.834  0.00  0.00    +0.000 C 
ENDROOT
BRANCH   1   9
ATOM      6  C   UNL     1       0.198   9.117  20.451  0.00  0.00    +0.000 A 
ATOM      7  C   UNL     1      -0.323   8.060  21.202  0.00  0.00    +0.000 A 
ATOM      8  C   UNL     1       0.307   6.812  21.222  0.00  0.00    +0.000 A 
ATOM      9  C   UNL     1       1.491   6.579  20.498  0.00  0.00    +0.000 A 
ATOM     10  C   UNL     1       2.062   7.663  19.826  0.00  0.00    +0.000 A 
ATOM     11  C   UNL     1       1.417   8.909  19.796  0.00  0.00    +0.000 A 
BRANCH   6  18
ATOM     12  C   UNL     1      -0.644  11.309  22.795  0.00  0.00    +0.000 C 
ATOM     13  C   UNL     1      -0.899  11.332  21.331  0.00  0.00    +0.000 A 
ATOM     14  N   UNL     1      -1.590  12.356  20.817  0.00  0.00    +0.000 NA
ATOM     15  N   UNL     1      -1.702  12.056  19.521  0.00  0.00    +0.000 N 
ATOM     16  C   UNL     1      -1.119  10.870  19.167  0.00  0.00    +0.000 A 
ATOM     17  C   UNL     1      -1.190  10.390  17.766  0.00  0.00    +0.000 C 
ATOM     18  C   UNL     1      -0.546  10.369  20.328  0.00  0.00    +0.000 A 
ATOM     19  H   UNL     1      -2.203  12.705  18.925  0.00  0.00    +0.000 HD
ENDBRANCH   6  18
ENDBRANCH   1   9
BRANCH   1  20
ATOM     20  C   UNL     1       3.338   5.168  19.552  0.00  0.00    +0.000 C 
ATOM     21  O   UNL     1       4.451   5.197  20.073  0.00  0.00    +0.000 OA
ATOM     22  N   UNL     1       3.106   5.144  18.179  0.00  0.00    +0.000 N 
ATOM     23  H   UNL     1       2.144   5.204  17.868  0.00  0.00    +0.000 HD
BRANCH  22  24
ATOM     24  C   UNL     1       4.090   5.041  17.171  0.00  0.00    +0.000 A 
ATOM     25  C   UNL     1       4.487   3.816  16.631  0.00  0.00    +0.000 A 
ATOM     26  C   UNL     1       5.438   3.757  15.607  0.00  0.00    +0.000 A 
ATOM     27  C   UNL     1       6.015   4.928  15.116  0.00  0.00    +0.000 A 
ATOM     28  C   UNL     1       5.619   6.162  15.646  0.00  0.00    +0.000 A 
ATOM     29  C   UNL     1       4.657   6.217  16.668  0.00  0.00    +0.000 A 
BRANCH  27  30
ATOM     30  C   UNL     1       6.990   4.888  13.995  0.00  0.00    +0.000 C 
ATOM     31  O   UNL     1       6.813   4.168  13.018  0.00  0.00    +0.000 OA
ATOM     32  N   UNL     1       8.091   5.710  14.113  0.00  0.00    +0.000 N 
ATOM     33  H   UNL     1       8.130   6.512  14.731  0.00  0.00    +0.000 HD
BRANCH  32  34
ATOM     34  O   UNL     1       8.976   5.714  13.012  0.00  0.00    +0.000 OA
ATOM     35  H   UNL     1       8.512   5.130  12.373  0.00  0.00    +0.000 HD
ENDBRANCH  32  34
ENDBRANCH  27  30
ENDBRANCH  22  24
ENDBRANCH   1  20
TORSDOF 6
ENDMDL
MODEL 6
REMARK VINA RESULT:      -8.0      4.621      9.194
REMARK  Name = 
REMARK  8 active torsions:
REMARK  status: ('A' for Active; 'I' for Inactive)
REMARK    1  A    between atoms: C_1  and  C_2
REMARK    2  A    between atoms: C_5  and  C_6
REMARK    3  A    between atoms: C_7  and  C_8
REMARK    4  A    between atoms: C_11  and  C_12
REMARK    5  A    between atoms: C_12  and  C_13
REMARK    6  A    between atoms: N_15  and  C_16
REMARK    7  A    between atoms: C_19  and  C_20
REMARK    8  A    between atoms: N_22  and  O_23
REMARK                            x       y       z     vdW  Elec       q    Type
REMARK                         _______ _______ _______ _____ _____    ______ ____
ROOT
ATOM      1  C   UNL     1       0.385  10.833  19.591  0.00  0.00    +0.000 C 
ATOM      2  C   UNL     1      -0.623  11.314  18.525  0.00  0.00    +0.000 C 
ATOM      3  C   UNL     1      -1.577  12.208  19.312  0.00  0.00    +0.000 C 
ATOM      4  C   UNL     1      -1.689  11.554  20.687  0.00  0.00    +0.000 C 
ATOM      5  C   UNL     1      -0.583  10.495  20.748  0.00  0.00    +0.000 C 
ENDROOT
BRANCH   1   9
ATOM      6  C   UNL     1       2.636   7.278  18.410  0.00  0.00    +0.000 A 
ATOM      7  C   UNL     1       2.461   8.357  17.540  0.00  0.00    +0.000 A 
ATOM      8  C   UNL     1       1.779   9.508  17.948  0.00  0.00    +0.000 A 
ATOM      9  C   UNL     1       1.255   9.624  19.249  0.00  0.00    +0.000 A 
ATOM     10  C   UNL     1       1.516   8.586  20.146  0.00  0.00    +0.000 A 
ATOM     11  C   UNL     1       2.186   7.426  19.727  0.00  0.00    +0.000 A 
BRANCH   6  18
ATOM     12  C   UNL     1       1.335   4.227  18.316  0.00  0.00    +0.000 C 
ATOM     13  C   UNL     1       2.666   4.711  17.865  0.00  0.00    +0.000 A 
ATOM     14  N   UNL     1       3.530   3.828  17.352  0.00  0.00    +0.000 NA
ATOM     15  N   UNL     1       4.628   4.548  17.110  0.00  0.00    +0.000 N 
ATOM     16  C   UNL     1       4.519   5.868  17.451  0.00  0.00    +0.000 A 
ATOM     17  C   UNL     1       5.671   6.785  17.267  0.00  0.00    +0.000 C 
ATOM     18  C   UNL     1       3.226   6.031  17.927  0.00  0.00    +0.000 A 
ATOM     19  H   UNL     1       5.430   4.071  16.715  0.00  0.00    +0.000 HD
ENDBRANCH   6  18
ENDBRANCH   1   9
BRANCH   1  20
ATOM     20  C   UNL     1       1.313  12.023  19.985  0.00  0.00    +0.000 C 
ATOM     21  O   UNL     1       1.716  12.150  21.139  0.00  0.00    +0.000 OA
ATOM     22  N   UNL     1       1.621  12.887  18.938  0.00  0.00    +0.000 N 
ATOM     23  H   UNL     1       1.164  12.725  18.049  0.00  0.00    +0.000 HD
BRANCH  22  24
ATOM     24  C   UNL     1       2.519  13.977  18.995  0.00  0.00    +0.000 A 
ATOM     25  C   UNL     1       2.258  15.127  19.744  0.00  0.00    +0.000 A 
ATOM     26  C   UNL     1       3.188  16.170  19.806  0.00  0.00    +0.000 A 
ATOM     27  C   UNL     1       4.392  16.081  19.107  0.00  0.00    +0.000 A 
ATOM     28  C   UNL     1       4.665  14.929  18.358  0.00  0.00    +0.000 A 
ATOM     29  C   UNL     1       3.732  13.880  18.306  0.00  0.00    +0.000 A 
BRANCH  27  30
ATOM     30  C   UNL     1       5.411  17.157  19.201  0.00  0.00    +0.000 C 
ATOM     31  O   UNL     1       5.208  18.177  19.850  0.00  0.00    +0.000 OA
ATOM     32  N   UNL     1       6.596  16.936  18.529  0.00  0.00    +0.000 N 
ATOM     33  H   UNL     1       6.916  16.020  18.241  0.00  0.00    +0.000 HD
BRANCH  32  34
ATOM     34  O   UNL     1       7.583  17.935  18.682  0.00  0.00    +0.000 OA
ATOM     35  H   UNL     1       7.043  18.753  18.730  0.00  0.00    +0.000 HD
ENDBRANCH  32  34
ENDBRANCH  27  30
ENDBRANCH  22  24
ENDBRANCH   1  20
TORSDOF 6
ENDMDL
MODEL 7
REMARK VINA RESULT:      -8.0      4.142      9.241
REMARK  Name = 
REMARK  8 active torsions:
REMARK  status: ('A' for Active; 'I' for Inactive)
REMARK    1  A    between atoms: C_1  and  C_2
REMARK    2  A    between atoms: C_5  and  C_6
REMARK    3  A    between atoms: C_7  and  C_8
REMARK    4  A    between atoms: C_11  and  C_12
REMARK    5  A    between atoms: C_12  and  C_13
REMARK    6  A    between atoms: N_15  and  C_16
REMARK    7  A    between atoms: C_19  and  C_20
REMARK    8  A    between atoms: N_22  and  O_23
REMARK                            x       y       z     vdW  Elec       q    Type
REMARK                         _______ _______ _______ _____ _____    ______ ____
ROOT
ATOM      1  C   UNL     1       0.856   8.757  20.816  0.00  0.00    +0.000 C 
ATOM      2  C   UNL     1      -0.408   8.150  21.463  0.00  0.00    +0.000 C 
ATOM      3  C   UNL     1      -0.725   9.113  22.604  0.00  0.00    +0.000 C 
ATOM      4  C   UNL     1       0.634   9.578  23.119  0.00  0.00    +0.000 C 
ATOM      5  C   UNL     1       1.665   9.114  22.085  0.00  0.00    +0.000 C 
ENDROOT
BRANCH   1   9
ATOM      6  C   UNL     1       3.455   6.231  18.376  0.00  0.00    +0.000 A 
ATOM      7  C   UNL     1       2.928   5.783  19.590  0.00  0.00    +0.000 A 
ATOM      8  C   UNL     1       2.059   6.585  20.337  0.00  0.00    +0.000 A 
ATOM      9  C   UNL     1       1.678   7.863  19.889  0.00  0.00    +0.000 A 
ATOM     10  C   UNL     1       2.128   8.269  18.630  0.00  0.00    +0.000 A 
ATOM     11  C   UNL     1       3.013   7.468  17.893  0.00  0.00    +0.000 A 
BRANCH   6  18
ATOM     12  C   UNL     1       6.504   7.103  17.399  0.00  0.00    +0.000 C 
ATOM     13  C   UNL     1       5.795   5.803  17.267  0.00  0.00    +0.000 A 
ATOM     14  N   UNL     1       6.417   4.793  16.649  0.00  0.00    +0.000 NA
ATOM     15  N   UNL     1       5.512   3.811  16.637  0.00  0.00    +0.000 N 
ATOM     16  C   UNL     1       4.318   4.141  17.217  0.00  0.00    +0.000 A 
ATOM     17  C   UNL     1       3.207   3.160  17.251  0.00  0.00    +0.000 C 
ATOM     18  C   UNL     1       4.468   5.442  17.678  0.00  0.00    +0.000 A 
ATOM     19  H   UNL     1       5.772   2.932  16.205  0.00  0.00    +0.000 HD
ENDBRANCH   6  18
ENDBRANCH   1   9
BRANCH   1  20
ATOM     20  C   UNL     1       0.456  10.050  20.041  0.00  0.00    +0.000 C 
ATOM     21  O   UNL     1      -0.464  10.035  19.227  0.00  0.00    +0.000 OA
ATOM     22  N   UNL     1       1.219  11.172  20.355  0.00  0.00    +0.000 N 
ATOM     23  H   UNL     1       2.003  11.042  20.982  0.00  0.00    +0.000 HD
BRANCH  22  24
ATOM     24  C   UNL     1       1.001  12.485  19.881  0.00  0.00    +0.000 A 
ATOM     25  C   UNL     1      -0.081  13.264  20.295  0.00  0.00    +0.000 A 
ATOM     26  C   UNL     1      -0.243  14.574  19.833  0.00  0.00    +0.000 A 
ATOM     27  C   UNL     1       0.675  15.120  18.934  0.00  0.00    +0.000 A 
ATOM     28  C   UNL     1       1.767  14.349  18.517  0.00  0.00    +0.000 A 
ATOM     29  C   UNL     1       1.930  13.037  18.992  0.00  0.00    +0.000 A 
BRANCH  27  30
ATOM     30  C   UNL     1       0.546  16.525  18.470  0.00  0.00    +0.000 C 
ATOM     31  O   UNL     1      -0.552  17.041  18.286  0.00  0.00    +0.000 OA
ATOM     32  N   UNL     1       1.725  17.214  18.272  0.00  0.00    +0.000 N 
ATOM     33  H   UNL     1       2.610  16.941  18.682  0.00  0.00    +0.000 HD
BRANCH  32  34
ATOM     34  O   UNL     1       1.589  18.568  17.897  0.00  0.00    +0.000 OA
ATOM     35  H   UNL     1       0.972  18.511  17.135  0.00  0.00    +0.000 HD
ENDBRANCH  32  34
ENDBRANCH  27  30
ENDBRANCH  22  24
ENDBRANCH   1  20
TORSDOF 6
ENDMDL
MODEL 8
REMARK VINA RESULT:      -8.0      1.442      1.918
REMARK  Name = 
REMARK  8 active torsions:
REMARK  status: ('A' for Active; 'I' for Inactive)
REMARK    1  A    between atoms: C_1  and  C_2
REMARK    2  A    between atoms: C_5  and  C_6
REMARK    3  A    between atoms: C_7  and  C_8
REMARK    4  A    between atoms: C_11  and  C_12
REMARK    5  A    between atoms: C_12  and  C_13
REMARK    6  A    between atoms: N_15  and  C_16
REMARK    7  A    between atoms: C_19  and  C_20
REMARK    8  A    between atoms: N_22  and  O_23
REMARK                            x       y       z     vdW  Elec       q    Type
REMARK                         _______ _______ _______ _____ _____    ______ ____
ROOT
ATOM      1  C   UNL     1       2.064   5.220  20.323  0.00  0.00    +0.000 C 
ATOM      2  C   UNL     1       2.356   4.493  21.653  0.00  0.00    +0.000 C 
ATOM      3  C   UNL     1       2.469   3.027  21.244  0.00  0.00    +0.000 C 
ATOM      4  C   UNL     1       1.454   2.851  20.117  0.00  0.00    +0.000 C 
ATOM      5  C   UNL     1       1.013   4.262  19.715  0.00  0.00    +0.000 C 
ENDROOT
BRANCH   1   9
ATOM      6  C   UNL     1       0.794   9.390  20.618  0.00  0.00    +0.000 A 
ATOM      7  C   UNL     1       1.596   8.941  19.565  0.00  0.00    +0.000 A 
ATOM      8  C   UNL     1       1.955   7.594  19.458  0.00  0.00    +0.000 A 
ATOM      9  C   UNL     1       1.515   6.643  20.398  0.00  0.00    +0.000 A 
ATOM     10  C   UNL     1       0.635   7.076  21.393  0.00  0.00    +0.000 A 
ATOM     11  C   UNL     1       0.291   8.432  21.506  0.00  0.00    +0.000 A 
BRANCH   6  18
ATOM     12  C   UNL     1      -0.987  10.948  22.944  0.00  0.00    +0.000 C 
ATOM     13  C   UNL     1      -0.209  11.504  21.806  0.00  0.00    +0.000 A 
ATOM     14  N   UNL     1      -0.202  12.829  21.620  0.00  0.00    +0.000 NA
ATOM     15  N   UNL     1       0.515  12.999  20.507  0.00  0.00    +0.000 N 
ATOM     16  C   UNL     1       0.972  11.835  19.951  0.00  0.00    +0.000 A 
ATOM     17  C   UNL     1       1.758  11.866  18.694  0.00  0.00    +0.000 C 
ATOM     18  C   UNL     1       0.544  10.819  20.795  0.00  0.00    +0.000 A 
ATOM     19  H   UNL     1       0.650  13.945  20.169  0.00  0.00    +0.000 HD
ENDBRANCH   6  18
ENDBRANCH   1   9
BRANCH   1  20
ATOM     20  C   UNL     1       3.362   5.229  19.456  0.00  0.00    +0.000 C 
ATOM     21  O   UNL     1       4.470   5.278  19.986  0.00  0.00    +0.000 OA
ATOM     22  N   UNL     1       3.140   5.177  18.083  0.00  0.00    +0.000 N 
ATOM     23  H   UNL     1       2.180   5.221  17.763  0.00  0.00    +0.000 HD
BRANCH  22  24
ATOM     24  C   UNL     1       4.133   5.067  17.084  0.00  0.00    +0.000 A 
ATOM     25  C   UNL     1       4.547   3.838  16.568  0.00  0.00    +0.000 A 
ATOM     26  C   UNL     1       5.506   3.770  15.552  0.00  0.00    +0.000 A 
ATOM     27  C   UNL     1       6.076   4.939  15.045  0.00  0.00    +0.000 A 
ATOM     28  C   UNL     1       5.663   6.178  15.552  0.00  0.00    +0.000 A 
ATOM     29  C   UNL     1       4.692   6.240  16.565  0.00  0.00    +0.000 A 
BRANCH  27  30
ATOM     30  C   UNL     1       7.059   4.889  13.933  0.00  0.00    +0.000 C 
ATOM     31  O   UNL     1       6.902   4.145  12.971  0.00  0.00    +0.000 OA
ATOM     32  N   UNL     1       8.146   5.732  14.041  0.00  0.00    +0.000 N 
ATOM     33  H   UNL     1       8.168   6.548  14.641  0.00  0.00    +0.000 HD
BRANCH  32  34
ATOM     34  O   UNL     1       9.039   5.726  12.947  0.00  0.00    +0.000 OA
ATOM     35  H   UNL     1       8.571   5.152  12.301  0.00  0.00    +0.000 HD
ENDBRANCH  32  34
ENDBRANCH  27  30
ENDBRANCH  22  24
ENDBRANCH   1  20
TORSDOF 6
ENDMDL
MODEL 9
REMARK VINA RESULT:      -8.0      1.430      1.982
REMARK  Name = 
REMARK  8 active torsions:
REMARK  status: ('A' for Active; 'I' for Inactive)
REMARK    1  A    between atoms: C_1  and  C_2
REMARK    2  A    between atoms: C_5  and  C_6
REMARK    3  A    between atoms: C_7  and  C_8
REMARK    4  A    between atoms: C_11  and  C_12
REMARK    5  A    between atoms: C_12  and  C_13
REMARK    6  A    between atoms: N_15  and  C_16
REMARK    7  A    between atoms: C_19  and  C_20
REMARK    8  A    between atoms: N_22  and  O_23
REMARK                            x       y       z     vdW  Elec       q    Type
REMARK                         _______ _______ _______ _____ _____    ______ ____
ROOT
ATOM      1  C   UNL     1       2.096   5.165  20.304  0.00  0.00    +0.000 C 
ATOM      2  C   UNL     1       2.386   4.450  21.641  0.00  0.00    +0.000 C 
ATOM      3  C   UNL     1       2.505   2.981  21.244  0.00  0.00    +0.000 C 
ATOM      4  C   UNL     1       1.494   2.793  20.116  0.00  0.00    +0.000 C 
ATOM      5  C   UNL     1       1.049   4.200  19.701  0.00  0.00    +0.000 C 
ENDROOT
BRANCH   1   9
ATOM      6  C   UNL     1       0.816   9.337  20.542  0.00  0.00    +0.000 A 
ATOM      7  C   UNL     1       1.555   8.858  19.458  0.00  0.00    +0.000 A 
ATOM      8  C   UNL     1       1.917   7.509  19.372  0.00  0.00    +0.000 A 
ATOM      9  C   UNL     1       1.541   6.587  20.367  0.00  0.00    +0.000 A 
ATOM     10  C   UNL     1       0.721   7.048  21.399  0.00  0.00    +0.000 A 
ATOM     11  C   UNL     1       0.374   8.405  21.489  0.00  0.00    +0.000 A 
BRANCH   6  18
ATOM     12  C   UNL     1       1.928  11.868  18.708  0.00  0.00    +0.000 C 
ATOM     13  C   UNL     1       1.028  11.870  19.891  0.00  0.00    +0.000 A 
ATOM     14  N   UNL     1       0.577  13.042  20.353  0.00  0.00    +0.000 NA
ATOM     15  N   UNL     1      -0.136  12.714  21.433  0.00  0.00    +0.000 N 
ATOM     16  C   UNL     1      -0.165  11.374  21.701  0.00  0.00    +0.000 A 
ATOM     17  C   UNL     1      -0.894  10.864  22.888  0.00  0.00    +0.000 C 
ATOM     18  C   UNL     1       0.567  10.769  20.688  0.00  0.00    +0.000 A 
ATOM     19  H   UNL     1      -0.577  13.463  21.955  0.00  0.00    +0.000 HD
ENDBRANCH   6  18
ENDBRANCH   1   9
BRANCH   1  20
ATOM     20  C   UNL     1       3.395   5.171  19.441  0.00  0.00    +0.000 C 
ATOM     21  O   UNL     1       4.502   5.192  19.973  0.00  0.00    +0.000 OA
ATOM     22  N   UNL     1       3.176   5.153  18.066  0.00  0.00    +0.000 N 
ATOM     23  H   UNL     1       2.218   5.220  17.745  0.00  0.00    +0.000 HD
BRANCH  22  24
ATOM     24  C   UNL     1       4.169   5.049  17.067  0.00  0.00    +0.000 A 
ATOM     25  C   UNL     1       4.630   3.819  16.592  0.00  0.00    +0.000 A 
ATOM     26  C   UNL     1       5.588   3.755  15.575  0.00  0.00    +0.000 A 
ATOM     27  C   UNL     1       6.109   4.927  15.026  0.00  0.00    +0.000 A 
ATOM     28  C   UNL     1       5.649   6.165  15.491  0.00  0.00    +0.000 A 
ATOM     29  C   UNL     1       4.680   6.224  16.506  0.00  0.00    +0.000 A 
BRANCH  27  30
ATOM     30  C   UNL     1       7.090   4.879  13.912  0.00  0.00    +0.000 C 
ATOM     31  O   UNL     1       6.940   4.123  12.957  0.00  0.00    +0.000 OA
ATOM     32  N   UNL     1       8.167   5.736  14.007  0.00  0.00    +0.000 N 
ATOM     33  H   UNL     1       8.180   6.558  14.599  0.00  0.00    +0.000 HD
BRANCH  32  34
ATOM     34  O   UNL     1       9.057   5.730  12.911  0.00  0.00    +0.000 OA
ATOM     35  H   UNL     1       9.102   4.774  12.687  0.00  0.00    +0.000 HD
ENDBRANCH  32  34
ENDBRANCH  27  30
ENDBRANCH  22  24
ENDBRANCH   1  20
TORSDOF 6
ENDMDL
