MODEL 1
REMARK VINA RESULT:      -7.0      0.000      0.000
REMARK  Name = 
REMARK  5 active torsions:
REMARK  status: ('A' for Active; 'I' for Inactive)
REMARK    1  A    between atoms: C_1  and  C_2
REMARK    2  A    between atoms: N_4  and  C_5
REMARK    3  A    between atoms: N_4  and  C_23
REMARK    4  A    between atoms: C_6  and  N_7
REMARK    5  A    between atoms: C_28  and  C_29
REMARK                            x       y       z     vdW  Elec       q    Type
REMARK                         _______ _______ _______ _____ _____    ______ ____
ROOT
ATOM      1  C   UNL     1      -1.127  11.356  19.414  0.00  0.00    +0.000 C 
ATOM      2  C   UNL     1      -2.246  12.017  19.813  0.00  0.00    +0.000 C 
ATOM      3  C   UNL     1      -3.494  11.864  18.948  0.00  0.00    +0.000 C 
ATOM      4  O   UNL     1      -4.608  12.215  19.334  0.00  0.00    +0.000 OA
ATOM      5  C   UNL     1      -3.388  11.252  17.615  0.00  0.00    +0.000 A 
ATOM      6  C   UNL     1      -4.482  11.283  16.736  0.00  0.00    +0.000 A 
ATOM      7  C   UNL     1      -4.402  10.660  15.487  0.00  0.00    +0.000 A 
ATOM      8  C   UNL     1      -3.235   9.997  15.113  0.00  0.00    +0.000 A 
ATOM      9  C   UNL     1      -2.151   9.962  15.988  0.00  0.00    +0.000 A 
ATOM     10  C   UNL     1      -2.230  10.596  17.239  0.00  0.00    +0.000 A 
ATOM     11  C   UNL     1      -1.090  10.541  18.148  0.00  0.00    +0.000 C 
ATOM     12  O   UNL     1      -0.129   9.831  17.866  0.00  0.00    +0.000 OA
ENDROOT
BRANCH   2  13
ATOM     13  N   UNL     1      -2.378  12.847  20.963  0.00  0.00    +0.000 N 
ATOM     14  C   UNL     1      -2.308  12.325  22.341  0.00  0.00    +0.000 C 
ATOM     15  C   UNL     1      -3.523  12.819  23.125  0.00  0.00    +0.000 C 
ATOM     16  C   UNL     1      -3.781  14.322  23.005  0.00  0.00    +0.000 C 
ATOM     17  C   UNL     1      -3.420  14.960  21.660  0.00  0.00    +0.000 C 
ATOM     18  C   UNL     1      -2.234  14.309  20.949  0.00  0.00    +0.000 C 
ENDBRANCH   2  13
BRANCH   1  22
ATOM     19  C   UNL     1      -0.414   9.187  21.177  0.00  0.00    +0.000 C 
ATOM     20  C   UNL     1       0.396  10.464  21.119  0.00  0.00    +0.000 C 
ATOM     21  O   UNL     1       1.270  10.646  21.973  0.00  0.00    +0.000 OA
ATOM     22  N   UNL     1       0.097  11.391  20.103  0.00  0.00    +0.000 N 
BRANCH  22  23
ATOM     23  C   UNL     1       1.142  12.315  19.718  0.00  0.00    +0.000 A 
ATOM     24  C   UNL     1       1.937  12.035  18.599  0.00  0.00    +0.000 A 
ATOM     25  C   UNL     1       2.828  12.973  18.073  0.00  0.00    +0.000 A 
ATOM     26  C   UNL     1       3.000  14.190  18.710  0.00  0.00    +0.000 A 
ATOM     27  C   UNL     1       2.300  14.454  19.885  0.00  0.00    +0.000 A 
ATOM     28  C   UNL     1       1.382  13.523  20.412  0.00  0.00    +0.000 A 
ATOM     29  C   UNL     1       0.741  13.859  21.732  0.00  0.00    +0.000 C 
ENDBRANCH  22  23
ENDBRANCH   1  22
TORSDOF 3
ENDMDL
MODEL 2
REMARK VINA RESULT:      -6.9      2.103      5.427
REMARK  Name = 
REMARK  5 active torsions:
REMARK  status: ('A' for Active; 'I' for Inactive)
REMARK    1  A    between atoms: C_1  and  C_2
REMARK    2  A    between atoms: N_4  and  C_5
REMARK    3  A    between atoms: N_4  and  C_23
REMARK    4  A    between atoms: C_6  and  N_7
REMARK    5  A    between atoms: C_28  and  C_29
REMARK                            x       y       z     vdW  Elec       q    Type
REMARK                         _______ _______ _______ _____ _____    ______ ____
ROOT
ATOM      1  C   UNL     1       0.674  12.761  19.562  0.00  0.00    +0.000 C 
ATOM      2  C   UNL     1       0.190  13.745  20.366  0.00  0.00    +0.000 C 
ATOM      3  C   UNL     1       0.931  15.079  20.363  0.00  0.00    +0.000 C 
ATOM      4  O   UNL     1       0.452  16.097  20.859  0.00  0.00    +0.000 OA
ATOM      5  C   UNL     1       2.252  15.178  19.726  0.00  0.00    +0.000 A 
ATOM      6  C   UNL     1       3.027  16.338  19.885  0.00  0.00    +0.000 A 
ATOM      7  C   UNL     1       4.261  16.457  19.241  0.00  0.00    +0.000 A 
ATOM      8  C   UNL     1       4.725  15.424  18.429  0.00  0.00    +0.000 A 
ATOM      9  C   UNL     1       3.955  14.274  18.267  0.00  0.00    +0.000 A 
ATOM     10  C   UNL     1       2.717  14.154  18.922  0.00  0.00    +0.000 A 
ATOM     11  C   UNL     1       1.917  12.949  18.733  0.00  0.00    +0.000 C 
ATOM     12  O   UNL     1       2.269  12.116  17.902  0.00  0.00    +0.000 OA
ENDROOT
BRANCH   2  13
ATOM     13  N   UNL     1      -0.947  13.661  21.221  0.00  0.00    +0.000 N 
ATOM     14  C   UNL     1      -0.842  13.553  22.688  0.00  0.00    +0.000 C 
ATOM     15  C   UNL     1      -1.692  12.377  23.165  0.00  0.00    +0.000 C 
ATOM     16  C   UNL     1      -3.117  12.363  22.607  0.00  0.00    +0.000 C 
ATOM     17  C   UNL     1      -3.286  12.911  21.187  0.00  0.00    +0.000 C 
ATOM     18  C   UNL     1      -2.312  14.029  20.819  0.00  0.00    +0.000 C 
ENDBRANCH   2  13
BRANCH   1  22
ATOM     19  C   UNL     1      -1.322  12.259  17.541  0.00  0.00    +0.000 C 
ATOM     20  C   UNL     1      -1.010  11.245  18.620  0.00  0.00    +0.000 C 
ATOM     21  O   UNL     1      -1.752  10.264  18.738  0.00  0.00    +0.000 OA
ATOM     22  N   UNL     1       0.103  11.482  19.448  0.00  0.00    +0.000 N 
BRANCH  22  23
ATOM     23  C   UNL     1       0.705  10.337  20.097  0.00  0.00    +0.000 A 
ATOM     24  C   UNL     1       0.730  10.267  21.496  0.00  0.00    +0.000 A 
ATOM     25  C   UNL     1       1.124   9.110  22.170  0.00  0.00    +0.000 A 
ATOM     26  C   UNL     1       1.582   8.018  21.452  0.00  0.00    +0.000 A 
ATOM     27  C   UNL     1       1.668   8.098  20.064  0.00  0.00    +0.000 A 
ATOM     28  C   UNL     1       1.251   9.253  19.373  0.00  0.00    +0.000 A 
ATOM     29  C   UNL     1       1.464   9.279  17.882  0.00  0.00    +0.000 C 
ENDBRANCH  22  23
ENDBRANCH   1  22
TORSDOF 3
ENDMDL
MODEL 3
REMARK VINA RESULT:      -6.9      2.307      3.822
REMARK  Name = 
REMARK  5 active torsions:
REMARK  status: ('A' for Active; 'I' for Inactive)
REMARK    1  A    between atoms: C_1  and  C_2
REMARK    2  A    between atoms: N_4  and  C_5
REMARK    3  A    between atoms: N_4  and  C_23
REMARK    4  A    between atoms: C_6  and  N_7
REMARK    5  A    between atoms: C_28  and  C_29
REMARK                            x       y       z     vdW  Elec       q    Type
REMARK                         _______ _______ _______ _____ _____    ______ ____
ROOT
ATOM      1  C   UNL     1      -2.823  12.399  20.286  0.00  0.00    +0.000 C 
ATOM      2  C   UNL     1      -3.616  12.818  21.308  0.00  0.00    +0.000 C 
ATOM      3  C   UNL     1      -5.120  12.863  21.053  0.00  0.00    +0.000 C 
ATOM      4  O   UNL     1      -5.937  12.993  21.964  0.00  0.00    +0.000 OA
ATOM      5  C   UNL     1      -5.633  12.721  19.682  0.00  0.00    +0.000 A 
ATOM      6  C   UNL     1      -6.990  12.955  19.409  0.00  0.00    +0.000 A 
ATOM      7  C   UNL     1      -7.491  12.773  18.117  0.00  0.00    +0.000 A 
ATOM      8  C   UNL     1      -6.645  12.349  17.095  0.00  0.00    +0.000 A 
ATOM      9  C   UNL     1      -5.299  12.112  17.367  0.00  0.00    +0.000 A 
ATOM     10  C   UNL     1      -4.795  12.303  18.665  0.00  0.00    +0.000 A 
ATOM     11  C   UNL     1      -3.386  12.039  18.936  0.00  0.00    +0.000 C 
ATOM     12  O   UNL     1      -2.691  11.527  18.063  0.00  0.00    +0.000 OA
ENDROOT
BRANCH   2  13
ATOM     13  N   UNL     1      -3.187  13.222  22.605  0.00  0.00    +0.000 N 
ATOM     14  C   UNL     1      -3.231  12.330  23.778  0.00  0.00    +0.000 C 
ATOM     15  C   UNL     1      -3.941  13.047  24.925  0.00  0.00    +0.000 C 
ATOM     16  C   UNL     1      -3.430  14.464  25.196  0.00  0.00    +0.000 C 
ATOM     17  C   UNL     1      -2.954  15.251  23.971  0.00  0.00    +0.000 C 
ATOM     18  C   UNL     1      -2.338  14.392  22.867  0.00  0.00    +0.000 C 
ENDBRANCH   2  13
BRANCH   1  22
ATOM     19  C   UNL     1      -1.187  14.720  19.778  0.00  0.00    +0.000 C 
ATOM     20  C   UNL     1      -0.585  13.341  19.930  0.00  0.00    +0.000 C 
ATOM     21  O   UNL     1       0.608  13.186  19.652  0.00  0.00    +0.000 OA
ATOM     22  N   UNL     1      -1.424  12.297  20.363  0.00  0.00    +0.000 N 
BRANCH  22  23
ATOM     23  C   UNL     1      -0.795  11.156  20.993  0.00  0.00    +0.000 A 
ATOM     24  C   UNL     1      -0.665  11.118  22.388  0.00  0.00    +0.000 A 
ATOM     25  C   UNL     1      -0.242   9.970  23.059  0.00  0.00    +0.000 A 
ATOM     26  C   UNL     1       0.141   8.853  22.336  0.00  0.00    +0.000 A 
ATOM     27  C   UNL     1       0.123   8.898  20.944  0.00  0.00    +0.000 A 
ATOM     28  C   UNL     1      -0.324  10.045  20.258  0.00  0.00    +0.000 A 
ATOM     29  C   UNL     1      -0.223  10.032  18.755  0.00  0.00    +0.000 C 
ENDBRANCH  22  23
ENDBRANCH   1  22
TORSDOF 3
ENDMDL
MODEL 4
REMARK VINA RESULT:      -6.8      2.028      4.957
REMARK  Name = 
REMARK  5 active torsions:
REMARK  status: ('A' for Active; 'I' for Inactive)
REMARK    1  A    between atoms: C_1  and  C_2
REMARK    2  A    between atoms: N_4  and  C_5
REMARK    3  A    between atoms: N_4  and  C_23
REMARK    4  A    between atoms: C_6  and  N_7
REMARK    5  A    between atoms: C_28  and  C_29
REMARK                            x       y       z     vdW  Elec       q    Type
REMARK                         _______ _______ _______ _____ _____    ______ ____
ROOT
ATOM      1  C   UNL     1      -0.931  12.766  19.612  0.00  0.00    +0.000 C 
ATOM      2  C   UNL     1      -1.843  13.500  20.302  0.00  0.00    +0.000 C 
ATOM      3  C   UNL     1      -1.605  15.004  20.395  0.00  0.00    +0.000 C 
ATOM      4  O   UNL     1      -2.474  15.785  20.782  0.00  0.00    +0.000 OA
ATOM      5  C   UNL     1      -0.308  15.564  19.987  0.00  0.00    +0.000 A 
ATOM      6  C   UNL     1      -0.007  16.910  20.250  0.00  0.00    +0.000 A 
ATOM      7  C   UNL     1       1.205  17.460  19.821  0.00  0.00    +0.000 A 
ATOM      8  C   UNL     1       2.117  16.673  19.120  0.00  0.00    +0.000 A 
ATOM      9  C   UNL     1       1.816  15.338  18.855  0.00  0.00    +0.000 A 
ATOM     10  C   UNL     1       0.601  14.785  19.295  0.00  0.00    +0.000 A 
ATOM     11  C   UNL     1       0.297  13.390  19.000  0.00  0.00    +0.000 C 
ATOM     12  O   UNL     1       1.041  12.755  18.258  0.00  0.00    +0.000 OA
ENDROOT
BRANCH   2  13
ATOM     13  N   UNL     1      -3.010  13.009  20.954  0.00  0.00    +0.000 N 
ATOM     14  C   UNL     1      -4.246  12.657  20.230  0.00  0.00    +0.000 C 
ATOM     15  C   UNL     1      -5.431  13.356  20.895  0.00  0.00    +0.000 C 
ATOM     16  C   UNL     1      -5.491  13.188  22.414  0.00  0.00    +0.000 C 
ATOM     17  C   UNL     1      -4.140  13.107  23.133  0.00  0.00    +0.000 C 
ATOM     18  C   UNL     1      -3.026  12.456  22.316  0.00  0.00    +0.000 C 
ENDBRANCH   2  13
BRANCH   1  22
ATOM     19  C   UNL     1      -2.196  11.700  17.249  0.00  0.00    +0.000 C 
ATOM     20  C   UNL     1      -1.790  10.811  18.404  0.00  0.00    +0.000 C 
ATOM     21  O   UNL     1      -2.173   9.636  18.405  0.00  0.00    +0.000 OA
ATOM     22  N   UNL     1      -1.011  11.375  19.431  0.00  0.00    +0.000 N 
BRANCH  22  23
ATOM     23  C   UNL     1      -0.208  10.473  20.228  0.00  0.00    +0.000 A 
ATOM     24  C   UNL     1      -0.394  10.421  21.616  0.00  0.00    +0.000 A 
ATOM     25  C   UNL     1       0.213   9.444  22.406  0.00  0.00    +0.000 A 
ATOM     26  C   UNL     1       1.090   8.540  21.830  0.00  0.00    +0.000 A 
ATOM     27  C   UNL     1       1.376   8.635  20.470  0.00  0.00    +0.000 A 
ATOM     28  C   UNL     1       0.751   9.603  19.659  0.00  0.00    +0.000 A 
ATOM     29  C   UNL     1       1.189   9.685  18.221  0.00  0.00    +0.000 C 
ENDBRANCH  22  23
ENDBRANCH   1  22
TORSDOF 3
ENDMDL
MODEL 5
REMARK VINA RESULT:      -6.7      1.317      3.159
REMARK  Name = 
REMARK  5 active torsions:
REMARK  status: ('A' for Active; 'I' for Inactive)
REMARK    1  A    between atoms: C_1  and  C_2
REMARK    2  A    between atoms: N_4  and  C_5
REMARK    3  A    between atoms: N_4  and  C_23
REMARK    4  A    between atoms: C_6  and  N_7
REMARK    5  A    between atoms: C_28  and  C_29
REMARK                            x       y       z     vdW  Elec       q    Type
REMARK                         _______ _______ _______ _____ _____    ______ ____
ROOT
ATOM      1  C   UNL     1      -1.494  11.555  19.207  0.00  0.00    +0.000 C 
ATOM      2  C   UNL     1      -2.670  12.170  19.505  0.00  0.00    +0.000 C 
ATOM      3  C   UNL     1      -3.843  11.932  18.557  0.00  0.00    +0.000 C 
ATOM      4  O   UNL     1      -4.998  12.237  18.852  0.00  0.00    +0.000 OA
ATOM      5  C   UNL     1      -3.611  11.293  17.254  0.00  0.00    +0.000 A 
ATOM      6  C   UNL     1      -4.638  11.247  16.298  0.00  0.00    +0.000 A 
ATOM      7  C   UNL     1      -4.437  10.598  15.077  0.00  0.00    +0.000 A 
ATOM      8  C   UNL     1      -3.216   9.984  14.807  0.00  0.00    +0.000 A 
ATOM      9  C   UNL     1      -2.198  10.026  15.757  0.00  0.00    +0.000 A 
ATOM     10  C   UNL     1      -2.399  10.686  16.981  0.00  0.00    +0.000 A 
ATOM     11  C   UNL     1      -1.327  10.711  17.970  0.00  0.00    +0.000 C 
ATOM     12  O   UNL     1      -0.315  10.043  17.778  0.00  0.00    +0.000 OA
ENDROOT
BRANCH   2  13
ATOM     13  N   UNL     1      -2.926  13.020  20.618  0.00  0.00    +0.000 N 
ATOM     14  C   UNL     1      -2.505  14.433  20.662  0.00  0.00    +0.000 C 
ATOM     15  C   UNL     1      -1.747  14.689  21.963  0.00  0.00    +0.000 C 
ATOM     16  C   UNL     1      -2.457  14.177  23.217  0.00  0.00    +0.000 C 
ATOM     17  C   UNL     1      -3.285  12.900  23.045  0.00  0.00    +0.000 C 
ATOM     18  C   UNL     1      -3.918  12.737  21.664  0.00  0.00    +0.000 C 
ENDBRANCH   2  13
BRANCH   1  22
ATOM     19  C   UNL     1       0.208  13.863  18.899  0.00  0.00    +0.000 C 
ATOM     20  C   UNL     1       0.631  12.666  19.723  0.00  0.00    +0.000 C 
ATOM     21  O   UNL     1       1.800  12.609  20.119  0.00  0.00    +0.000 OA
ATOM     22  N   UNL     1      -0.327  11.668  19.980  0.00  0.00    +0.000 N 
BRANCH  22  23
ATOM     23  C   UNL     1      -0.118  10.829  21.140  0.00  0.00    +0.000 A 
ATOM     24  C   UNL     1      -0.650  11.211  22.378  0.00  0.00    +0.000 A 
ATOM     25  C   UNL     1      -0.643  10.356  23.481  0.00  0.00    +0.000 A 
ATOM     26  C   UNL     1      -0.025   9.121  23.390  0.00  0.00    +0.000 A 
ATOM     27  C   UNL     1       0.606   8.757  22.202  0.00  0.00    +0.000 A 
ATOM     28  C   UNL     1       0.584   9.603  21.076  0.00  0.00    +0.000 A 
ATOM     29  C   UNL     1       1.368   9.163  19.867  0.00  0.00    +0.000 C 
ENDBRANCH  22  23
ENDBRANCH   1  22
TORSDOF 3
ENDMDL
MODEL 6
REMARK VINA RESULT:      -6.7      1.677      2.560
REMARK  Name = 
REMARK  5 active torsions:
REMARK  status: ('A' for Active; 'I' for Inactive)
REMARK    1  A    between atoms: C_1  and  C_2
REMARK    2  A    between atoms: N_4  and  C_5
REMARK    3  A    between atoms: N_4  and  C_23
REMARK    4  A    between atoms: C_6  and  N_7
REMARK    5  A    between atoms: C_28  and  C_29
REMARK                            x       y       z     vdW  Elec       q    Type
REMARK                         _______ _______ _______ _____ _____    ______ ____
ROOT
ATOM      1  C   UNL     1      -2.198  12.735  20.342  0.00  0.00    +0.000 C 
ATOM      2  C   UNL     1      -3.537  12.954  20.442  0.00  0.00    +0.000 C 
ATOM      3  C   UNL     1      -4.438  12.254  19.429  0.00  0.00    +0.000 C 
ATOM      4  O   UNL     1      -5.658  12.189  19.569  0.00  0.00    +0.000 OA
ATOM      5  C   UNL     1      -3.844  11.605  18.251  0.00  0.00    +0.000 A 
ATOM      6  C   UNL     1      -4.667  11.131  17.216  0.00  0.00    +0.000 A 
ATOM      7  C   UNL     1      -4.111  10.470  16.118  0.00  0.00    +0.000 A 
ATOM      8  C   UNL     1      -2.733  10.270  16.050  0.00  0.00    +0.000 A 
ATOM      9  C   UNL     1      -1.917  10.735  17.078  0.00  0.00    +0.000 A 
ATOM     10  C   UNL     1      -2.477  11.407  18.178  0.00  0.00    +0.000 A 
ATOM     11  C   UNL     1      -1.610  11.879  19.252  0.00  0.00    +0.000 C 
ATOM     12  O   UNL     1      -0.423  11.566  19.248  0.00  0.00    +0.000 OA
ENDROOT
BRANCH   2  13
ATOM     13  N   UNL     1      -4.194  13.776  21.402  0.00  0.00    +0.000 N 
ATOM     14  C   UNL     1      -4.742  15.106  21.078  0.00  0.00    +0.000 C 
ATOM     15  C   UNL     1      -4.226  16.122  22.096  0.00  0.00    +0.000 C 
ATOM     16  C   UNL     1      -4.381  15.686  23.555  0.00  0.00    +0.000 C 
ATOM     17  C   UNL     1      -4.243  14.184  23.824  0.00  0.00    +0.000 C 
ATOM     18  C   UNL     1      -4.724  13.290  22.683  0.00  0.00    +0.000 C 
ENDBRANCH   2  13
BRANCH   1  22
ATOM     19  C   UNL     1      -1.394  11.317  22.722  0.00  0.00    +0.000 C 
ATOM     20  C   UNL     1      -0.968  12.746  22.465  0.00  0.00    +0.000 C 
ATOM     21  O   UNL     1      -0.417  13.369  23.379  0.00  0.00    +0.000 OA
ATOM     22  N   UNL     1      -1.240  13.301  21.201  0.00  0.00    +0.000 N 
BRANCH  22  23
ATOM     23  C   UNL     1      -0.419  14.412  20.771  0.00  0.00    +0.000 A 
ATOM     24  C   UNL     1      -1.015  15.653  20.507  0.00  0.00    +0.000 A 
ATOM     25  C   UNL     1      -0.257  16.801  20.274  0.00  0.00    +0.000 A 
ATOM     26  C   UNL     1       1.124  16.715  20.221  0.00  0.00    +0.000 A 
ATOM     27  C   UNL     1       1.739  15.474  20.376  0.00  0.00    +0.000 A 
ATOM     28  C   UNL     1       0.984  14.313  20.633  0.00  0.00    +0.000 A 
ATOM     29  C   UNL     1       1.729  13.006  20.697  0.00  0.00    +0.000 C 
ENDBRANCH  22  23
ENDBRANCH   1  22
TORSDOF 3
ENDMDL
MODEL 7
REMARK VINA RESULT:      -6.7      1.852      4.143
REMARK  Name = 
REMARK  5 active torsions:
REMARK  status: ('A' for Active; 'I' for Inactive)
REMARK    1  A    between atoms: C_1  and  C_2
REMARK    2  A    between atoms: N_4  and  C_5
REMARK    3  A    between atoms: N_4  and  C_23
REMARK    4  A    between atoms: C_6  and  N_7
REMARK    5  A    between atoms: C_28  and  C_29
REMARK                            x       y       z     vdW  Elec       q    Type
REMARK                         _______ _______ _______ _____ _____    ______ ____
ROOT
ATOM      1  C   UNL     1      -1.483  12.370  20.244  0.00  0.00    +0.000 C 
ATOM      2  C   UNL     1      -1.119  11.305  19.480  0.00  0.00    +0.000 C 
ATOM      3  C   UNL     1      -2.152  10.765  18.495  0.00  0.00    +0.000 C 
ATOM      4  O   UNL     1      -1.857   9.974  17.601  0.00  0.00    +0.000 OA
ATOM      5  C   UNL     1      -3.550  11.215  18.584  0.00  0.00    +0.000 A 
ATOM      6  C   UNL     1      -4.543  10.584  17.818  0.00  0.00    +0.000 A 
ATOM      7  C   UNL     1      -5.864  11.039  17.862  0.00  0.00    +0.000 A 
ATOM      8  C   UNL     1      -6.198  12.131  18.661  0.00  0.00    +0.000 A 
ATOM      9  C   UNL     1      -5.211  12.760  19.418  0.00  0.00    +0.000 A 
ATOM     10  C   UNL     1      -3.885  12.295  19.379  0.00  0.00    +0.000 A 
ATOM     11  C   UNL     1      -2.862  12.972  20.167  0.00  0.00    +0.000 C 
ATOM     12  O   UNL     1      -3.142  14.016  20.748  0.00  0.00    +0.000 OA
ENDROOT
BRANCH   2  13
ATOM     13  N   UNL     1       0.137  10.634  19.502  0.00  0.00    +0.000 N 
ATOM     14  C   UNL     1       1.203  10.895  18.517  0.00  0.00    +0.000 C 
ATOM     15  C   UNL     1       1.676   9.567  17.929  0.00  0.00    +0.000 C 
ATOM     16  C   UNL     1       1.994   8.493  18.971  0.00  0.00    +0.000 C 
ATOM     17  C   UNL     1       1.134   8.513  20.238  0.00  0.00    +0.000 C 
ATOM     18  C   UNL     1       0.664   9.903  20.662  0.00  0.00    +0.000 C 
ENDBRANCH   2  13
BRANCH   1  22
ATOM     19  C   UNL     1      -1.606  11.555  23.008  0.00  0.00    +0.000 C 
ATOM     20  C   UNL     1      -0.812  12.766  22.570  0.00  0.00    +0.000 C 
ATOM     21  O   UNL     1      -0.358  13.517  23.440  0.00  0.00    +0.000 OA
ATOM     22  N   UNL     1      -0.646  12.985  21.190  0.00  0.00    +0.000 N 
BRANCH  22  23
ATOM     23  C   UNL     1       0.488  13.783  20.775  0.00  0.00    +0.000 A 
ATOM     24  C   UNL     1       1.774  13.230  20.810  0.00  0.00    +0.000 A 
ATOM     25  C   UNL     1       2.874  13.881  20.247  0.00  0.00    +0.000 A 
ATOM     26  C   UNL     1       2.720  15.146  19.706  0.00  0.00    +0.000 A 
ATOM     27  C   UNL     1       1.473  15.764  19.752  0.00  0.00    +0.000 A 
ATOM     28  C   UNL     1       0.352  15.106  20.297  0.00  0.00    +0.000 A 
ATOM     29  C   UNL     1      -0.932  15.888  20.384  0.00  0.00    +0.000 C 
ENDBRANCH  22  23
ENDBRANCH   1  22
TORSDOF 3
ENDMDL
MODEL 8
REMARK VINA RESULT:      -6.7      0.734      1.725
REMARK  Name = 
REMARK  5 active torsions:
REMARK  status: ('A' for Active; 'I' for Inactive)
REMARK    1  A    between atoms: C_1  and  C_2
REMARK    2  A    between atoms: N_4  and  C_5
REMARK    3  A    between atoms: N_4  and  C_23
REMARK    4  A    between atoms: C_6  and  N_7
REMARK    5  A    between atoms: C_28  and  C_29
REMARK                            x       y       z     vdW  Elec       q    Type
REMARK                         _______ _______ _______ _____ _____    ______ ____
ROOT
ATOM      1  C   UNL     1      -1.218  11.606  19.417  0.00  0.00    +0.000 C 
ATOM      2  C   UNL     1      -2.344  12.199  19.894  0.00  0.00    +0.000 C 
ATOM      3  C   UNL     1      -3.631  11.999  19.098  0.00  0.00    +0.000 C 
ATOM      4  O   UNL     1      -4.737  12.283  19.556  0.00  0.00    +0.000 OA
ATOM      5  C   UNL     1      -3.571  11.422  17.747  0.00  0.00    +0.000 A 
ATOM      6  C   UNL     1      -4.715  11.414  16.932  0.00  0.00    +0.000 A 
ATOM      7  C   UNL     1      -4.675  10.823  15.667  0.00  0.00    +0.000 A 
ATOM      8  C   UNL     1      -3.500  10.230  15.211  0.00  0.00    +0.000 A 
ATOM      9  C   UNL     1      -2.366  10.234  16.021  0.00  0.00    +0.000 A 
ATOM     10  C   UNL     1      -2.405  10.836  17.290  0.00  0.00    +0.000 A 
ATOM     11  C   UNL     1      -1.213  10.822  18.131  0.00  0.00    +0.000 C 
ATOM     12  O   UNL     1      -0.235  10.170  17.778  0.00  0.00    +0.000 OA
ENDROOT
BRANCH   2  13
ATOM     13  N   UNL     1      -2.452  12.996  21.070  0.00  0.00    +0.000 N 
ATOM     14  C   UNL     1      -2.936  14.389  21.054  0.00  0.00    +0.000 C 
ATOM     15  C   UNL     1      -1.937  15.274  21.798  0.00  0.00    +0.000 C 
ATOM     16  C   UNL     1      -1.524  14.740  23.171  0.00  0.00    +0.000 C 
ATOM     17  C   UNL     1      -1.452  13.215  23.303  0.00  0.00    +0.000 C 
ATOM     18  C   UNL     1      -2.456  12.457  22.437  0.00  0.00    +0.000 C 
ENDBRANCH   2  13
BRANCH   1  22
ATOM     19  C   UNL     1      -0.218   9.371  20.941  0.00  0.00    +0.000 C 
ATOM     20  C   UNL     1       0.479  10.713  20.948  0.00  0.00    +0.000 C 
ATOM     21  O   UNL     1       1.387  10.900  21.764  0.00  0.00    +0.000 OA
ATOM     22  N   UNL     1       0.041  11.691  20.036  0.00  0.00    +0.000 N 
BRANCH  22  23
ATOM     23  C   UNL     1       0.980  12.731  19.674  0.00  0.00    +0.000 A 
ATOM     24  C   UNL     1       0.809  14.026  20.180  0.00  0.00    +0.000 A 
ATOM     25  C   UNL     1       1.780  15.016  20.020  0.00  0.00    +0.000 A 
ATOM     26  C   UNL     1       2.916  14.750  19.274  0.00  0.00    +0.000 A 
ATOM     27  C   UNL     1       3.063  13.504  18.671  0.00  0.00    +0.000 A 
ATOM     28  C   UNL     1       2.100  12.490  18.845  0.00  0.00    +0.000 A 
ATOM     29  C   UNL     1       2.302  11.208  18.082  0.00  0.00    +0.000 C 
ENDBRANCH  22  23
ENDBRANCH   1  22
TORSDOF 3
ENDMDL
MODEL 9
REMARK VINA RESULT:      -6.6      6.732      9.796
REMARK  Name = 
REMARK  5 active torsions:
REMARK  status: ('A' for Active; 'I' for Inactive)
REMARK    1  A    between atoms: C_1  and  C_2
REMARK    2  A    between atoms: N_4  and  C_5
REMARK    3  A    between atoms: N_4  and  C_23
REMARK    4  A    between atoms: C_6  and  N_7
REMARK    5  A    between atoms: C_28  and  C_29
REMARK                            x       y       z     vdW  Elec       q    Type
REMARK                         _______ _______ _______ _____ _____    ______ ____
ROOT
ATOM      1  C   UNL     1       7.235  14.707  20.366  0.00  0.00    +0.000 C 
ATOM      2  C   UNL     1       6.859  14.177  21.561  0.00  0.00    +0.000 C 
ATOM      3  C   UNL     1       5.367  14.169  21.883  0.00  0.00    +0.000 C 
ATOM      4  O   UNL     1       4.899  13.511  22.811  0.00  0.00    +0.000 OA
ATOM      5  C   UNL     1       4.436  14.947  21.052  0.00  0.00    +0.000 A 
ATOM      6  C   UNL     1       3.099  15.107  21.450  0.00  0.00    +0.000 A 
ATOM      7  C   UNL     1       2.200  15.803  20.639  0.00  0.00    +0.000 A 
ATOM      8  C   UNL     1       2.625  16.336  19.424  0.00  0.00    +0.000 A 
ATOM      9  C   UNL     1       3.951  16.174  19.026  0.00  0.00    +0.000 A 
ATOM     10  C   UNL     1       4.856  15.480  19.847  0.00  0.00    +0.000 A 
ATOM     11  C   UNL     1       6.238  15.309  19.411  0.00  0.00    +0.000 C 
ATOM     12  O   UNL     1       6.559  15.654  18.277  0.00  0.00    +0.000 OA
ENDROOT
BRANCH   2  13
ATOM     13  N   UNL     1       7.718  13.624  22.553  0.00  0.00    +0.000 N 
ATOM     14  C   UNL     1       8.050  12.189  22.616  0.00  0.00    +0.000 C 
ATOM     15  C   UNL     1       7.798  11.679  24.034  0.00  0.00    +0.000 C 
ATOM     16  C   UNL     1       8.416  12.544  25.134  0.00  0.00    +0.000 C 
ATOM     17  C   UNL     1       8.469  14.049  24.853  0.00  0.00    +0.000 C 
ATOM     18  C   UNL     1       8.642  14.412  23.379  0.00  0.00    +0.000 C 
ENDBRANCH   2  13
BRANCH   1  22
ATOM     19  C   UNL     1       8.712  17.165  20.679  0.00  0.00    +0.000 C 
ATOM     20  C   UNL     1       9.255  16.009  19.868  0.00  0.00    +0.000 C 
ATOM     21  O   UNL     1      10.266  16.194  19.183  0.00  0.00    +0.000 OA
ATOM     22  N   UNL     1       8.566  14.783  19.921  0.00  0.00    +0.000 N 
BRANCH  22  23
ATOM     23  C   UNL     1       9.313  13.585  19.602  0.00  0.00    +0.000 A 
ATOM     24  C   UNL     1      10.393  13.206  20.411  0.00  0.00    +0.000 A 
ATOM     25  C   UNL     1      11.027  11.971  20.265  0.00  0.00    +0.000 A 
ATOM     26  C   UNL     1      10.642  11.117  19.245  0.00  0.00    +0.000 A 
ATOM     27  C   UNL     1       9.643  11.514  18.360  0.00  0.00    +0.000 A 
ATOM     28  C   UNL     1       8.981  12.749  18.512  0.00  0.00    +0.000 A 
ATOM     29  C   UNL     1       7.978  13.129  17.456  0.00  0.00    +0.000 C 
ENDBRANCH  22  23
ENDBRANCH   1  22
TORSDOF 3
ENDMDL
