MODEL 1
REMARK VINA RESULT:      -7.4      0.000      0.000
REMARK  Name = 
REMARK  3 active torsions:
REMARK  status: ('A' for Active; 'I' for Inactive)
REMARK    1  A    between atoms: C_2  and  C_3
REMARK    2  A    between atoms: C_3  and  C_4
REMARK    3  A    between atoms: N_11  and  C_12
REMARK                            x       y       z     vdW  Elec       q    Type
REMARK                         _______ _______ _______ _____ _____    ______ ____
ROOT
ATOM      1  O   UNL     1       7.513   8.847  17.213  0.00  0.00    +0.000 OA
ATOM      2  C   UNL     1       8.102   8.260  18.116  0.00  0.00    +0.000 C 
ATOM      3  N   UNL     1       8.961   8.847  19.027  0.00  0.00    +0.000 N 
ATOM      4  H   UNL     1       9.456   8.200  19.645  0.00  0.00    +0.000 HD
ENDROOT
BRANCH   3   5
ATOM      5  C   UNL     1       9.309  10.203  19.130  0.00  0.00    +0.000 A 
ATOM      6  C   UNL     1       9.722  10.975  18.041  0.00  0.00    +0.000 A 
ATOM      7  C   UNL     1      10.063  12.318  18.218  0.00  0.00    +0.000 A 
ATOM      8  C   UNL     1      10.001  12.887  19.486  0.00  0.00    +0.000 A 
ATOM      9  F   UNL     1      10.354  14.171  19.636  0.00  0.00    +0.000 F 
ATOM     10  C   UNL     1       9.577  12.131  20.574  0.00  0.00    +0.000 A 
ATOM     11 CL   UNL     1       9.508  12.823  22.150  0.00  0.00    +0.000 Cl
ATOM     12  C   UNL     1       9.214  10.795  20.397  0.00  0.00    +0.000 A 
ENDBRANCH   3   5
BRANCH   2  13
ATOM     13  C   UNL     1       7.849   6.776  18.350  0.00  0.00    +0.000 C 
BRANCH  13  14
ATOM     14  C   UNL     1       6.788   6.128  17.452  0.00  0.00    +0.000 C 
ATOM     15  N   UNL     1       7.319   5.972  16.060  0.00  0.00    +0.000 NA
ATOM     16  C   UNL     1       6.332   5.255  15.234  0.00  0.00    +0.000 C 
ATOM     17  C   UNL     1       6.114   3.846  15.782  0.00  0.00    +0.000 C 
ATOM     18  N   UNL     1       5.796   3.853  17.194  0.00  0.00    +0.000 N 
ATOM     19  C   UNL     1       6.331   4.778  18.058  0.00  0.00    +0.000 C 
ATOM     20  O   UNL     1       6.341   4.538  19.263  0.00  0.00    +0.000 OA
ATOM     21  H   UNL     1       8.162   5.391  16.119  0.00  0.00    +0.000 HD
ATOM     22  H   UNL     1       5.537   2.981  17.641  0.00  0.00    +0.000 HD
ENDBRANCH  13  14
ENDBRANCH   2  13
TORSDOF 3
ENDMDL
MODEL 2
REMARK VINA RESULT:      -7.3      1.401      1.779
REMARK  Name = 
REMARK  3 active torsions:
REMARK  status: ('A' for Active; 'I' for Inactive)
REMARK    1  A    between atoms: C_2  and  C_3
REMARK    2  A    between atoms: C_3  and  C_4
REMARK    3  A    between atoms: N_11  and  C_12
REMARK                            x       y       z     vdW  Elec       q    Type
REMARK                         _______ _______ _______ _____ _____    ______ ____
ROOT
ATOM      1  O   UNL     1       7.539   9.227  17.527  0.00  0.00    +0.000 OA
ATOM      2  C   UNL     1       8.278   8.645  18.316  0.00  0.00    +0.000 C 
ATOM      3  N   UNL     1       9.228   9.250  19.119  0.00  0.00    +0.000 N 
ATOM      4  H   UNL     1       9.837   8.611  19.637  0.00  0.00    +0.000 HD
ENDROOT
BRANCH   3   5
ATOM      5  C   UNL     1       9.520  10.618  19.225  0.00  0.00    +0.000 A 
ATOM      6  C   UNL     1       9.254  11.373  20.370  0.00  0.00    +0.000 A 
ATOM      7  C   UNL     1       9.562  12.736  20.403  0.00  0.00    +0.000 A 
ATOM      8  C   UNL     1      10.127  13.345  19.287  0.00  0.00    +0.000 A 
ATOM      9  F   UNL     1      10.393  14.657  19.334  0.00  0.00    +0.000 F 
ATOM     10  C   UNL     1      10.408  12.599  18.148  0.00  0.00    +0.000 A 
ATOM     11 CL   UNL     1      11.097  13.346  16.757  0.00  0.00    +0.000 Cl
ATOM     12  C   UNL     1      10.122  11.233  18.120  0.00  0.00    +0.000 A 
ENDBRANCH   3   5
BRANCH   2  13
ATOM     13  C   UNL     1       8.134   7.143  18.526  0.00  0.00    +0.000 C 
BRANCH  13  14
ATOM     14  C   UNL     1       6.980   6.470  17.773  0.00  0.00    +0.000 C 
ATOM     15  N   UNL     1       7.382   6.198  16.355  0.00  0.00    +0.000 NA
ATOM     16  C   UNL     1       6.307   5.458  15.672  0.00  0.00    +0.000 C 
ATOM     17  C   UNL     1       6.099   4.099  16.339  0.00  0.00    +0.000 C 
ATOM     18  N   UNL     1       5.908   4.217  17.768  0.00  0.00    +0.000 N 
ATOM     19  C   UNL     1       6.542   5.182  18.513  0.00  0.00    +0.000 C 
ATOM     20  O   UNL     1       6.652   5.028  19.727  0.00  0.00    +0.000 OA
ATOM     21  H   UNL     1       8.211   5.594  16.383  0.00  0.00    +0.000 HD
ATOM     22  H   UNL     1       5.665   3.388  18.299  0.00  0.00    +0.000 HD
ENDBRANCH  13  14
ENDBRANCH   2  13
TORSDOF 3
ENDMDL
MODEL 3
REMARK VINA RESULT:      -7.3      5.948      7.530
REMARK  Name = 
REMARK  3 active torsions:
REMARK  status: ('A' for Active; 'I' for Inactive)
REMARK    1  A    between atoms: C_2  and  C_3
REMARK    2  A    between atoms: C_3  and  C_4
REMARK    3  A    between atoms: N_11  and  C_12
REMARK                            x       y       z     vdW  Elec       q    Type
REMARK                         _______ _______ _______ _____ _____    ______ ____
ROOT
ATOM      1  O   UNL     1       6.902   5.401  19.952  0.00  0.00    +0.000 OA
ATOM      2  C   UNL     1       6.796   4.672  18.970  0.00  0.00    +0.000 C 
ATOM      3  N   UNL     1       5.714   3.857  18.690  0.00  0.00    +0.000 N 
ATOM      4  H   UNL     1       5.832   3.229  17.891  0.00  0.00    +0.000 HD
ENDROOT
BRANCH   3   5
ATOM      5  C   UNL     1       4.530   3.716  19.428  0.00  0.00    +0.000 A 
ATOM      6  C   UNL     1       4.095   2.498  19.958  0.00  0.00    +0.000 A 
ATOM      7  C   UNL     1       2.898   2.429  20.676  0.00  0.00    +0.000 A 
ATOM      8  C   UNL     1       2.131   3.575  20.855  0.00  0.00    +0.000 A 
ATOM      9  F   UNL     1       0.976   3.480  21.527  0.00  0.00    +0.000 F 
ATOM     10  C   UNL     1       2.562   4.795  20.344  0.00  0.00    +0.000 A 
ATOM     11 CL   UNL     1       1.614   6.218  20.551  0.00  0.00    +0.000 Cl
ATOM     12  C   UNL     1       3.768   4.872  19.646  0.00  0.00    +0.000 A 
ENDBRANCH   3   5
BRANCH   2  13
ATOM     13  C   UNL     1       7.880   4.678  17.899  0.00  0.00    +0.000 C 
BRANCH  13  14
ATOM     14  C   UNL     1       7.392   4.841  16.455  0.00  0.00    +0.000 C 
ATOM     15  N   UNL     1       6.587   3.646  16.046  0.00  0.00    +0.000 NA
ATOM     16  C   UNL     1       6.037   3.861  14.696  0.00  0.00    +0.000 C 
ATOM     17  C   UNL     1       5.082   5.054  14.703  0.00  0.00    +0.000 C 
ATOM     18  N   UNL     1       5.688   6.234  15.280  0.00  0.00    +0.000 N 
ATOM     19  C   UNL     1       6.594   6.161  16.310  0.00  0.00    +0.000 C 
ATOM     20  O   UNL     1       6.797   7.155  17.003  0.00  0.00    +0.000 OA
ATOM     21  H   UNL     1       5.799   3.571  16.699  0.00  0.00    +0.000 HD
ATOM     22  H   UNL     1       5.179   7.110  15.248  0.00  0.00    +0.000 HD
ENDBRANCH  13  14
ENDBRANCH   2  13
TORSDOF 3
ENDMDL
MODEL 4
REMARK VINA RESULT:      -7.3      6.689      7.805
REMARK  Name = 
REMARK  3 active torsions:
REMARK  status: ('A' for Active; 'I' for Inactive)
REMARK    1  A    between atoms: C_2  and  C_3
REMARK    2  A    between atoms: C_3  and  C_4
REMARK    3  A    between atoms: N_11  and  C_12
REMARK                            x       y       z     vdW  Elec       q    Type
REMARK                         _______ _______ _______ _____ _____    ______ ____
ROOT
ATOM      1  O   UNL     1       5.692   6.340  17.356  0.00  0.00    +0.000 OA
ATOM      2  C   UNL     1       5.661   5.133  17.583  0.00  0.00    +0.000 C 
ATOM      3  N   UNL     1       5.952   4.138  16.667  0.00  0.00    +0.000 N 
ATOM      4  H   UNL     1       5.769   3.183  16.983  0.00  0.00    +0.000 HD
ENDROOT
BRANCH   3   5
ATOM      5  C   UNL     1       6.363   4.289  15.334  0.00  0.00    +0.000 A 
ATOM      6  C   UNL     1       7.456   5.071  14.952  0.00  0.00    +0.000 A 
ATOM      7  C   UNL     1       7.805   5.185  13.604  0.00  0.00    +0.000 A 
ATOM      8  C   UNL     1       7.054   4.526  12.637  0.00  0.00    +0.000 A 
ATOM      9  F   UNL     1       7.393   4.668  11.348  0.00  0.00    +0.000 F 
ATOM     10  C   UNL     1       5.972   3.734  13.008  0.00  0.00    +0.000 A 
ATOM     11 CL   UNL     1       5.029   2.922  11.817  0.00  0.00    +0.000 Cl
ATOM     12  C   UNL     1       5.635   3.600  14.356  0.00  0.00    +0.000 A 
ENDBRANCH   3   5
BRANCH   2  13
ATOM     13  C   UNL     1       5.355   4.632  18.988  0.00  0.00    +0.000 C 
BRANCH  13  14
ATOM     14  C   UNL     1       3.913   4.174  19.236  0.00  0.00    +0.000 C 
ATOM     15  N   UNL     1       3.060   4.493  18.046  0.00  0.00    +0.000 NA
ATOM     16  C   UNL     1       1.705   3.956  18.254  0.00  0.00    +0.000 C 
ATOM     17  C   UNL     1       1.755   2.432  18.362  0.00  0.00    +0.000 C 
ATOM     18  N   UNL     1       2.715   1.988  19.349  0.00  0.00    +0.000 N 
ATOM     19  C   UNL     1       3.887   2.665  19.585  0.00  0.00    +0.000 C 
ATOM     20  O   UNL     1       4.818   2.081  20.135  0.00  0.00    +0.000 OA
ATOM     21  H   UNL     1       3.470   4.011  17.239  0.00  0.00    +0.000 HD
ATOM     22  H   UNL     1       2.764   1.000  19.574  0.00  0.00    +0.000 HD
ENDBRANCH  13  14
ENDBRANCH   2  13
TORSDOF 3
ENDMDL
MODEL 5
REMARK VINA RESULT:      -7.1      5.878      6.569
REMARK  Name = 
REMARK  3 active torsions:
REMARK  status: ('A' for Active; 'I' for Inactive)
REMARK    1  A    between atoms: C_2  and  C_3
REMARK    2  A    between atoms: C_3  and  C_4
REMARK    3  A    between atoms: N_11  and  C_12
REMARK                            x       y       z     vdW  Elec       q    Type
REMARK                         _______ _______ _______ _____ _____    ______ ____
ROOT
ATOM      1  O   UNL     1       2.171   4.807  17.648  0.00  0.00    +0.000 OA
ATOM      2  C   UNL     1       3.136   5.068  18.363  0.00  0.00    +0.000 C 
ATOM      3  N   UNL     1       3.353   6.273  19.007  0.00  0.00    +0.000 N 
ATOM      4  H   UNL     1       4.259   6.366  19.472  0.00  0.00    +0.000 HD
ENDROOT
BRANCH   3   5
ATOM      5  C   UNL     1       2.528   7.408  19.008  0.00  0.00    +0.000 A 
ATOM      6  C   UNL     1       2.349   8.228  17.890  0.00  0.00    +0.000 A 
ATOM      7  C   UNL     1       1.519   9.350  17.964  0.00  0.00    +0.000 A 
ATOM      8  C   UNL     1       0.877   9.658  19.159  0.00  0.00    +0.000 A 
ATOM      9  F   UNL     1       0.105  10.751  19.214  0.00  0.00    +0.000 F 
ATOM     10  C   UNL     1       1.039   8.841  20.273  0.00  0.00    +0.000 A 
ATOM     11 CL   UNL     1       0.257   9.220  21.761  0.00  0.00    +0.000 Cl
ATOM     12  C   UNL     1       1.848   7.707  20.196  0.00  0.00    +0.000 A 
ENDBRANCH   3   5
BRANCH   2  13
ATOM     13  C   UNL     1       4.174   3.994  18.661  0.00  0.00    +0.000 C 
BRANCH  13  14
ATOM     14  C   UNL     1       5.250   3.787  17.590  0.00  0.00    +0.000 C 
ATOM     15  N   UNL     1       4.720   4.182  16.245  0.00  0.00    +0.000 NA
ATOM     16  C   UNL     1       5.794   4.079  15.243  0.00  0.00    +0.000 C 
ATOM     17  C   UNL     1       6.919   5.058  15.577  0.00  0.00    +0.000 C 
ATOM     18  N   UNL     1       7.380   4.914  16.941  0.00  0.00    +0.000 N 
ATOM     19  C   UNL     1       6.532   4.572  17.966  0.00  0.00    +0.000 C 
ATOM     20  O   UNL     1       6.861   4.817  19.124  0.00  0.00    +0.000 OA
ATOM     21  H   UNL     1       4.439   5.167  16.306  0.00  0.00    +0.000 HD
ATOM     22  H   UNL     1       8.189   5.446  17.243  0.00  0.00    +0.000 HD
ENDBRANCH  13  14
ENDBRANCH   2  13
TORSDOF 3
ENDMDL
MODEL 6
REMARK VINA RESULT:      -7.1      1.974      2.336
REMARK  Name = 
REMARK  3 active torsions:
REMARK  status: ('A' for Active; 'I' for Inactive)
REMARK    1  A    between atoms: C_2  and  C_3
REMARK    2  A    between atoms: C_3  and  C_4
REMARK    3  A    between atoms: N_11  and  C_12
REMARK                            x       y       z     vdW  Elec       q    Type
REMARK                         _______ _______ _______ _____ _____    ______ ____
ROOT
ATOM      1  O   UNL     1       8.606   7.354  18.967  0.00  0.00    +0.000 OA
ATOM      2  C   UNL     1       8.050   8.013  18.093  0.00  0.00    +0.000 C 
ATOM      3  N   UNL     1       8.233   9.366  17.871  0.00  0.00    +0.000 N 
ATOM      4  H   UNL     1       7.610   9.786  17.176  0.00  0.00    +0.000 HD
ENDROOT
BRANCH   3   5
ATOM      5  C   UNL     1       9.090  10.242  18.554  0.00  0.00    +0.000 A 
ATOM      6  C   UNL     1       9.072  10.406  19.942  0.00  0.00    +0.000 A 
ATOM      7  C   UNL     1       9.949  11.304  20.557  0.00  0.00    +0.000 A 
ATOM      8  C   UNL     1      10.836  12.045  19.783  0.00  0.00    +0.000 A 
ATOM      9  F   UNL     1      11.651  12.917  20.392  0.00  0.00    +0.000 F 
ATOM     10  C   UNL     1      10.870  11.879  18.402  0.00  0.00    +0.000 A 
ATOM     11 CL   UNL     1      11.957  12.800  17.434  0.00  0.00    +0.000 Cl
ATOM     12  C   UNL     1      10.012  10.966  17.788  0.00  0.00    +0.000 A 
ENDBRANCH   3   5
BRANCH   2  13
ATOM     13  C   UNL     1       7.128   7.326  17.094  0.00  0.00    +0.000 C 
BRANCH  13  14
ATOM     14  C   UNL     1       6.249   6.203  17.658  0.00  0.00    +0.000 C 
ATOM     15  N   UNL     1       4.815   6.440  17.293  0.00  0.00    +0.000 NA
ATOM     16  C   UNL     1       3.997   5.302  17.749  0.00  0.00    +0.000 C 
ATOM     17  C   UNL     1       4.428   4.025  17.030  0.00  0.00    +0.000 C 
ATOM     18  N   UNL     1       5.853   3.795  17.134  0.00  0.00    +0.000 N 
ATOM     19  C   UNL     1       6.759   4.828  17.159  0.00  0.00    +0.000 C 
ATOM     20  O   UNL     1       7.934   4.603  16.877  0.00  0.00    +0.000 OA
ATOM     21  H   UNL     1       4.763   6.475  16.269  0.00  0.00    +0.000 HD
ATOM     22  H   UNL     1       6.236   2.927  16.777  0.00  0.00    +0.000 HD
ENDBRANCH  13  14
ENDBRANCH   2  13
TORSDOF 3
ENDMDL
MODEL 7
REMARK VINA RESULT:      -7.1      6.792      7.882
REMARK  Name = 
REMARK  3 active torsions:
REMARK  status: ('A' for Active; 'I' for Inactive)
REMARK    1  A    between atoms: C_2  and  C_3
REMARK    2  A    between atoms: C_3  and  C_4
REMARK    3  A    between atoms: N_11  and  C_12
REMARK                            x       y       z     vdW  Elec       q    Type
REMARK                         _______ _______ _______ _____ _____    ______ ____
ROOT
ATOM      1  O   UNL     1       4.844   7.183  15.857  0.00  0.00    +0.000 OA
ATOM      2  C   UNL     1       4.907   6.144  16.509  0.00  0.00    +0.000 C 
ATOM      3  N   UNL     1       5.440   4.949  16.062  0.00  0.00    +0.000 N 
ATOM      4  H   UNL     1       5.314   4.150  16.688  0.00  0.00    +0.000 HD
ENDROOT
BRANCH   3   5
ATOM      5  C   UNL     1       6.035   4.684  14.819  0.00  0.00    +0.000 A 
ATOM      6  C   UNL     1       7.280   5.194  14.439  0.00  0.00    +0.000 A 
ATOM      7  C   UNL     1       7.809   4.897  13.181  0.00  0.00    +0.000 A 
ATOM      8  C   UNL     1       7.089   4.098  12.298  0.00  0.00    +0.000 A 
ATOM      9  F   UNL     1       7.606   3.845  11.088  0.00  0.00    +0.000 F 
ATOM     10  C   UNL     1       5.855   3.575  12.672  0.00  0.00    +0.000 A 
ATOM     11 CL   UNL     1       4.951   2.595  11.582  0.00  0.00    +0.000 Cl
ATOM     12  C   UNL     1       5.335   3.851  13.937  0.00  0.00    +0.000 A 
ENDBRANCH   3   5
BRANCH   2  13
ATOM     13  C   UNL     1       4.442   6.128  17.959  0.00  0.00    +0.000 C 
BRANCH  13  14
ATOM     14  C   UNL     1       3.784   4.829  18.437  0.00  0.00    +0.000 C 
ATOM     15  N   UNL     1       2.888   4.282  17.366  0.00  0.00    +0.000 NA
ATOM     16  C   UNL     1       2.345   2.982  17.796  0.00  0.00    +0.000 C 
ATOM     17  C   UNL     1       3.479   1.974  17.978  0.00  0.00    +0.000 C 
ATOM     18  N   UNL     1       4.526   2.480  18.839  0.00  0.00    +0.000 N 
ATOM     19  C   UNL     1       4.869   3.811  18.867  0.00  0.00    +0.000 C 
ATOM     20  O   UNL     1       5.968   4.138  19.308  0.00  0.00    +0.000 OA
ATOM     21  H   UNL     1       3.469   4.122  16.536  0.00  0.00    +0.000 HD
ATOM     22  H   UNL     1       5.281   1.860  19.107  0.00  0.00    +0.000 HD
ENDBRANCH  13  14
ENDBRANCH   2  13
TORSDOF 3
ENDMDL
MODEL 8
REMARK VINA RESULT:      -7.0      6.400      8.126
REMARK  Name = 
REMARK  3 active torsions:
REMARK  status: ('A' for Active; 'I' for Inactive)
REMARK    1  A    between atoms: C_2  and  C_3
REMARK    2  A    between atoms: C_3  and  C_4
REMARK    3  A    between atoms: N_11  and  C_12
REMARK                            x       y       z     vdW  Elec       q    Type
REMARK                         _______ _______ _______ _____ _____    ______ ____
ROOT
ATOM      1  O   UNL     1       5.884   5.367  19.694  0.00  0.00    +0.000 OA
ATOM      2  C   UNL     1       6.050   4.621  18.733  0.00  0.00    +0.000 C 
ATOM      3  N   UNL     1       5.099   3.763  18.210  0.00  0.00    +0.000 N 
ATOM      4  H   UNL     1       5.432   3.130  17.479  0.00  0.00    +0.000 HD
ENDROOT
BRANCH   3   5
ATOM      5  C   UNL     1       3.772   3.590  18.632  0.00  0.00    +0.000 A 
ATOM      6  C   UNL     1       2.666   3.908  17.838  0.00  0.00    +0.000 A 
ATOM      7  C   UNL     1       1.371   3.719  18.327  0.00  0.00    +0.000 A 
ATOM      8  C   UNL     1       1.181   3.222  19.612  0.00  0.00    +0.000 A 
ATOM      9  F   UNL     1      -0.070   3.071  20.068  0.00  0.00    +0.000 F 
ATOM     10  C   UNL     1       2.275   2.891  20.405  0.00  0.00    +0.000 A 
ATOM     11 CL   UNL     1       2.051   2.286  22.002  0.00  0.00    +0.000 Cl
ATOM     12  C   UNL     1       3.570   3.057  19.911  0.00  0.00    +0.000 A 
ENDBRANCH   3   5
BRANCH   2  13
ATOM     13  C   UNL     1       7.366   4.651  17.966  0.00  0.00    +0.000 C 
BRANCH  13  14
ATOM     14  C   UNL     1       7.251   4.807  16.445  0.00  0.00    +0.000 C 
ATOM     15  N   UNL     1       6.628   3.581  15.849  0.00  0.00    +0.000 NA
ATOM     16  C   UNL     1       6.427   3.784  14.404  0.00  0.00    +0.000 C 
ATOM     17  C   UNL     1       5.449   4.934  14.167  0.00  0.00    +0.000 C 
ATOM     18  N   UNL     1       5.837   6.135  14.875  0.00  0.00    +0.000 N 
ATOM     19  C   UNL     1       6.457   6.091  16.101  0.00  0.00    +0.000 C 
ATOM     20  O   UNL     1       6.434   7.087  16.820  0.00  0.00    +0.000 OA
ATOM     21  H   UNL     1       5.706   3.466  16.282  0.00  0.00    +0.000 HD
ATOM     22  H   UNL     1       5.314   6.988  14.715  0.00  0.00    +0.000 HD
ENDBRANCH  13  14
ENDBRANCH   2  13
TORSDOF 3
ENDMDL
MODEL 9
REMARK VINA RESULT:      -7.0      5.679      7.570
REMARK  Name = 
REMARK  3 active torsions:
REMARK  status: ('A' for Active; 'I' for Inactive)
REMARK    1  A    between atoms: C_2  and  C_3
REMARK    2  A    between atoms: C_3  and  C_4
REMARK    3  A    between atoms: N_11  and  C_12
REMARK                            x       y       z     vdW  Elec       q    Type
REMARK                         _______ _______ _______ _____ _____    ______ ____
ROOT
ATOM      1  O   UNL     1       7.269   5.206  20.333  0.00  0.00    +0.000 OA
ATOM      2  C   UNL     1       6.844   5.454  19.208  0.00  0.00    +0.000 C 
ATOM      3  N   UNL     1       5.632   5.026  18.697  0.00  0.00    +0.000 N 
ATOM      4  H   UNL     1       5.478   5.224  17.705  0.00  0.00    +0.000 HD
ENDROOT
BRANCH   3   5
ATOM      5  C   UNL     1       4.646   4.268  19.345  0.00  0.00    +0.000 A 
ATOM      6  C   UNL     1       4.807   2.919  19.675  0.00  0.00    +0.000 A 
ATOM      7  C   UNL     1       3.778   2.222  20.312  0.00  0.00    +0.000 A 
ATOM      8  C   UNL     1       2.583   2.869  20.610  0.00  0.00    +0.000 A 
ATOM      9  F   UNL     1       1.601   2.174  21.200  0.00  0.00    +0.000 F 
ATOM     10  C   UNL     1       2.418   4.215  20.297  0.00  0.00    +0.000 A 
ATOM     11 CL   UNL     1       0.938   5.023  20.651  0.00  0.00    +0.000 Cl
ATOM     12  C   UNL     1       3.453   4.920  19.681  0.00  0.00    +0.000 A 
ENDBRANCH   3   5
BRANCH   2  13
ATOM     13  C   UNL     1       7.638   6.363  18.279  0.00  0.00    +0.000 C 
BRANCH  13  14
ATOM     14  C   UNL     1       7.320   6.235  16.785  0.00  0.00    +0.000 C 
ATOM     15  N   UNL     1       7.533   4.822  16.333  0.00  0.00    +0.000 NA
ATOM     16  C   UNL     1       7.124   4.689  14.924  0.00  0.00    +0.000 C 
ATOM     17  C   UNL     1       5.630   4.977  14.781  0.00  0.00    +0.000 C 
ATOM     18  N   UNL     1       5.259   6.242  15.378  0.00  0.00    +0.000 N 
ATOM     19  C   UNL     1       5.879   6.728  16.504  0.00  0.00    +0.000 C 
ATOM     20  O   UNL     1       5.312   7.585  17.178  0.00  0.00    +0.000 OA
ATOM     21  H   UNL     1       6.917   4.227  16.897  0.00  0.00    +0.000 HD
ATOM     22  H   UNL     1       4.311   6.580  15.258  0.00  0.00    +0.000 HD
ENDBRANCH  13  14
ENDBRANCH   2  13
TORSDOF 3
ENDMDL
