MODEL 1
REMARK VINA RESULT:      -7.9      0.000      0.000
REMARK  Name = 
REMARK  9 active torsions:
REMARK  status: ('A' for Active; 'I' for Inactive)
REMARK    1  A    between atoms: C_1  and  C_2
REMARK    2  A    between atoms: C_5  and  C_6
REMARK    3  A    between atoms: C_7  and  O_8
REMARK    4  A    between atoms: O_8  and  C_9
REMARK    5  A    between atoms: C_9  and  C_10
REMARK    6  A    between atoms: C_12  and  C_13
REMARK    7  A    between atoms: N_15  and  C_16
REMARK    8  A    between atoms: N_15  and  C_17
REMARK    9  A    between atoms: C_17  and  C_18
REMARK                            x       y       z     vdW  Elec       q    Type
REMARK                         _______ _______ _______ _____ _____    ______ ____
ROOT
ATOM      1  C   UNL     1       8.023   8.377  18.052  0.00  0.00    +0.000 A 
ATOM      2  C   UNL     1       7.173   7.677  17.234  0.00  0.00    +0.000 A 
ATOM      3  C   UNL     1       7.180   6.346  17.739  0.00  0.00    +0.000 A 
ATOM      4  N   UNL     1       8.025   6.256  18.783  0.00  0.00    +0.000 NA
ATOM      5  O   UNL     1       8.525   7.530  18.990  0.00  0.00    +0.000 OA
ENDROOT
BRANCH   3   6
ATOM      6  C   UNL     1       6.469   5.210  17.134  0.00  0.00    +0.000 C 
ATOM      7  O   UNL     1       7.122   4.372  16.507  0.00  0.00    +0.000 OA
ATOM      8  N   UNL     1       5.078   5.076  17.245  0.00  0.00    +0.000 N 
ATOM      9  C   UNL     1       4.158   6.045  17.827  0.00  0.00    +0.000 C 
BRANCH   8  10
ATOM     10  C   UNL     1       4.462   3.881  16.660  0.00  0.00    +0.000 C 
BRANCH  10  11
ATOM     11  C   UNL     1       3.401   3.295  17.557  0.00  0.00    +0.000 A 
ATOM     12  N   UNL     1       2.104   3.363  17.327  0.00  0.00    +0.000 NA
ATOM     13  C   UNL     1       1.407   2.797  18.378  0.00  0.00    +0.000 A 
ATOM     14  C   UNL     1       2.181   2.292  19.403  0.00  0.00    +0.000 A 
ATOM     15  S   UNL     1       3.836   2.540  19.047  0.00  0.00    +0.000 S 
ENDBRANCH  10  11
ENDBRANCH   8  10
ENDBRANCH   3   6
BRANCH   1  16
ATOM     16  C   UNL     1       8.530   9.769  18.064  0.00  0.00    +0.000 C 
BRANCH  16  17
ATOM     17  O   UNL     1       9.656   9.808  18.942  0.00  0.00    +0.000 OA
BRANCH  17  24
ATOM     18  C   UNL     1       8.679  12.530  22.982  0.00  0.00    +0.000 C 
ATOM     19  C   UNL     1       9.374  12.334  21.667  0.00  0.00    +0.000 A 
ATOM     20  C   UNL     1      10.239  13.302  21.157  0.00  0.00    +0.000 A 
ATOM     21  C   UNL     1      10.880  13.099  19.935  0.00  0.00    +0.000 A 
ATOM     22  C   UNL     1      10.669  11.920  19.204  0.00  0.00    +0.000 A 
ATOM     23  C   UNL     1      11.378  11.726  17.891  0.00  0.00    +0.000 C 
ATOM     24  C   UNL     1       9.803  10.936  19.711  0.00  0.00    +0.000 A 
ATOM     25  C   UNL     1       9.160  11.155  20.938  0.00  0.00    +0.000 A 
ENDBRANCH  17  24
ENDBRANCH  16  17
ENDBRANCH   1  16
TORSDOF 6
ENDMDL
MODEL 2
REMARK VINA RESULT:      -7.5      1.311      1.352
REMARK  Name = 
REMARK  9 active torsions:
REMARK  status: ('A' for Active; 'I' for Inactive)
REMARK    1  A    between atoms: C_1  and  C_2
REMARK    2  A    between atoms: C_5  and  C_6
REMARK    3  A    between atoms: C_7  and  O_8
REMARK    4  A    between atoms: O_8  and  C_9
REMARK    5  A    between atoms: C_9  and  C_10
REMARK    6  A    between atoms: C_12  and  C_13
REMARK    7  A    between atoms: N_15  and  C_16
REMARK    8  A    between atoms: N_15  and  C_17
REMARK    9  A    between atoms: C_17  and  C_18
REMARK                            x       y       z     vdW  Elec       q    Type
REMARK                         _______ _______ _______ _____ _____    ______ ____
ROOT
ATOM      1  C   UNL     1       8.031   8.572  17.907  0.00  0.00    +0.000 A 
ATOM      2  C   UNL     1       8.072   7.397  18.615  0.00  0.00    +0.000 A 
ATOM      3  C   UNL     1       7.180   6.520  17.934  0.00  0.00    +0.000 A 
ATOM      4  N   UNL     1       6.610   7.160  16.897  0.00  0.00    +0.000 NA
ATOM      5  O   UNL     1       7.165   8.427  16.869  0.00  0.00    +0.000 OA
ENDROOT
BRANCH   3   6
ATOM      6  C   UNL     1       6.836   5.159  18.374  0.00  0.00    +0.000 C 
ATOM      7  O   UNL     1       7.661   4.259  18.205  0.00  0.00    +0.000 OA
ATOM      8  N   UNL     1       5.595   4.874  18.960  0.00  0.00    +0.000 N 
ATOM      9  C   UNL     1       4.470   5.790  19.098  0.00  0.00    +0.000 C 
BRANCH   8  10
ATOM     10  C   UNL     1       5.362   3.501  19.420  0.00  0.00    +0.000 C 
BRANCH  10  11
ATOM     11  C   UNL     1       4.023   2.974  18.971  0.00  0.00    +0.000 A 
ATOM     12  N   UNL     1       3.701   2.717  17.718  0.00  0.00    +0.000 NA
ATOM     13  C   UNL     1       2.379   2.322  17.641  0.00  0.00    +0.000 A 
ATOM     14  C   UNL     1       1.700   2.272  18.842  0.00  0.00    +0.000 A 
ATOM     15  S   UNL     1       2.747   2.743  20.110  0.00  0.00    +0.000 S 
ENDBRANCH  10  11
ENDBRANCH   8  10
ENDBRANCH   3   6
BRANCH   1  16
ATOM     16  C   UNL     1       8.647   9.907  18.088  0.00  0.00    +0.000 C 
BRANCH  16  17
ATOM     17  O   UNL     1       9.531   9.823  19.206  0.00  0.00    +0.000 OA
BRANCH  17  24
ATOM     18  C   UNL     1       8.612  12.817  23.064  0.00  0.00    +0.000 C 
ATOM     19  C   UNL     1       9.339  12.502  21.790  0.00  0.00    +0.000 A 
ATOM     20  C   UNL     1      10.291  13.377  21.267  0.00  0.00    +0.000 A 
ATOM     21  C   UNL     1      10.960  13.064  20.083  0.00  0.00    +0.000 A 
ATOM     22  C   UNL     1      10.688  11.868  19.404  0.00  0.00    +0.000 A 
ATOM     23  C   UNL     1      11.428  11.553  18.132  0.00  0.00    +0.000 C 
ATOM     24  C   UNL     1       9.733  10.977  19.924  0.00  0.00    +0.000 A 
ATOM     25  C   UNL     1       9.064  11.305  21.111  0.00  0.00    +0.000 A 
ENDBRANCH  17  24
ENDBRANCH  16  17
ENDBRANCH   1  16
TORSDOF 6
ENDMDL
MODEL 3
REMARK VINA RESULT:      -7.4      1.857      2.213
REMARK  Name = 
REMARK  9 active torsions:
REMARK  status: ('A' for Active; 'I' for Inactive)
REMARK    1  A    between atoms: C_1  and  C_2
REMARK    2  A    between atoms: C_5  and  C_6
REMARK    3  A    between atoms: C_7  and  O_8
REMARK    4  A    between atoms: O_8  and  C_9
REMARK    5  A    between atoms: C_9  and  C_10
REMARK    6  A    between atoms: C_12  and  C_13
REMARK    7  A    between atoms: N_15  and  C_16
REMARK    8  A    between atoms: N_15  and  C_17
REMARK    9  A    between atoms: C_17  and  C_18
REMARK                            x       y       z     vdW  Elec       q    Type
REMARK                         _______ _______ _______ _____ _____    ______ ____
ROOT
ATOM      1  C   UNL     1       8.315   8.513  18.332  0.00  0.00    +0.000 A 
ATOM      2  C   UNL     1       8.195   7.159  18.515  0.00  0.00    +0.000 A 
ATOM      3  C   UNL     1       7.319   6.718  17.483  0.00  0.00    +0.000 A 
ATOM      4  N   UNL     1       6.909   7.770  16.749  0.00  0.00    +0.000 NA
ATOM      5  O   UNL     1       7.556   8.880  17.265  0.00  0.00    +0.000 OA
ENDROOT
BRANCH   3   6
ATOM      6  C   UNL     1       6.831   5.340  17.321  0.00  0.00    +0.000 C 
ATOM      7  O   UNL     1       7.658   4.431  17.218  0.00  0.00    +0.000 OA
ATOM      8  N   UNL     1       5.461   5.052  17.268  0.00  0.00    +0.000 N 
ATOM      9  C   UNL     1       4.372   6.021  17.233  0.00  0.00    +0.000 C 
BRANCH   8  10
ATOM     10  C   UNL     1       5.066   3.644  17.163  0.00  0.00    +0.000 C 
BRANCH  10  11
ATOM     11  C   UNL     1       4.116   3.240  18.261  0.00  0.00    +0.000 A 
ATOM     12  N   UNL     1       4.432   3.176  19.540  0.00  0.00    +0.000 NA
ATOM     13  C   UNL     1       3.359   2.699  20.269  0.00  0.00    +0.000 A 
ATOM     14  C   UNL     1       2.224   2.408  19.539  0.00  0.00    +0.000 A 
ATOM     15  S   UNL     1       2.510   2.733  17.884  0.00  0.00    +0.000 S 
ENDBRANCH  10  11
ENDBRANCH   8  10
ENDBRANCH   3   6
BRANCH   1  16
ATOM     16  C   UNL     1       9.004   9.597  19.070  0.00  0.00    +0.000 C 
BRANCH  16  17
ATOM     17  O   UNL     1       9.682  10.407  18.109  0.00  0.00    +0.000 OA
BRANCH  17  24
ATOM     18  C   UNL     1       7.168  14.667  17.630  0.00  0.00    +0.000 C 
ATOM     19  C   UNL     1       8.389  13.902  18.048  0.00  0.00    +0.000 A 
ATOM     20  C   UNL     1       9.479  14.548  18.630  0.00  0.00    +0.000 A 
ATOM     21  C   UNL     1      10.604  13.818  19.018  0.00  0.00    +0.000 A 
ATOM     22  C   UNL     1      10.655  12.429  18.831  0.00  0.00    +0.000 A 
ATOM     23  C   UNL     1      11.878  11.668  19.263  0.00  0.00    +0.000 C 
ATOM     24  C   UNL     1       9.559  11.768  18.249  0.00  0.00    +0.000 A 
ATOM     25  C   UNL     1       8.437  12.512  17.860  0.00  0.00    +0.000 A 
ENDBRANCH  17  24
ENDBRANCH  16  17
ENDBRANCH   1  16
TORSDOF 6
ENDMDL
MODEL 4
REMARK VINA RESULT:      -7.4      5.711      8.275
REMARK  Name = 
REMARK  9 active torsions:
REMARK  status: ('A' for Active; 'I' for Inactive)
REMARK    1  A    between atoms: C_1  and  C_2
REMARK    2  A    between atoms: C_5  and  C_6
REMARK    3  A    between atoms: C_7  and  O_8
REMARK    4  A    between atoms: O_8  and  C_9
REMARK    5  A    between atoms: C_9  and  C_10
REMARK    6  A    between atoms: C_12  and  C_13
REMARK    7  A    between atoms: N_15  and  C_16
REMARK    8  A    between atoms: N_15  and  C_17
REMARK    9  A    between atoms: C_17  and  C_18
REMARK                            x       y       z     vdW  Elec       q    Type
REMARK                         _______ _______ _______ _____ _____    ______ ____
ROOT
ATOM      1  C   UNL     1       2.878   5.240  18.824  0.00  0.00    +0.000 A 
ATOM      2  C   UNL     1       2.673   6.332  18.020  0.00  0.00    +0.000 A 
ATOM      3  C   UNL     1       2.252   7.370  18.900  0.00  0.00    +0.000 A 
ATOM      4  N   UNL     1       2.175   6.900  20.159  0.00  0.00    +0.000 NA
ATOM      5  O   UNL     1       2.593   5.582  20.108  0.00  0.00    +0.000 OA
ENDROOT
BRANCH   3   6
ATOM      6  C   UNL     1       1.840   8.718  18.479  0.00  0.00    +0.000 C 
ATOM      7  O   UNL     1       2.222   9.135  17.384  0.00  0.00    +0.000 OA
ATOM      8  N   UNL     1       1.044   9.527  19.301  0.00  0.00    +0.000 N 
ATOM      9  C   UNL     1       0.633   9.235  20.669  0.00  0.00    +0.000 C 
BRANCH   8  10
ATOM     10  C   UNL     1       0.633  10.833  18.775  0.00  0.00    +0.000 C 
BRANCH  10  11
ATOM     11  C   UNL     1      -0.825  10.856  18.394  0.00  0.00    +0.000 A 
ATOM     12  N   UNL     1      -1.387  10.035  17.528  0.00  0.00    +0.000 NA
ATOM     13  C   UNL     1      -2.715  10.372  17.349  0.00  0.00    +0.000 A 
ATOM     14  C   UNL     1      -3.161  11.449  18.089  0.00  0.00    +0.000 A 
ATOM     15  S   UNL     1      -1.876  12.066  19.033  0.00  0.00    +0.000 S 
ENDBRANCH  10  11
ENDBRANCH   8  10
ENDBRANCH   3   6
BRANCH   1  16
ATOM     16  C   UNL     1       3.250   3.828  18.571  0.00  0.00    +0.000 C 
BRANCH  16  17
ATOM     17  O   UNL     1       4.671   3.735  18.674  0.00  0.00    +0.000 OA
BRANCH  17  24
ATOM     18  C   UNL     1       5.718   3.940  13.820  0.00  0.00    +0.000 C 
ATOM     19  C   UNL     1       5.978   4.354  15.239  0.00  0.00    +0.000 A 
ATOM     20  C   UNL     1       6.986   5.267  15.550  0.00  0.00    +0.000 A 
ATOM     21  C   UNL     1       7.208   5.644  16.875  0.00  0.00    +0.000 A 
ATOM     22  C   UNL     1       6.423   5.116  17.911  0.00  0.00    +0.000 A 
ATOM     23  C   UNL     1       6.682   5.544  19.329  0.00  0.00    +0.000 C 
ATOM     24  C   UNL     1       5.402   4.199  17.607  0.00  0.00    +0.000 A 
ATOM     25  C   UNL     1       5.191   3.824  16.273  0.00  0.00    +0.000 A 
ENDBRANCH  17  24
ENDBRANCH  16  17
ENDBRANCH   1  16
TORSDOF 6
ENDMDL
MODEL 5
REMARK VINA RESULT:      -7.3      8.356     10.871
REMARK  Name = 
REMARK  9 active torsions:
REMARK  status: ('A' for Active; 'I' for Inactive)
REMARK    1  A    between atoms: C_1  and  C_2
REMARK    2  A    between atoms: C_5  and  C_6
REMARK    3  A    between atoms: C_7  and  O_8
REMARK    4  A    between atoms: O_8  and  C_9
REMARK    5  A    between atoms: C_9  and  C_10
REMARK    6  A    between atoms: C_12  and  C_13
REMARK    7  A    between atoms: N_15  and  C_16
REMARK    8  A    between atoms: N_15  and  C_17
REMARK    9  A    between atoms: C_17  and  C_18
REMARK                            x       y       z     vdW  Elec       q    Type
REMARK                         _______ _______ _______ _____ _____    ______ ____
ROOT
ATOM      1  C   UNL     1       0.635   9.641  21.276  0.00  0.00    +0.000 A 
ATOM      2  C   UNL     1      -0.516  10.043  20.647  0.00  0.00    +0.000 A 
ATOM      3  C   UNL     1      -0.623  11.436  20.919  0.00  0.00    +0.000 A 
ATOM      4  N   UNL     1       0.396  11.830  21.705  0.00  0.00    +0.000 NA
ATOM      5  O   UNL     1       1.191  10.714  21.900  0.00  0.00    +0.000 OA
ENDROOT
BRANCH   3   6
ATOM      6  C   UNL     1      -1.747  12.292  20.510  0.00  0.00    +0.000 C 
ATOM      7  O   UNL     1      -1.744  12.765  19.371  0.00  0.00    +0.000 OA
ATOM      8  N   UNL     1      -2.799  12.585  21.389  0.00  0.00    +0.000 N 
ATOM      9  C   UNL     1      -2.878  12.222  22.798  0.00  0.00    +0.000 C 
BRANCH   8  10
ATOM     10  C   UNL     1      -3.906  13.399  20.876  0.00  0.00    +0.000 C 
BRANCH  10  11
ATOM     11  C   UNL     1      -5.082  12.554  20.457  0.00  0.00    +0.000 A 
ATOM     12  N   UNL     1      -6.014  12.107  21.276  0.00  0.00    +0.000 NA
ATOM     13  C   UNL     1      -6.902  11.302  20.588  0.00  0.00    +0.000 A 
ATOM     14  C   UNL     1      -6.645  11.146  19.241  0.00  0.00    +0.000 A 
ATOM     15  S   UNL     1      -5.241  12.028  18.821  0.00  0.00    +0.000 S 
ENDBRANCH  10  11
ENDBRANCH   8  10
ENDBRANCH   3   6
BRANCH   1  16
ATOM     16  C   UNL     1       1.306   8.333  21.462  0.00  0.00    +0.000 C 
BRANCH  16  17
ATOM     17  O   UNL     1       2.057   8.065  20.278  0.00  0.00    +0.000 OA
BRANCH  17  24
ATOM     18  C   UNL     1       1.225   3.205  20.894  0.00  0.00    +0.000 C 
ATOM     19  C   UNL     1       1.696   4.362  20.063  0.00  0.00    +0.000 A 
ATOM     20  C   UNL     1       2.172   4.171  18.766  0.00  0.00    +0.000 A 
ATOM     21  C   UNL     1       2.602   5.261  18.007  0.00  0.00    +0.000 A 
ATOM     22  C   UNL     1       2.559   6.560  18.533  0.00  0.00    +0.000 A 
ATOM     23  C   UNL     1       3.023   7.717  17.691  0.00  0.00    +0.000 C 
ATOM     24  C   UNL     1       2.077   6.763  19.838  0.00  0.00    +0.000 A 
ATOM     25  C   UNL     1       1.653   5.661  20.592  0.00  0.00    +0.000 A 
ENDBRANCH  17  24
ENDBRANCH  16  17
ENDBRANCH   1  16
TORSDOF 6
ENDMDL
MODEL 6
REMARK VINA RESULT:      -7.2      1.566      2.452
REMARK  Name = 
REMARK  9 active torsions:
REMARK  status: ('A' for Active; 'I' for Inactive)
REMARK    1  A    between atoms: C_1  and  C_2
REMARK    2  A    between atoms: C_5  and  C_6
REMARK    3  A    between atoms: C_7  and  O_8
REMARK    4  A    between atoms: O_8  and  C_9
REMARK    5  A    between atoms: C_9  and  C_10
REMARK    6  A    between atoms: C_12  and  C_13
REMARK    7  A    between atoms: N_15  and  C_16
REMARK    8  A    between atoms: N_15  and  C_17
REMARK    9  A    between atoms: C_17  and  C_18
REMARK                            x       y       z     vdW  Elec       q    Type
REMARK                         _______ _______ _______ _____ _____    ______ ____
ROOT
ATOM      1  C   UNL     1       7.884   8.357  17.665  0.00  0.00    +0.000 A 
ATOM      2  C   UNL     1       7.921   7.176  18.362  0.00  0.00    +0.000 A 
ATOM      3  C   UNL     1       6.796   6.435  17.901  0.00  0.00    +0.000 A 
ATOM      4  N   UNL     1       6.105   7.161  17.003  0.00  0.00    +0.000 NA
ATOM      5  O   UNL     1       6.803   8.345  16.840  0.00  0.00    +0.000 OA
ENDROOT
BRANCH   3   6
ATOM      6  C   UNL     1       6.379   5.124  18.421  0.00  0.00    +0.000 C 
ATOM      7  O   UNL     1       7.178   4.186  18.365  0.00  0.00    +0.000 OA
ATOM      8  N   UNL     1       5.100   4.926  18.958  0.00  0.00    +0.000 N 
ATOM      9  C   UNL     1       4.004   5.888  18.967  0.00  0.00    +0.000 C 
BRANCH   8  10
ATOM     10  C   UNL     1       4.791   3.601  19.507  0.00  0.00    +0.000 C 
BRANCH  10  11
ATOM     11  C   UNL     1       3.315   3.299  19.459  0.00  0.00    +0.000 A 
ATOM     12  N   UNL     1       2.486   3.446  20.474  0.00  0.00    +0.000 NA
ATOM     13  C   UNL     1       1.223   3.010  20.120  0.00  0.00    +0.000 A 
ATOM     14  C   UNL     1       1.095   2.538  18.829  0.00  0.00    +0.000 A 
ATOM     15  S   UNL     1       2.606   2.634  18.032  0.00  0.00    +0.000 S 
ENDBRANCH  10  11
ENDBRANCH   8  10
ENDBRANCH   3   6
BRANCH   1  16
ATOM     16  C   UNL     1       8.695   9.597  17.692  0.00  0.00    +0.000 C 
BRANCH  16  17
ATOM     17  O   UNL     1       8.930   9.925  19.061  0.00  0.00    +0.000 OA
BRANCH  17  24
ATOM     18  C   UNL     1      12.272  13.321  17.649  0.00  0.00    +0.000 C 
ATOM     19  C   UNL     1      11.391  12.700  18.693  0.00  0.00    +0.000 A 
ATOM     20  C   UNL     1      11.346  13.204  19.993  0.00  0.00    +0.000 A 
ATOM     21  C   UNL     1      10.517  12.616  20.948  0.00  0.00    +0.000 A 
ATOM     22  C   UNL     1       9.715  11.513  20.617  0.00  0.00    +0.000 A 
ATOM     23  C   UNL     1       8.826  10.902  21.666  0.00  0.00    +0.000 C 
ATOM     24  C   UNL     1       9.750  10.999  19.309  0.00  0.00    +0.000 A 
ATOM     25  C   UNL     1      10.591  11.596  18.360  0.00  0.00    +0.000 A 
ENDBRANCH  17  24
ENDBRANCH  16  17
ENDBRANCH   1  16
TORSDOF 6
ENDMDL
MODEL 7
REMARK VINA RESULT:      -7.1      1.186      2.327
REMARK  Name = 
REMARK  9 active torsions:
REMARK  status: ('A' for Active; 'I' for Inactive)
REMARK    1  A    between atoms: C_1  and  C_2
REMARK    2  A    between atoms: C_5  and  C_6
REMARK    3  A    between atoms: C_7  and  O_8
REMARK    4  A    between atoms: O_8  and  C_9
REMARK    5  A    between atoms: C_9  and  C_10
REMARK    6  A    between atoms: C_12  and  C_13
REMARK    7  A    between atoms: N_15  and  C_16
REMARK    8  A    between atoms: N_15  and  C_17
REMARK    9  A    between atoms: C_17  and  C_18
REMARK                            x       y       z     vdW  Elec       q    Type
REMARK                         _______ _______ _______ _____ _____    ______ ____
ROOT
ATOM      1  C   UNL     1       7.869   8.131  18.080  0.00  0.00    +0.000 A 
ATOM      2  C   UNL     1       6.858   7.378  17.537  0.00  0.00    +0.000 A 
ATOM      3  C   UNL     1       6.979   6.097  18.146  0.00  0.00    +0.000 A 
ATOM      4  N   UNL     1       8.036   6.082  18.978  0.00  0.00    +0.000 NA
ATOM      5  O   UNL     1       8.568   7.359  18.954  0.00  0.00    +0.000 OA
ENDROOT
BRANCH   3   6
ATOM      6  C   UNL     1       6.152   4.925  17.818  0.00  0.00    +0.000 C 
ATOM      7  O   UNL     1       6.204   3.941  18.559  0.00  0.00    +0.000 OA
ATOM      8  N   UNL     1       5.329   4.908  16.684  0.00  0.00    +0.000 N 
ATOM      9  C   UNL     1       5.264   5.926  15.643  0.00  0.00    +0.000 C 
BRANCH   8  10
ATOM     10  C   UNL     1       4.495   3.720  16.468  0.00  0.00    +0.000 C 
BRANCH  10  11
ATOM     11  C   UNL     1       3.398   3.606  17.495  0.00  0.00    +0.000 A 
ATOM     12  N   UNL     1       3.015   2.478  18.061  0.00  0.00    +0.000 NA
ATOM     13  C   UNL     1       1.938   2.709  18.896  0.00  0.00    +0.000 A 
ATOM     14  C   UNL     1       1.510   4.019  18.968  0.00  0.00    +0.000 A 
ATOM     15  S   UNL     1       2.479   4.995  17.951  0.00  0.00    +0.000 S 
ENDBRANCH  10  11
ENDBRANCH   8  10
ENDBRANCH   3   6
BRANCH   1  16
ATOM     16  C   UNL     1       8.364   9.509  17.854  0.00  0.00    +0.000 C 
BRANCH  16  17
ATOM     17  O   UNL     1       9.141   9.877  18.994  0.00  0.00    +0.000 OA
BRANCH  17  24
ATOM     18  C   UNL     1      11.784  13.319  16.572  0.00  0.00    +0.000 C 
ATOM     19  C   UNL     1      11.101  12.818  17.811  0.00  0.00    +0.000 A 
ATOM     20  C   UNL     1      11.088  13.574  18.983  0.00  0.00    +0.000 A 
ATOM     21  C   UNL     1      10.442  13.094  20.123  0.00  0.00    +0.000 A 
ATOM     22  C   UNL     1       9.797  11.848  20.108  0.00  0.00    +0.000 A 
ATOM     23  C   UNL     1       9.106  11.358  21.351  0.00  0.00    +0.000 C 
ATOM     24  C   UNL     1       9.802  11.080  18.931  0.00  0.00    +0.000 A 
ATOM     25  C   UNL     1      10.457  11.571  17.794  0.00  0.00    +0.000 A 
ENDBRANCH  17  24
ENDBRANCH  16  17
ENDBRANCH   1  16
TORSDOF 6
ENDMDL
MODEL 8
REMARK VINA RESULT:      -7.0      5.797      8.699
REMARK  Name = 
REMARK  9 active torsions:
REMARK  status: ('A' for Active; 'I' for Inactive)
REMARK    1  A    between atoms: C_1  and  C_2
REMARK    2  A    between atoms: C_5  and  C_6
REMARK    3  A    between atoms: C_7  and  O_8
REMARK    4  A    between atoms: O_8  and  C_9
REMARK    5  A    between atoms: C_9  and  C_10
REMARK    6  A    between atoms: C_12  and  C_13
REMARK    7  A    between atoms: N_15  and  C_16
REMARK    8  A    between atoms: N_15  and  C_17
REMARK    9  A    between atoms: C_17  and  C_18
REMARK                            x       y       z     vdW  Elec       q    Type
REMARK                         _______ _______ _______ _____ _____    ______ ____
ROOT
ATOM      1  C   UNL     1       1.706   8.880  18.763  0.00  0.00    +0.000 A 
ATOM      2  C   UNL     1       2.596   8.154  18.014  0.00  0.00    +0.000 A 
ATOM      3  C   UNL     1       2.909   7.014  18.807  0.00  0.00    +0.000 A 
ATOM      4  N   UNL     1       2.264   7.085  19.986  0.00  0.00    +0.000 NA
ATOM      5  O   UNL     1       1.495   8.234  19.941  0.00  0.00    +0.000 OA
ENDROOT
BRANCH   3   6
ATOM      6  C   UNL     1       3.889   5.978  18.446  0.00  0.00    +0.000 C 
ATOM      7  O   UNL     1       5.089   6.227  18.589  0.00  0.00    +0.000 OA
ATOM      8  N   UNL     1       3.485   4.737  17.937  0.00  0.00    +0.000 N 
ATOM      9  C   UNL     1       2.127   4.346  17.582  0.00  0.00    +0.000 C 
BRANCH   8  10
ATOM     10  C   UNL     1       4.529   3.744  17.660  0.00  0.00    +0.000 C 
BRANCH  10  11
ATOM     11  C   UNL     1       5.328   4.092  16.430  0.00  0.00    +0.000 A 
ATOM     12  N   UNL     1       4.858   4.064  15.198  0.00  0.00    +0.000 NA
ATOM     13  C   UNL     1       5.866   4.361  14.301  0.00  0.00    +0.000 A 
ATOM     14  C   UNL     1       7.102   4.622  14.857  0.00  0.00    +0.000 A 
ATOM     15  S   UNL     1       7.004   4.483  16.559  0.00  0.00    +0.000 S 
ENDBRANCH  10  11
ENDBRANCH   8  10
ENDBRANCH   3   6
BRANCH   1  16
ATOM     16  C   UNL     1       1.033  10.188  18.584  0.00  0.00    +0.000 C 
BRANCH  16  17
ATOM     17  O   UNL     1      -0.238  10.108  19.230  0.00  0.00    +0.000 OA
BRANCH  17  24
ATOM     18  C   UNL     1      -3.112   9.805  15.187  0.00  0.00    +0.000 C 
ATOM     19  C   UNL     1      -2.798  10.385  16.535  0.00  0.00    +0.000 A 
ATOM     20  C   UNL     1      -3.632  11.335  17.123  0.00  0.00    +0.000 A 
ATOM     21  C   UNL     1      -3.325  11.858  18.380  0.00  0.00    +0.000 A 
ATOM     22  C   UNL     1      -2.180  11.437  19.070  0.00  0.00    +0.000 A 
ATOM     23  C   UNL     1      -1.877  12.014  20.426  0.00  0.00    +0.000 C 
ATOM     24  C   UNL     1      -1.335  10.476  18.487  0.00  0.00    +0.000 A 
ATOM     25  C   UNL     1      -1.650   9.962  17.223  0.00  0.00    +0.000 A 
ENDBRANCH  17  24
ENDBRANCH  16  17
ENDBRANCH   1  16
TORSDOF 6
ENDMDL
MODEL 9
REMARK VINA RESULT:      -7.0      1.656      2.626
REMARK  Name = 
REMARK  9 active torsions:
REMARK  status: ('A' for Active; 'I' for Inactive)
REMARK    1  A    between atoms: C_1  and  C_2
REMARK    2  A    between atoms: C_5  and  C_6
REMARK    3  A    between atoms: C_7  and  O_8
REMARK    4  A    between atoms: O_8  and  C_9
REMARK    5  A    between atoms: C_9  and  C_10
REMARK    6  A    between atoms: C_12  and  C_13
REMARK    7  A    between atoms: N_15  and  C_16
REMARK    8  A    between atoms: N_15  and  C_17
REMARK    9  A    between atoms: C_17  and  C_18
REMARK                            x       y       z     vdW  Elec       q    Type
REMARK                         _______ _______ _______ _____ _____    ______ ____
ROOT
ATOM      1  C   UNL     1       7.678   8.004  17.615  0.00  0.00    +0.000 A 
ATOM      2  C   UNL     1       6.903   7.210  18.422  0.00  0.00    +0.000 A 
ATOM      3  C   UNL     1       6.830   5.955  17.754  0.00  0.00    +0.000 A 
ATOM      4  N   UNL     1       7.498   6.018  16.587  0.00  0.00    +0.000 NA
ATOM      5  O   UNL     1       8.047   7.286  16.520  0.00  0.00    +0.000 OA
ENDROOT
BRANCH   3   6
ATOM      6  C   UNL     1       6.037   4.802  18.207  0.00  0.00    +0.000 C 
ATOM      7  O   UNL     1       6.312   4.289  19.294  0.00  0.00    +0.000 OA
ATOM      8  N   UNL     1       4.999   4.278  17.425  0.00  0.00    +0.000 N 
ATOM      9  C   UNL     1       4.647   4.680  16.069  0.00  0.00    +0.000 C 
BRANCH   8  10
ATOM     10  C   UNL     1       4.224   3.165  17.983  0.00  0.00    +0.000 C 
BRANCH  10  11
ATOM     11  C   UNL     1       3.303   3.615  19.088  0.00  0.00    +0.000 A 
ATOM     12  N   UNL     1       3.248   3.068  20.287  0.00  0.00    +0.000 NA
ATOM     13  C   UNL     1       2.248   3.664  21.033  0.00  0.00    +0.000 A 
ATOM     14  C   UNL     1       1.550   4.670  20.397  0.00  0.00    +0.000 A 
ATOM     15  S   UNL     1       2.156   4.874  18.811  0.00  0.00    +0.000 S 
ENDBRANCH  10  11
ENDBRANCH   8  10
ENDBRANCH   3   6
BRANCH   1  16
ATOM     16  C   UNL     1       8.099   9.423  17.662  0.00  0.00    +0.000 C 
BRANCH  16  17
ATOM     17  O   UNL     1       9.001   9.567  18.759  0.00  0.00    +0.000 OA
BRANCH  17  24
ATOM     18  C   UNL     1      11.722  13.209  16.752  0.00  0.00    +0.000 C 
ATOM     19  C   UNL     1      11.037  12.576  17.928  0.00  0.00    +0.000 A 
ATOM     20  C   UNL     1      11.057  13.179  19.185  0.00  0.00    +0.000 A 
ATOM     21  C   UNL     1      10.410  12.578  20.265  0.00  0.00    +0.000 A 
ATOM     22  C   UNL     1       9.728  11.363  20.103  0.00  0.00    +0.000 A 
ATOM     23  C   UNL     1       9.034  10.740  21.283  0.00  0.00    +0.000 C 
ATOM     24  C   UNL     1       9.697  10.749  18.839  0.00  0.00    +0.000 A 
ATOM     25  C   UNL     1      10.356  11.360  17.763  0.00  0.00    +0.000 A 
ENDBRANCH  17  24
ENDBRANCH  16  17
ENDBRANCH   1  16
TORSDOF 6
ENDMDL
