MODEL 1
REMARK VINA RESULT:      -9.0      0.000      0.000
REMARK  Name = 
REMARK  6 active torsions:
REMARK  status: ('A' for Active; 'I' for Inactive)
REMARK    1  A    between atoms: C_2  and  C_9
REMARK    2  A    between atoms: N_3  and  C_4
REMARK    3  A    between atoms: C_4  and  C_5
REMARK    4  A    between atoms: C_13  and  N_14
REMARK    5  A    between atoms: C_22  and  O_23
REMARK    6  A    between atoms: O_23  and  C_24
REMARK                            x       y       z     vdW  Elec       q    Type
REMARK                         _______ _______ _______ _____ _____    ______ ____
ROOT
ATOM      1  N   UNL     1       2.647   7.734  18.112  0.00  0.00    +0.000 N 
ATOM      2  C   UNL     1       1.985   8.275  19.218  0.00  0.00    +0.000 A 
ATOM      3  N   UNL     1       1.856   7.601  20.355  0.00  0.00    +0.000 NA
ATOM      4  C   UNL     1       1.150   8.203  21.300  0.00  0.00    +0.000 A 
ATOM      5  N   UNL     1       0.560   9.382  21.190  0.00  0.00    +0.000 NA
ATOM      6  C   UNL     1       0.723   9.980  20.013  0.00  0.00    +0.000 A 
ATOM      7  N   UNL     1       0.064  11.197  19.781  0.00  0.00    +0.000 N 
ATOM      8  C   UNL     1      -1.144  11.595  20.438  0.00  0.00    +0.000 C 
ATOM      9  C   UNL     1      -1.738  11.976  19.075  0.00  0.00    +0.000 C 
ATOM     10  C   UNL     1      -0.366  11.623  18.483  0.00  0.00    +0.000 C 
ATOM     11  N   UNL     1       1.451   9.473  19.018  0.00  0.00    +0.000 NA
ATOM     12  H   UNL     1       2.523   8.358  17.327  0.00  0.00    +0.000 HD
ENDROOT
BRANCH   1  17
ATOM     13  C   UNL     1       4.454   4.724  16.848  0.00  0.00    +0.000 A 
ATOM     14  C   UNL     1       3.633   3.702  17.327  0.00  0.00    +0.000 A 
ATOM     15  C   UNL     1       2.480   4.026  18.040  0.00  0.00    +0.000 A 
ATOM     16  C   UNL     1       2.156   5.367  18.279  0.00  0.00    +0.000 A 
ATOM     17  C   UNL     1       2.976   6.405  17.814  0.00  0.00    +0.000 A 
ATOM     18  C   UNL     1       4.101   6.060  17.063  0.00  0.00    +0.000 A 
BRANCH  13  20
ATOM     19  O   UNL     1       6.758   4.249  16.674  0.00  0.00    +0.000 OA
ATOM     20  C   UNL     1       5.690   4.393  16.095  0.00  0.00    +0.000 C 
ATOM     21  N   UNL     1       5.547   4.287  14.729  0.00  0.00    +0.000 N 
ATOM     22  H   UNL     1       4.680   4.579  14.286  0.00  0.00    +0.000 HD
BRANCH  21  23
ATOM     23  C   UNL     1       6.671   3.919  13.871  0.00  0.00    +0.000 C 
BRANCH  23  24
ATOM     24  C   UNL     1       6.305   3.645  12.411  0.00  0.00    +0.000 C 
ATOM     25  F   UNL     1       4.962   3.527  12.255  0.00  0.00    +0.000 F 
ATOM     26  F   UNL     1       6.716   4.645  11.602  0.00  0.00    +0.000 F 
ATOM     27  F   UNL     1       6.864   2.498  11.967  0.00  0.00    +0.000 F 
ENDBRANCH  23  24
ENDBRANCH  21  23
ENDBRANCH  13  20
ENDBRANCH   1  17
BRANCH   9  28
ATOM     28  O   UNL     1      -2.870  11.176  18.646  0.00  0.00    +0.000 OA
BRANCH  28  29
ATOM     29  C   UNL     1      -4.101  11.782  18.577  0.00  0.00    +0.000 A 
ATOM     30  C   UNL     1      -4.734  11.748  17.330  0.00  0.00    +0.000 A 
ATOM     31  C   UNL     1      -5.994  12.327  17.170  0.00  0.00    +0.000 A 
ATOM     32  C   UNL     1      -6.615  12.924  18.259  0.00  0.00    +0.000 A 
ATOM     33  F   UNL     1      -7.823  13.482  18.109  0.00  0.00    +0.000 F 
ATOM     34  C   UNL     1      -6.003  12.946  19.507  0.00  0.00    +0.000 A 
ATOM     35  C   UNL     1      -4.741  12.369  19.669  0.00  0.00    +0.000 A 
ENDBRANCH  28  29
ENDBRANCH   9  28
TORSDOF 6
ENDMDL
MODEL 2
REMARK VINA RESULT:      -8.9      0.261      1.102
REMARK  Name = 
REMARK  6 active torsions:
REMARK  status: ('A' for Active; 'I' for Inactive)
REMARK    1  A    between atoms: C_2  and  C_9
REMARK    2  A    between atoms: N_3  and  C_4
REMARK    3  A    between atoms: C_4  and  C_5
REMARK    4  A    between atoms: C_13  and  N_14
REMARK    5  A    between atoms: C_22  and  O_23
REMARK    6  A    between atoms: O_23  and  C_24
REMARK                            x       y       z     vdW  Elec       q    Type
REMARK                         _______ _______ _______ _____ _____    ______ ____
ROOT
ATOM      1  N   UNL     1       2.614   7.713  18.121  0.00  0.00    +0.000 N 
ATOM      2  C   UNL     1       1.932   8.256  19.213  0.00  0.00    +0.000 A 
ATOM      3  N   UNL     1       1.801   7.594  20.356  0.00  0.00    +0.000 NA
ATOM      4  C   UNL     1       1.077   8.195  21.287  0.00  0.00    +0.000 A 
ATOM      5  N   UNL     1       0.470   9.363  21.158  0.00  0.00    +0.000 NA
ATOM      6  C   UNL     1       0.636   9.951  19.975  0.00  0.00    +0.000 A 
ATOM      7  N   UNL     1      -0.039  11.155  19.723  0.00  0.00    +0.000 N 
ATOM      8  C   UNL     1      -1.260  11.542  20.362  0.00  0.00    +0.000 C 
ATOM      9  C   UNL     1      -1.845  11.898  18.989  0.00  0.00    +0.000 C 
ATOM     10  C   UNL     1      -0.462  11.560  18.416  0.00  0.00    +0.000 C 
ATOM     11  N   UNL     1       1.382   9.443  18.994  0.00  0.00    +0.000 NA
ATOM     12  H   UNL     1       2.488   8.326  17.327  0.00  0.00    +0.000 HD
ENDROOT
BRANCH   1  17
ATOM     13  C   UNL     1       4.464   4.718  16.883  0.00  0.00    +0.000 A 
ATOM     14  C   UNL     1       3.672   3.688  17.392  0.00  0.00    +0.000 A 
ATOM     15  C   UNL     1       2.522   4.002  18.116  0.00  0.00    +0.000 A 
ATOM     16  C   UNL     1       2.174   5.340  18.336  0.00  0.00    +0.000 A 
ATOM     17  C   UNL     1       2.966   6.385  17.841  0.00  0.00    +0.000 A 
ATOM     18  C   UNL     1       4.087   6.050  17.080  0.00  0.00    +0.000 A 
BRANCH  13  20
ATOM     19  O   UNL     1       6.776   4.290  16.683  0.00  0.00    +0.000 OA
ATOM     20  C   UNL     1       5.696   4.399  16.119  0.00  0.00    +0.000 C 
ATOM     21  N   UNL     1       5.534   4.262  14.757  0.00  0.00    +0.000 N 
ATOM     22  H   UNL     1       4.655   4.525  14.322  0.00  0.00    +0.000 HD
BRANCH  21  23
ATOM     23  C   UNL     1       6.654   3.901  13.889  0.00  0.00    +0.000 C 
BRANCH  23  24
ATOM     24  C   UNL     1       6.272   3.585  12.442  0.00  0.00    +0.000 C 
ATOM     25  F   UNL     1       6.940   4.383  11.572  0.00  0.00    +0.000 F 
ATOM     26  F   UNL     1       6.567   2.306  12.121  0.00  0.00    +0.000 F 
ATOM     27  F   UNL     1       4.951   3.770  12.226  0.00  0.00    +0.000 F 
ENDBRANCH  23  24
ENDBRANCH  21  23
ENDBRANCH  13  20
ENDBRANCH   1  17
BRANCH   9  28
ATOM     28  O   UNL     1      -2.960  11.077  18.558  0.00  0.00    +0.000 OA
BRANCH  28  29
ATOM     29  C   UNL     1      -4.214  11.635  18.563  0.00  0.00    +0.000 A 
ATOM     30  C   UNL     1      -4.501  12.494  19.628  0.00  0.00    +0.000 A 
ATOM     31  C   UNL     1      -5.748  13.118  19.708  0.00  0.00    +0.000 A 
ATOM     32  C   UNL     1      -6.692  12.887  18.716  0.00  0.00    +0.000 A 
ATOM     33  F   UNL     1      -7.889  13.482  18.790  0.00  0.00    +0.000 F 
ATOM     34  C   UNL     1      -6.410  12.050  17.643  0.00  0.00    +0.000 A 
ATOM     35  C   UNL     1      -5.164  11.423  17.562  0.00  0.00    +0.000 A 
ENDBRANCH  28  29
ENDBRANCH   9  28
TORSDOF 6
ENDMDL
MODEL 3
REMARK VINA RESULT:      -8.9      1.680      2.130
REMARK  Name = 
REMARK  6 active torsions:
REMARK  status: ('A' for Active; 'I' for Inactive)
REMARK    1  A    between atoms: C_2  and  C_9
REMARK    2  A    between atoms: N_3  and  C_4
REMARK    3  A    between atoms: C_4  and  C_5
REMARK    4  A    between atoms: C_13  and  N_14
REMARK    5  A    between atoms: C_22  and  O_23
REMARK    6  A    between atoms: O_23  and  C_24
REMARK                            x       y       z     vdW  Elec       q    Type
REMARK                         _______ _______ _______ _____ _____    ______ ____
ROOT
ATOM      1  N   UNL     1       2.595   7.814  18.143  0.00  0.00    +0.000 N 
ATOM      2  C   UNL     1       1.970   8.339  19.278  0.00  0.00    +0.000 A 
ATOM      3  N   UNL     1       1.891   7.655  20.413  0.00  0.00    +0.000 NA
ATOM      4  C   UNL     1       1.216   8.241  21.389  0.00  0.00    +0.000 A 
ATOM      5  N   UNL     1       0.610   9.414  21.312  0.00  0.00    +0.000 NA
ATOM      6  C   UNL     1       0.722  10.025  20.135  0.00  0.00    +0.000 A 
ATOM      7  N   UNL     1       0.042  11.236  19.939  0.00  0.00    +0.000 N 
ATOM      8  C   UNL     1      -1.145  11.616  20.644  0.00  0.00    +0.000 C 
ATOM      9  C   UNL     1      -1.793  12.002  19.309  0.00  0.00    +0.000 C 
ATOM     10  C   UNL     1      -0.442  11.669  18.662  0.00  0.00    +0.000 C 
ATOM     11  N   UNL     1       1.416   9.533  19.109  0.00  0.00    +0.000 NA
ATOM     12  H   UNL     1       2.434   8.444  17.369  0.00  0.00    +0.000 HD
ENDROOT
BRANCH   1  17
ATOM     13  C   UNL     1       4.419   4.827  16.849  0.00  0.00    +0.000 A 
ATOM     14  C   UNL     1       3.584   3.798  17.284  0.00  0.00    +0.000 A 
ATOM     15  C   UNL     1       2.415   4.110  17.978  0.00  0.00    +0.000 A 
ATOM     16  C   UNL     1       2.091   5.447  18.241  0.00  0.00    +0.000 A 
ATOM     17  C   UNL     1       2.925   6.492  17.820  0.00  0.00    +0.000 A 
ATOM     18  C   UNL     1       4.066   6.159  17.088  0.00  0.00    +0.000 A 
BRANCH  13  20
ATOM     19  O   UNL     1       6.720   4.325  16.719  0.00  0.00    +0.000 OA
ATOM     20  C   UNL     1       5.671   4.509  16.117  0.00  0.00    +0.000 C 
ATOM     21  N   UNL     1       5.565   4.463  14.744  0.00  0.00    +0.000 N 
ATOM     22  H   UNL     1       4.715   4.786  14.290  0.00  0.00    +0.000 HD
BRANCH  21  23
ATOM     23  C   UNL     1       6.708   4.114  13.903  0.00  0.00    +0.000 C 
BRANCH  23  24
ATOM     24  C   UNL     1       6.350   3.666  12.485  0.00  0.00    +0.000 C 
ATOM     25  F   UNL     1       5.033   3.865  12.223  0.00  0.00    +0.000 F 
ATOM     26  F   UNL     1       7.051   4.354  11.557  0.00  0.00    +0.000 F 
ATOM     27  F   UNL     1       6.603   2.351  12.301  0.00  0.00    +0.000 F 
ENDBRANCH  23  24
ENDBRANCH  21  23
ENDBRANCH  13  20
ENDBRANCH   1  17
BRANCH   9  28
ATOM     28  O   UNL     1      -2.933  11.194  18.916  0.00  0.00    +0.000 OA
BRANCH  28  29
ATOM     29  C   UNL     1      -3.052  10.844  17.593  0.00  0.00    +0.000 A 
ATOM     30  C   UNL     1      -3.954  11.600  16.836  0.00  0.00    +0.000 A 
ATOM     31  C   UNL     1      -4.130  11.324  15.479  0.00  0.00    +0.000 A 
ATOM     32  C   UNL     1      -3.396  10.304  14.888  0.00  0.00    +0.000 A 
ATOM     33  F   UNL     1      -3.563  10.036  13.586  0.00  0.00    +0.000 F 
ATOM     34  C   UNL     1      -2.483   9.560  15.626  0.00  0.00    +0.000 A 
ATOM     35  C   UNL     1      -2.307   9.833  16.986  0.00  0.00    +0.000 A 
ENDBRANCH  28  29
ENDBRANCH   9  28
TORSDOF 6
ENDMDL
MODEL 4
REMARK VINA RESULT:      -8.6      2.176      2.741
REMARK  Name = 
REMARK  6 active torsions:
REMARK  status: ('A' for Active; 'I' for Inactive)
REMARK    1  A    between atoms: C_2  and  C_9
REMARK    2  A    between atoms: N_3  and  C_4
REMARK    3  A    between atoms: C_4  and  C_5
REMARK    4  A    between atoms: C_13  and  N_14
REMARK    5  A    between atoms: C_22  and  O_23
REMARK    6  A    between atoms: O_23  and  C_24
REMARK                            x       y       z     vdW  Elec       q    Type
REMARK                         _______ _______ _______ _____ _____    ______ ____
ROOT
ATOM      1  N   UNL     1       2.053   8.196  19.886  0.00  0.00    +0.000 N 
ATOM      2  C   UNL     1       1.361   8.960  20.830  0.00  0.00    +0.000 A 
ATOM      3  N   UNL     1       1.143   8.519  22.063  0.00  0.00    +0.000 NA
ATOM      4  C   UNL     1       0.419   9.313  22.836  0.00  0.00    +0.000 A 
ATOM      5  N   UNL     1      -0.111  10.470  22.473  0.00  0.00    +0.000 NA
ATOM      6  C   UNL     1       0.139  10.828  21.216  0.00  0.00    +0.000 A 
ATOM      7  N   UNL     1      -0.452  12.001  20.722  0.00  0.00    +0.000 N 
ATOM      8  C   UNL     1      -1.672  12.559  21.221  0.00  0.00    +0.000 C 
ATOM      9  C   UNL     1      -2.178  12.695  19.779  0.00  0.00    +0.000 C 
ATOM     10  C   UNL     1      -0.796  12.188  19.345  0.00  0.00    +0.000 C 
ATOM     11  N   UNL     1       0.892  10.116  20.379  0.00  0.00    +0.000 NA
ATOM     12  H   UNL     1       1.997   8.664  18.992  0.00  0.00    +0.000 HD
ENDROOT
BRANCH   1  17
ATOM     13  C   UNL     1       3.661   4.918  19.118  0.00  0.00    +0.000 A 
ATOM     14  C   UNL     1       2.916   4.060  19.929  0.00  0.00    +0.000 A 
ATOM     15  C   UNL     1       1.875   4.578  20.698  0.00  0.00    +0.000 A 
ATOM     16  C   UNL     1       1.588   5.948  20.662  0.00  0.00    +0.000 A 
ATOM     17  C   UNL     1       2.335   6.824  19.861  0.00  0.00    +0.000 A 
ATOM     18  C   UNL     1       3.344   6.278  19.065  0.00  0.00    +0.000 A 
BRANCH  13  20
ATOM     19  O   UNL     1       5.825   4.024  18.825  0.00  0.00    +0.000 OA
ATOM     20  C   UNL     1       4.780   4.382  18.301  0.00  0.00    +0.000 C 
ATOM     21  N   UNL     1       4.560   4.345  16.941  0.00  0.00    +0.000 N 
ATOM     22  H   UNL     1       3.745   4.806  16.547  0.00  0.00    +0.000 HD
BRANCH  21  23
ATOM     23  C   UNL     1       5.557   3.797  16.024  0.00  0.00    +0.000 C 
BRANCH  23  24
ATOM     24  C   UNL     1       5.876   4.681  14.817  0.00  0.00    +0.000 C 
ATOM     25  F   UNL     1       5.427   4.122  13.665  0.00  0.00    +0.000 F 
ATOM     26  F   UNL     1       5.294   5.895  14.927  0.00  0.00    +0.000 F 
ATOM     27  F   UNL     1       7.207   4.872  14.680  0.00  0.00    +0.000 F 
ENDBRANCH  23  24
ENDBRANCH  21  23
ENDBRANCH  13  20
ENDBRANCH   1  17
BRANCH   9  28
ATOM     28  O   UNL     1      -3.322  11.869  19.442  0.00  0.00    +0.000 OA
BRANCH  28  29
ATOM     29  C   UNL     1      -3.352  11.281  18.200  0.00  0.00    +0.000 A 
ATOM     30  C   UNL     1      -4.278  11.807  17.293  0.00  0.00    +0.000 A 
ATOM     31  C   UNL     1      -4.370  11.282  16.003  0.00  0.00    +0.000 A 
ATOM     32  C   UNL     1      -3.527  10.243  15.627  0.00  0.00    +0.000 A 
ATOM     33  F   UNL     1      -3.613   9.735  14.391  0.00  0.00    +0.000 F 
ATOM     34  C   UNL     1      -2.591   9.726  16.515  0.00  0.00    +0.000 A 
ATOM     35  C   UNL     1      -2.499  10.250  17.807  0.00  0.00    +0.000 A 
ENDBRANCH  28  29
ENDBRANCH   9  28
TORSDOF 6
ENDMDL
MODEL 5
REMARK VINA RESULT:      -8.5      2.112      2.655
REMARK  Name = 
REMARK  6 active torsions:
REMARK  status: ('A' for Active; 'I' for Inactive)
REMARK    1  A    between atoms: C_2  and  C_9
REMARK    2  A    between atoms: N_3  and  C_4
REMARK    3  A    between atoms: C_4  and  C_5
REMARK    4  A    between atoms: C_13  and  N_14
REMARK    5  A    between atoms: C_22  and  O_23
REMARK    6  A    between atoms: O_23  and  C_24
REMARK                            x       y       z     vdW  Elec       q    Type
REMARK                         _______ _______ _______ _____ _____    ______ ____
ROOT
ATOM      1  N   UNL     1       2.084   7.883  19.605  0.00  0.00    +0.000 N 
ATOM      2  C   UNL     1       1.521   8.733  20.561  0.00  0.00    +0.000 A 
ATOM      3  N   UNL     1       1.376   8.363  21.828  0.00  0.00    +0.000 NA
ATOM      4  C   UNL     1       0.768   9.238  22.614  0.00  0.00    +0.000 A 
ATOM      5  N   UNL     1       0.286  10.411  22.236  0.00  0.00    +0.000 NA
ATOM      6  C   UNL     1       0.456  10.695  20.947  0.00  0.00    +0.000 A 
ATOM      7  N   UNL     1      -0.096  11.883  20.442  0.00  0.00    +0.000 N 
ATOM      8  C   UNL     1      -1.235  12.543  21.005  0.00  0.00    +0.000 C 
ATOM      9  C   UNL     1      -1.845  12.648  19.602  0.00  0.00    +0.000 C 
ATOM     10  C   UNL     1      -0.537  12.031  19.088  0.00  0.00    +0.000 C 
ATOM     11  N   UNL     1       1.093   9.897  20.090  0.00  0.00    +0.000 NA
ATOM     12  H   UNL     1       1.987   8.313  18.696  0.00  0.00    +0.000 HD
ENDROOT
BRANCH   1  17
ATOM     13  C   UNL     1       3.258   4.449  18.737  0.00  0.00    +0.000 A 
ATOM     14  C   UNL     1       2.703   3.708  19.781  0.00  0.00    +0.000 A 
ATOM     15  C   UNL     1       1.927   4.353  20.743  0.00  0.00    +0.000 A 
ATOM     16  C   UNL     1       1.716   5.735  20.663  0.00  0.00    +0.000 A 
ATOM     17  C   UNL     1       2.276   6.495  19.627  0.00  0.00    +0.000 A 
ATOM     18  C   UNL     1       3.012   5.823  18.649  0.00  0.00    +0.000 A 
BRANCH  13  20
ATOM     19  O   UNL     1       3.903   2.606  17.412  0.00  0.00    +0.000 OA
ATOM     20  C   UNL     1       4.095   3.777  17.711  0.00  0.00    +0.000 C 
ATOM     21  N   UNL     1       5.091   4.549  17.155  0.00  0.00    +0.000 N 
ATOM     22  H   UNL     1       5.313   5.456  17.555  0.00  0.00    +0.000 HD
BRANCH  21  23
ATOM     23  C   UNL     1       5.958   4.029  16.099  0.00  0.00    +0.000 C 
BRANCH  23  24
ATOM     24  C   UNL     1       5.898   4.800  14.779  0.00  0.00    +0.000 C 
ATOM     25  F   UNL     1       5.308   4.063  13.804  0.00  0.00    +0.000 F 
ATOM     26  F   UNL     1       5.185   5.941  14.905  0.00  0.00    +0.000 F 
ATOM     27  F   UNL     1       7.133   5.132  14.341  0.00  0.00    +0.000 F 
ENDBRANCH  23  24
ENDBRANCH  21  23
ENDBRANCH  13  20
ENDBRANCH   1  17
BRANCH   9  28
ATOM     28  O   UNL     1      -3.063  11.887  19.396  0.00  0.00    +0.000 OA
BRANCH  28  29
ATOM     29  C   UNL     1      -3.323  11.414  18.133  0.00  0.00    +0.000 A 
ATOM     30  C   UNL     1      -2.494  10.384  17.678  0.00  0.00    +0.000 A 
ATOM     31  C   UNL     1      -2.693   9.832  16.412  0.00  0.00    +0.000 A 
ATOM     32  C   UNL     1      -3.728  10.306  15.615  0.00  0.00    +0.000 A 
ATOM     33  F   UNL     1      -3.922   9.780  14.399  0.00  0.00    +0.000 F 
ATOM     34  C   UNL     1      -4.570  11.316  16.065  0.00  0.00    +0.000 A 
ATOM     35  C   UNL     1      -4.371  11.871  17.332  0.00  0.00    +0.000 A 
ENDBRANCH  28  29
ENDBRANCH   9  28
TORSDOF 6
ENDMDL
MODEL 6
REMARK VINA RESULT:      -8.5      6.750      9.465
REMARK  Name = 
REMARK  6 active torsions:
REMARK  status: ('A' for Active; 'I' for Inactive)
REMARK    1  A    between atoms: C_2  and  C_9
REMARK    2  A    between atoms: N_3  and  C_4
REMARK    3  A    between atoms: C_4  and  C_5
REMARK    4  A    between atoms: C_13  and  N_14
REMARK    5  A    between atoms: C_22  and  O_23
REMARK    6  A    between atoms: O_23  and  C_24
REMARK                            x       y       z     vdW  Elec       q    Type
REMARK                         _______ _______ _______ _____ _____    ______ ____
ROOT
ATOM      1  N   UNL     1       4.313  14.146  17.852  0.00  0.00    +0.000 N 
ATOM      2  C   UNL     1       3.303  13.675  18.696  0.00  0.00    +0.000 A 
ATOM      3  N   UNL     1       3.091  14.203  19.895  0.00  0.00    +0.000 NA
ATOM      4  C   UNL     1       2.148  13.621  20.619  0.00  0.00    +0.000 A 
ATOM      5  N   UNL     1       1.437  12.566  20.255  0.00  0.00    +0.000 NA
ATOM      6  C   UNL     1       1.725  12.088  19.047  0.00  0.00    +0.000 A 
ATOM      7  N   UNL     1       1.076  10.921  18.613  0.00  0.00    +0.000 N 
ATOM      8  C   UNL     1       0.553   9.919  19.491  0.00  0.00    +0.000 C 
ATOM      9  C   UNL     1       1.248   8.843  18.646  0.00  0.00    +0.000 C 
ATOM     10  C   UNL     1       1.669   9.983  17.708  0.00  0.00    +0.000 C 
ATOM     11  N   UNL     1       2.627  12.633  18.231  0.00  0.00    +0.000 NA
ATOM     12  H   UNL     1       4.376  13.530  17.053  0.00  0.00    +0.000 HD
ENDROOT
BRANCH   1  17
ATOM     13  C   UNL     1       7.856  15.258  18.220  0.00  0.00    +0.000 A 
ATOM     14  C   UNL     1       7.677  16.578  18.637  0.00  0.00    +0.000 A 
ATOM     15  C   UNL     1       6.385  17.071  18.814  0.00  0.00    +0.000 A 
ATOM     16  C   UNL     1       5.279  16.250  18.566  0.00  0.00    +0.000 A 
ATOM     17  C   UNL     1       5.442  14.925  18.136  0.00  0.00    +0.000 A 
ATOM     18  C   UNL     1       6.744  14.437  18.009  0.00  0.00    +0.000 A 
BRANCH  13  20
ATOM     19  O   UNL     1      10.082  15.383  17.448  0.00  0.00    +0.000 OA
ATOM     20  C   UNL     1       9.226  14.721  18.018  0.00  0.00    +0.000 C 
ATOM     21  N   UNL     1       9.441  13.445  18.490  0.00  0.00    +0.000 N 
ATOM     22  H   UNL     1       8.657  12.880  18.803  0.00  0.00    +0.000 HD
BRANCH  21  23
ATOM     23  C   UNL     1      10.756  12.812  18.401  0.00  0.00    +0.000 C 
BRANCH  23  24
ATOM     24  C   UNL     1      10.978  11.648  19.369  0.00  0.00    +0.000 C 
ATOM     25  F   UNL     1      10.062  10.666  19.174  0.00  0.00    +0.000 F 
ATOM     26  F   UNL     1      12.199  11.095  19.205  0.00  0.00    +0.000 F 
ATOM     27  F   UNL     1      10.874  12.046  20.655  0.00  0.00    +0.000 F 
ENDBRANCH  23  24
ENDBRANCH  21  23
ENDBRANCH  13  20
ENDBRANCH   1  17
BRANCH   9  28
ATOM     28  O   UNL     1       2.306   8.113  19.318  0.00  0.00    +0.000 OA
BRANCH  28  29
ATOM     29  C   UNL     1       2.176   6.752  19.442  0.00  0.00    +0.000 A 
ATOM     30  C   UNL     1       2.446   6.001  18.293  0.00  0.00    +0.000 A 
ATOM     31  C   UNL     1       2.353   4.609  18.328  0.00  0.00    +0.000 A 
ATOM     32  C   UNL     1       2.001   3.978  19.515  0.00  0.00    +0.000 A 
ATOM     33  F   UNL     1       1.909   2.642  19.553  0.00  0.00    +0.000 F 
ATOM     34  C   UNL     1       1.749   4.713  20.667  0.00  0.00    +0.000 A 
ATOM     35  C   UNL     1       1.840   6.107  20.633  0.00  0.00    +0.000 A 
ENDBRANCH  28  29
ENDBRANCH   9  28
TORSDOF 6
ENDMDL
MODEL 7
REMARK VINA RESULT:      -8.4      1.530      1.901
REMARK  Name = 
REMARK  6 active torsions:
REMARK  status: ('A' for Active; 'I' for Inactive)
REMARK    1  A    between atoms: C_2  and  C_9
REMARK    2  A    between atoms: N_3  and  C_4
REMARK    3  A    between atoms: C_4  and  C_5
REMARK    4  A    between atoms: C_13  and  N_14
REMARK    5  A    between atoms: C_22  and  O_23
REMARK    6  A    between atoms: O_23  and  C_24
REMARK                            x       y       z     vdW  Elec       q    Type
REMARK                         _______ _______ _______ _____ _____    ______ ____
ROOT
ATOM      1  N   UNL     1       2.100   8.012  19.374  0.00  0.00    +0.000 N 
ATOM      2  C   UNL     1       1.529   8.827  20.356  0.00  0.00    +0.000 A 
ATOM      3  N   UNL     1       1.498   8.466  21.633  0.00  0.00    +0.000 NA
ATOM      4  C   UNL     1       0.870   9.299  22.448  0.00  0.00    +0.000 A 
ATOM      5  N   UNL     1       0.267  10.421  22.091  0.00  0.00    +0.000 NA
ATOM      6  C   UNL     1       0.328  10.698  20.791  0.00  0.00    +0.000 A 
ATOM      7  N   UNL     1      -0.354  11.827  20.312  0.00  0.00    +0.000 N 
ATOM      8  C   UNL     1      -1.506  12.398  20.942  0.00  0.00    +0.000 C 
ATOM      9  C   UNL     1      -2.212  12.430  19.580  0.00  0.00    +0.000 C 
ATOM     10  C   UNL     1      -0.892  11.917  18.988  0.00  0.00    +0.000 C 
ATOM     11  N   UNL     1       0.974   9.944  19.902  0.00  0.00    +0.000 NA
ATOM     12  H   UNL     1       1.908   8.419  18.469  0.00  0.00    +0.000 HD
ENDROOT
BRANCH   1  17
ATOM     13  C   UNL     1       3.813   4.752  18.777  0.00  0.00    +0.000 A 
ATOM     14  C   UNL     1       3.038   3.897  19.562  0.00  0.00    +0.000 A 
ATOM     15  C   UNL     1       1.943   4.410  20.257  0.00  0.00    +0.000 A 
ATOM     16  C   UNL     1       1.634   5.773  20.173  0.00  0.00    +0.000 A 
ATOM     17  C   UNL     1       2.410   6.646  19.398  0.00  0.00    +0.000 A 
ATOM     18  C   UNL     1       3.473   6.104  18.674  0.00  0.00    +0.000 A 
BRANCH  13  20
ATOM     19  O   UNL     1       6.047   4.011  18.612  0.00  0.00    +0.000 OA
ATOM     20  C   UNL     1       4.987   4.221  18.039  0.00  0.00    +0.000 C 
ATOM     21  N   UNL     1       4.799   4.013  16.690  0.00  0.00    +0.000 N 
ATOM     22  H   UNL     1       3.959   4.359  16.236  0.00  0.00    +0.000 HD
BRANCH  21  23
ATOM     23  C   UNL     1       5.856   3.449  15.852  0.00  0.00    +0.000 C 
BRANCH  23  24
ATOM     24  C   UNL     1       6.414   4.401  14.792  0.00  0.00    +0.000 C 
ATOM     25  F   UNL     1       5.585   5.457  14.594  0.00  0.00    +0.000 F 
ATOM     26  F   UNL     1       7.616   4.897  15.157  0.00  0.00    +0.000 F 
ATOM     27  F   UNL     1       6.567   3.782  13.601  0.00  0.00    +0.000 F 
ENDBRANCH  23  24
ENDBRANCH  21  23
ENDBRANCH  13  20
ENDBRANCH   1  17
BRANCH   9  28
ATOM     28  O   UNL     1      -3.371  11.566  19.462  0.00  0.00    +0.000 OA
BRANCH  28  29
ATOM     29  C   UNL     1      -4.501  12.077  18.870  0.00  0.00    +0.000 A 
ATOM     30  C   UNL     1      -5.280  12.926  19.663  0.00  0.00    +0.000 A 
ATOM     31  C   UNL     1      -6.440  13.502  19.140  0.00  0.00    +0.000 A 
ATOM     32  C   UNL     1      -6.803  13.234  17.826  0.00  0.00    +0.000 A 
ATOM     33  F   UNL     1      -7.915  13.783  17.322  0.00  0.00    +0.000 F 
ATOM     34  C   UNL     1      -6.026  12.407  17.025  0.00  0.00    +0.000 A 
ATOM     35  C   UNL     1      -4.866  11.827  17.547  0.00  0.00    +0.000 A 
ENDBRANCH  28  29
ENDBRANCH   9  28
TORSDOF 6
ENDMDL
MODEL 8
REMARK VINA RESULT:      -8.3      2.439      3.057
REMARK  Name = 
REMARK  6 active torsions:
REMARK  status: ('A' for Active; 'I' for Inactive)
REMARK    1  A    between atoms: C_2  and  C_9
REMARK    2  A    between atoms: N_3  and  C_4
REMARK    3  A    between atoms: C_4  and  C_5
REMARK    4  A    between atoms: C_13  and  N_14
REMARK    5  A    between atoms: C_22  and  O_23
REMARK    6  A    between atoms: O_23  and  C_24
REMARK                            x       y       z     vdW  Elec       q    Type
REMARK                         _______ _______ _______ _____ _____    ______ ____
ROOT
ATOM      1  N   UNL     1       1.950   8.219  19.917  0.00  0.00    +0.000 N 
ATOM      2  C   UNL     1       1.284   8.988  20.876  0.00  0.00    +0.000 A 
ATOM      3  N   UNL     1       1.055   8.532  22.101  0.00  0.00    +0.000 NA
ATOM      4  C   UNL     1       0.357   9.335  22.890  0.00  0.00    +0.000 A 
ATOM      5  N   UNL     1      -0.135  10.515  22.549  0.00  0.00    +0.000 NA
ATOM      6  C   UNL     1       0.124  10.887  21.297  0.00  0.00    +0.000 A 
ATOM      7  N   UNL     1      -0.429  12.088  20.826  0.00  0.00    +0.000 N 
ATOM      8  C   UNL     1      -1.630  12.675  21.337  0.00  0.00    +0.000 C 
ATOM      9  C   UNL     1      -2.133  12.854  19.899  0.00  0.00    +0.000 C 
ATOM     10  C   UNL     1      -0.769  12.311  19.453  0.00  0.00    +0.000 C 
ATOM     11  N   UNL     1       0.853  10.166  20.446  0.00  0.00    +0.000 NA
ATOM     12  H   UNL     1       1.908   8.704  19.031  0.00  0.00    +0.000 HD
ENDROOT
BRANCH   1  17
ATOM     13  C   UNL     1       3.324   4.888  18.947  0.00  0.00    +0.000 A 
ATOM     14  C   UNL     1       2.697   4.061  19.881  0.00  0.00    +0.000 A 
ATOM     15  C   UNL     1       1.809   4.617  20.801  0.00  0.00    +0.000 A 
ATOM     16  C   UNL     1       1.558   5.994  20.791  0.00  0.00    +0.000 A 
ATOM     17  C   UNL     1       2.188   6.839  19.867  0.00  0.00    +0.000 A 
ATOM     18  C   UNL     1       3.038   6.256  18.926  0.00  0.00    +0.000 A 
BRANCH  13  20
ATOM     19  O   UNL     1       4.830   3.241  18.182  0.00  0.00    +0.000 OA
ATOM     20  C   UNL     1       4.280   4.312  17.968  0.00  0.00    +0.000 C 
ATOM     21  N   UNL     1       4.509   5.071  16.841  0.00  0.00    +0.000 N 
ATOM     22  H   UNL     1       4.158   6.024  16.791  0.00  0.00    +0.000 HD
BRANCH  21  23
ATOM     23  C   UNL     1       5.390   4.602  15.773  0.00  0.00    +0.000 C 
BRANCH  23  24
ATOM     24  C   UNL     1       6.857   5.008  15.924  0.00  0.00    +0.000 C 
ATOM     25  F   UNL     1       6.973   6.233  16.496  0.00  0.00    +0.000 F 
ATOM     26  F   UNL     1       7.533   4.135  16.703  0.00  0.00    +0.000 F 
ATOM     27  F   UNL     1       7.482   5.062  14.727  0.00  0.00    +0.000 F 
ENDBRANCH  23  24
ENDBRANCH  21  23
ENDBRANCH  13  20
ENDBRANCH   1  17
BRANCH   9  28
ATOM     28  O   UNL     1      -3.304  12.071  19.549  0.00  0.00    +0.000 OA
BRANCH  28  29
ATOM     29  C   UNL     1      -3.340  11.479  18.310  0.00  0.00    +0.000 A 
ATOM     30  C   UNL     1      -2.398  10.470  18.083  0.00  0.00    +0.000 A 
ATOM     31  C   UNL     1      -2.369   9.803  16.856  0.00  0.00    +0.000 A 
ATOM     32  C   UNL     1      -3.289  10.143  15.873  0.00  0.00    +0.000 A 
ATOM     33  F   UNL     1      -3.264   9.507  14.694  0.00  0.00    +0.000 F 
ATOM     34  C   UNL     1      -4.241  11.131  16.095  0.00  0.00    +0.000 A 
ATOM     35  C   UNL     1      -4.270  11.801  17.321  0.00  0.00    +0.000 A 
ENDBRANCH  28  29
ENDBRANCH   9  28
TORSDOF 6
ENDMDL
MODEL 9
REMARK VINA RESULT:      -8.2      1.891      2.378
REMARK  Name = 
REMARK  6 active torsions:
REMARK  status: ('A' for Active; 'I' for Inactive)
REMARK    1  A    between atoms: C_2  and  C_9
REMARK    2  A    between atoms: N_3  and  C_4
REMARK    3  A    between atoms: C_4  and  C_5
REMARK    4  A    between atoms: C_13  and  N_14
REMARK    5  A    between atoms: C_22  and  O_23
REMARK    6  A    between atoms: O_23  and  C_24
REMARK                            x       y       z     vdW  Elec       q    Type
REMARK                         _______ _______ _______ _____ _____    ______ ____
ROOT
ATOM      1  N   UNL     1       2.207   8.587  18.742  0.00  0.00    +0.000 N 
ATOM      2  C   UNL     1       1.493   9.042  19.854  0.00  0.00    +0.000 A 
ATOM      3  N   UNL     1       1.368   8.309  20.954  0.00  0.00    +0.000 NA
ATOM      4  C   UNL     1       0.612   8.830  21.907  0.00  0.00    +0.000 A 
ATOM      5  N   UNL     1      -0.030   9.985  21.838  0.00  0.00    +0.000 NA
ATOM      6  C   UNL     1       0.133  10.647  20.695  0.00  0.00    +0.000 A 
ATOM      7  N   UNL     1      -0.578  11.842  20.504  0.00  0.00    +0.000 N 
ATOM      8  C   UNL     1      -1.819  12.151  21.146  0.00  0.00    +0.000 C 
ATOM      9  C   UNL     1      -2.396  12.570  19.788  0.00  0.00    +0.000 C 
ATOM     10  C   UNL     1      -0.996  12.310  19.217  0.00  0.00    +0.000 C 
ATOM     11  N   UNL     1       0.908  10.223  19.697  0.00  0.00    +0.000 NA
ATOM     12  H   UNL     1       2.072   9.242  17.984  0.00  0.00    +0.000 HD
ENDROOT
BRANCH   1  17
ATOM     13  C   UNL     1       4.080   5.741  17.220  0.00  0.00    +0.000 A 
ATOM     14  C   UNL     1       3.421   4.653  17.793  0.00  0.00    +0.000 A 
ATOM     15  C   UNL     1       2.348   4.879  18.655  0.00  0.00    +0.000 A 
ATOM     16  C   UNL     1       1.946   6.187  18.948  0.00  0.00    +0.000 A 
ATOM     17  C   UNL     1       2.605   7.291  18.389  0.00  0.00    +0.000 A 
ATOM     18  C   UNL     1       3.647   7.042  17.493  0.00  0.00    +0.000 A 
BRANCH  13  20
ATOM     19  O   UNL     1       5.944   6.445  15.956  0.00  0.00    +0.000 OA
ATOM     20  C   UNL     1       5.230   5.517  16.307  0.00  0.00    +0.000 C 
ATOM     21  N   UNL     1       5.408   4.218  15.881  0.00  0.00    +0.000 N 
ATOM     22  H   UNL     1       4.693   3.521  16.066  0.00  0.00    +0.000 HD
BRANCH  21  23
ATOM     23  C   UNL     1       6.529   3.847  15.019  0.00  0.00    +0.000 C 
BRANCH  23  24
ATOM     24  C   UNL     1       6.259   3.981  13.519  0.00  0.00    +0.000 C 
ATOM     25  F   UNL     1       6.577   2.839  12.858  0.00  0.00    +0.000 F 
ATOM     26  F   UNL     1       4.956   4.238  13.272  0.00  0.00    +0.000 F 
ATOM     27  F   UNL     1       6.988   4.979  12.972  0.00  0.00    +0.000 F 
ENDBRANCH  23  24
ENDBRANCH  21  23
ENDBRANCH  13  20
ENDBRANCH   1  17
BRANCH   9  28
ATOM     28  O   UNL     1      -3.478  11.741  19.291  0.00  0.00    +0.000 OA
BRANCH  28  29
ATOM     29  C   UNL     1      -3.335  11.165  18.053  0.00  0.00    +0.000 A 
ATOM     30  C   UNL     1      -4.159  11.669  17.041  0.00  0.00    +0.000 A 
ATOM     31  C   UNL     1      -4.073  11.153  15.746  0.00  0.00    +0.000 A 
ATOM     32  C   UNL     1      -3.156  10.145  15.472  0.00  0.00    +0.000 A 
ATOM     33  F   UNL     1      -3.072   9.646  14.232  0.00  0.00    +0.000 F 
ATOM     34  C   UNL     1      -2.320   9.650  16.466  0.00  0.00    +0.000 A 
ATOM     35  C   UNL     1      -2.406  10.165  17.763  0.00  0.00    +0.000 A 
ENDBRANCH  28  29
ENDBRANCH   9  28
TORSDOF 6
ENDMDL
