MODEL 1
REMARK VINA RESULT:      -7.7      0.000      0.000
REMARK  Name = 
REMARK  5 active torsions:
REMARK  status: ('A' for Active; 'I' for Inactive)
REMARK    1  A    between atoms: C_1  and  S_2
REMARK    2  A    between atoms: S_2  and  C_4
REMARK    3  A    between atoms: C_6  and  C_7
REMARK    4  A    between atoms: C_14  and  C_15
REMARK    5  A    between atoms: N_20  and  C_21
REMARK                            x       y       z     vdW  Elec       q    Type
REMARK                         _______ _______ _______ _____ _____    ______ ____
ROOT
ATOM      1  C   UNL     1       4.202   6.358  17.063  0.00  0.00    +0.000 A 
ATOM      2  N   UNL     1       3.895   5.218  17.634  0.00  0.00    +0.000 NA
ATOM      3  C   UNL     1       3.018   5.546  18.655  0.00  0.00    +0.000 A 
ATOM      4  C   UNL     1       2.750   6.916  18.671  0.00  0.00    +0.000 A 
ATOM      5  N   UNL     1       3.522   7.394  17.634  0.00  0.00    +0.000 N 
ATOM      6  H   UNL     1       3.620   8.357  17.342  0.00  0.00    +0.000 HD
ENDROOT
BRANCH   4   7
ATOM      7  C   UNL     1       1.943   7.813  19.512  0.00  0.00    +0.000 A 
ATOM      8  C   UNL     1       1.529   7.467  20.795  0.00  0.00    +0.000 A 
ATOM      9  C   UNL     1       0.893   8.434  21.557  0.00  0.00    +0.000 A 
ATOM     10  N   UNL     1       0.618   9.695  21.134  0.00  0.00    +0.000 NA
ATOM     11  C   UNL     1       0.950  10.010  19.870  0.00  0.00    +0.000 A 
ATOM     12  N   UNL     1       0.677  11.259  19.322  0.00  0.00    +0.000 N 
ATOM     13  C   UNL     1       1.606   9.092  19.048  0.00  0.00    +0.000 A 
ATOM     14  H   UNL     1       0.069  11.187  18.516  0.00  0.00    +0.000 HD
BRANCH  12  15
ATOM     15  C   UNL     1       0.474  12.441  20.155  0.00  0.00    +0.000 C 
ATOM     16  C   UNL     1       1.861  12.993  20.520  0.00  0.00    +0.000 C 
ATOM     17  C   UNL     1       2.591  13.656  19.349  0.00  0.00    +0.000 C 
ATOM     18  C   UNL     1       1.745  14.693  18.621  0.00  0.00    +0.000 C 
ATOM     19  C   UNL     1       0.320  14.233  18.321  0.00  0.00    +0.000 C 
ATOM     20  C   UNL     1      -0.359  13.546  19.503  0.00  0.00    +0.000 C 
ENDBRANCH  12  15
ENDBRANCH   4   7
BRANCH   3  21
ATOM     21  C   UNL     1       2.486   4.538  19.561  0.00  0.00    +0.000 A 
ATOM     22  C   UNL     1       3.267   4.017  20.606  0.00  0.00    +0.000 A 
ATOM     23  C   UNL     1       2.707   3.144  21.540  0.00  0.00    +0.000 A 
ATOM     24  C   UNL     1       1.383   2.746  21.398  0.00  0.00    +0.000 A 
ATOM     25  F   UNL     1       0.840   1.931  22.312  0.00  0.00    +0.000 F 
ATOM     26  C   UNL     1       0.615   3.186  20.328  0.00  0.00    +0.000 A 
ATOM     27  C   UNL     1       1.167   4.083  19.408  0.00  0.00    +0.000 A 
ENDBRANCH   3  21
BRANCH   1  29
ATOM     28  C   UNL     1       5.488   4.896  15.211  0.00  0.00    +0.000 C 
ATOM     29  S   UNL     1       5.314   6.606  15.754  0.00  0.00    +0.000 S 
ATOM     30  O   UNL     1       6.651   7.090  16.427  0.00  0.00    +0.000 OA
ENDBRANCH   1  29
TORSDOF 4
ENDMDL
MODEL 2
REMARK VINA RESULT:      -7.7      4.548      8.647
REMARK  Name = 
REMARK  5 active torsions:
REMARK  status: ('A' for Active; 'I' for Inactive)
REMARK    1  A    between atoms: C_1  and  S_2
REMARK    2  A    between atoms: S_2  and  C_4
REMARK    3  A    between atoms: C_6  and  C_7
REMARK    4  A    between atoms: C_14  and  C_15
REMARK    5  A    between atoms: N_20  and  C_21
REMARK                            x       y       z     vdW  Elec       q    Type
REMARK                         _______ _______ _______ _____ _____    ______ ____
ROOT
ATOM      1  C   UNL     1      -2.426  11.056  17.594  0.00  0.00    +0.000 A 
ATOM      2  N   UNL     1      -1.719  12.162  17.607  0.00  0.00    +0.000 NA
ATOM      3  C   UNL     1      -0.603  11.870  18.374  0.00  0.00    +0.000 A 
ATOM      4  C   UNL     1      -0.611  10.540  18.797  0.00  0.00    +0.000 A 
ATOM      5  N   UNL     1      -1.790  10.056  18.271  0.00  0.00    +0.000 N 
ATOM      6  H   UNL     1      -2.169   9.126  18.382  0.00  0.00    +0.000 HD
ENDROOT
BRANCH   4   7
ATOM      7  C   UNL     1       0.268   9.702  19.627  0.00  0.00    +0.000 A 
ATOM      8  C   UNL     1       0.233   9.728  21.018  0.00  0.00    +0.000 A 
ATOM      9  C   UNL     1       1.000   8.801  21.706  0.00  0.00    +0.000 A 
ATOM     10  N   UNL     1       1.809   7.881  21.121  0.00  0.00    +0.000 NA
ATOM     11  C   UNL     1       1.902   7.900  19.780  0.00  0.00    +0.000 A 
ATOM     12  N   UNL     1       2.733   7.030  19.082  0.00  0.00    +0.000 N 
ATOM     13  C   UNL     1       1.149   8.797  19.019  0.00  0.00    +0.000 A 
ATOM     14  H   UNL     1       3.430   7.531  18.545  0.00  0.00    +0.000 HD
BRANCH  12  15
ATOM     15  C   UNL     1       3.174   5.759  19.651  0.00  0.00    +0.000 C 
ATOM     16  C   UNL     1       2.077   4.721  19.368  0.00  0.00    +0.000 C 
ATOM     17  C   UNL     1       1.988   4.299  17.899  0.00  0.00    +0.000 C 
ATOM     18  C   UNL     1       3.329   3.879  17.310  0.00  0.00    +0.000 C 
ATOM     19  C   UNL     1       4.479   4.826  17.645  0.00  0.00    +0.000 C 
ATOM     20  C   UNL     1       4.511   5.250  19.111  0.00  0.00    +0.000 C 
ENDBRANCH  12  15
ENDBRANCH   4   7
BRANCH   3  21
ATOM     21  C   UNL     1       0.410  12.877  18.665  0.00  0.00    +0.000 A 
ATOM     22  C   UNL     1       1.779  12.577  18.569  0.00  0.00    +0.000 A 
ATOM     23  C   UNL     1       2.735  13.580  18.731  0.00  0.00    +0.000 A 
ATOM     24  C   UNL     1       2.327  14.872  19.045  0.00  0.00    +0.000 A 
ATOM     25  F   UNL     1       3.245  15.838  19.171  0.00  0.00    +0.000 F 
ATOM     26  C   UNL     1       0.983  15.173  19.223  0.00  0.00    +0.000 A 
ATOM     27  C   UNL     1       0.023  14.174  19.033  0.00  0.00    +0.000 A 
ENDBRANCH   3  21
BRANCH   1  29
ATOM     28  C   UNL     1      -3.429  10.670  15.131  0.00  0.00    +0.000 C 
ATOM     29  S   UNL     1      -3.971  10.813  16.844  0.00  0.00    +0.000 S 
ATOM     30  O   UNL     1      -4.751  12.164  17.044  0.00  0.00    +0.000 OA
ENDBRANCH   1  29
TORSDOF 4
ENDMDL
MODEL 3
REMARK VINA RESULT:      -7.7      4.183      8.404
REMARK  Name = 
REMARK  5 active torsions:
REMARK  status: ('A' for Active; 'I' for Inactive)
REMARK    1  A    between atoms: C_1  and  S_2
REMARK    2  A    between atoms: S_2  and  C_4
REMARK    3  A    between atoms: C_6  and  C_7
REMARK    4  A    between atoms: C_14  and  C_15
REMARK    5  A    between atoms: N_20  and  C_21
REMARK                            x       y       z     vdW  Elec       q    Type
REMARK                         _______ _______ _______ _____ _____    ______ ____
ROOT
ATOM      1  C   UNL     1      -2.047  11.218  17.537  0.00  0.00    +0.000 A 
ATOM      2  N   UNL     1      -2.214  12.145  18.452  0.00  0.00    +0.000 NA
ATOM      3  C   UNL     1      -1.414  11.756  19.514  0.00  0.00    +0.000 A 
ATOM      4  C   UNL     1      -0.708  10.589  19.216  0.00  0.00    +0.000 A 
ATOM      5  N   UNL     1      -1.138  10.285  17.942  0.00  0.00    +0.000 N 
ATOM      6  H   UNL     1      -0.871   9.485  17.385  0.00  0.00    +0.000 HD
ENDROOT
BRANCH   4   7
ATOM      7  C   UNL     1       0.239   9.727  19.939  0.00  0.00    +0.000 A 
ATOM      8  C   UNL     1       0.336   9.720  21.327  0.00  0.00    +0.000 A 
ATOM      9  C   UNL     1       1.158   8.773  21.918  0.00  0.00    +0.000 A 
ATOM     10  N   UNL     1       1.901   7.863  21.238  0.00  0.00    +0.000 NA
ATOM     11  C   UNL     1       1.867   7.914  19.895  0.00  0.00    +0.000 A 
ATOM     12  N   UNL     1       2.622   7.056  19.102  0.00  0.00    +0.000 N 
ATOM     13  C   UNL     1       1.052   8.832  19.230  0.00  0.00    +0.000 A 
ATOM     14  H   UNL     1       3.269   7.566  18.513  0.00  0.00    +0.000 HD
BRANCH  12  15
ATOM     15  C   UNL     1       3.106   5.770  19.596  0.00  0.00    +0.000 C 
ATOM     16  C   UNL     1       1.977   4.747  19.403  0.00  0.00    +0.000 C 
ATOM     17  C   UNL     1       1.738   4.358  17.941  0.00  0.00    +0.000 C 
ATOM     18  C   UNL     1       3.009   3.941  17.212  0.00  0.00    +0.000 C 
ATOM     19  C   UNL     1       4.195   4.872  17.450  0.00  0.00    +0.000 C 
ATOM     20  C   UNL     1       4.378   5.263  18.915  0.00  0.00    +0.000 C 
ENDBRANCH  12  15
ENDBRANCH   4   7
BRANCH   3  21
ATOM     21  C   UNL     1      -1.368  12.515  20.756  0.00  0.00    +0.000 A 
ATOM     22  C   UNL     1      -2.367  12.367  21.734  0.00  0.00    +0.000 A 
ATOM     23  C   UNL     1      -2.248  13.006  22.968  0.00  0.00    +0.000 A 
ATOM     24  C   UNL     1      -1.160  13.839  23.207  0.00  0.00    +0.000 A 
ATOM     25  F   UNL     1      -1.033  14.428  24.402  0.00  0.00    +0.000 F 
ATOM     26  C   UNL     1      -0.203  14.063  22.226  0.00  0.00    +0.000 A 
ATOM     27  C   UNL     1      -0.307  13.400  20.999  0.00  0.00    +0.000 A 
ENDBRANCH   3  21
BRANCH   1  29
ATOM     28  C   UNL     1      -4.527  11.449  16.527  0.00  0.00    +0.000 C 
ATOM     29  S   UNL     1      -2.837  11.117  15.996  0.00  0.00    +0.000 S 
ATOM     30  O   UNL     1      -2.703   9.614  15.555  0.00  0.00    +0.000 OA
ENDBRANCH   1  29
TORSDOF 4
ENDMDL
MODEL 4
REMARK VINA RESULT:      -7.6      4.829      6.184
REMARK  Name = 
REMARK  5 active torsions:
REMARK  status: ('A' for Active; 'I' for Inactive)
REMARK    1  A    between atoms: C_1  and  S_2
REMARK    2  A    between atoms: S_2  and  C_4
REMARK    3  A    between atoms: C_6  and  C_7
REMARK    4  A    between atoms: C_14  and  C_15
REMARK    5  A    between atoms: N_20  and  C_21
REMARK                            x       y       z     vdW  Elec       q    Type
REMARK                         _______ _______ _______ _____ _____    ______ ____
ROOT
ATOM      1  C   UNL     1       6.364   4.493  14.299  0.00  0.00    +0.000 A 
ATOM      2  N   UNL     1       5.175   4.349  14.836  0.00  0.00    +0.000 NA
ATOM      3  C   UNL     1       5.270   4.928  16.090  0.00  0.00    +0.000 A 
ATOM      4  C   UNL     1       6.536   5.479  16.301  0.00  0.00    +0.000 A 
ATOM      5  N   UNL     1       7.199   5.183  15.129  0.00  0.00    +0.000 N 
ATOM      6  H   UNL     1       8.161   5.396  14.904  0.00  0.00    +0.000 HD
ENDROOT
BRANCH   4   7
ATOM      7  C   UNL     1       7.202   6.174  17.413  0.00  0.00    +0.000 A 
ATOM      8  C   UNL     1       7.582   5.524  18.582  0.00  0.00    +0.000 A 
ATOM      9  C   UNL     1       8.327   6.235  19.510  0.00  0.00    +0.000 A 
ATOM     10  N   UNL     1       8.693   7.535  19.374  0.00  0.00    +0.000 NA
ATOM     11  C   UNL     1       8.265   8.188  18.280  0.00  0.00    +0.000 A 
ATOM     12  N   UNL     1       8.547   9.533  18.062  0.00  0.00    +0.000 N 
ATOM     13  C   UNL     1       7.522   7.533  17.295  0.00  0.00    +0.000 A 
ATOM     14  H   UNL     1       7.701  10.085  17.996  0.00  0.00    +0.000 HD
BRANCH  12  15
ATOM     15  C   UNL     1       9.681  10.198  18.698  0.00  0.00    +0.000 C 
ATOM     16  C   UNL     1      10.188  11.276  17.728  0.00  0.00    +0.000 C 
ATOM     17  C   UNL     1       9.253  12.482  17.600  0.00  0.00    +0.000 C 
ATOM     18  C   UNL     1       8.848  13.077  18.943  0.00  0.00    +0.000 C 
ATOM     19  C   UNL     1       8.430  12.038  19.981  0.00  0.00    +0.000 C 
ATOM     20  C   UNL     1       9.368  10.836  20.052  0.00  0.00    +0.000 C 
ENDBRANCH  12  15
ENDBRANCH   4   7
BRANCH   3  21
ATOM     21  C   UNL     1       4.151   4.922  17.023  0.00  0.00    +0.000 A 
ATOM     22  C   UNL     1       3.515   3.723  17.384  0.00  0.00    +0.000 A 
ATOM     23  C   UNL     1       2.526   3.716  18.369  0.00  0.00    +0.000 A 
ATOM     24  C   UNL     1       2.133   4.915  18.954  0.00  0.00    +0.000 A 
ATOM     25  F   UNL     1       1.205   4.902  19.919  0.00  0.00    +0.000 F 
ATOM     26  C   UNL     1       2.692   6.122  18.555  0.00  0.00    +0.000 A 
ATOM     27  C   UNL     1       3.703   6.125  17.588  0.00  0.00    +0.000 A 
ENDBRANCH   3  21
BRANCH   1  29
ATOM     28  C   UNL     1       7.682   5.414  12.146  0.00  0.00    +0.000 C 
ATOM     29  S   UNL     1       6.889   3.913  12.750  0.00  0.00    +0.000 S 
ATOM     30  O   UNL     1       5.570   3.643  11.937  0.00  0.00    +0.000 OA
ENDBRANCH   1  29
TORSDOF 4
ENDMDL
MODEL 5
REMARK VINA RESULT:      -7.6      4.157      8.540
REMARK  Name = 
REMARK  5 active torsions:
REMARK  status: ('A' for Active; 'I' for Inactive)
REMARK    1  A    between atoms: C_1  and  S_2
REMARK    2  A    between atoms: S_2  and  C_4
REMARK    3  A    between atoms: C_6  and  C_7
REMARK    4  A    between atoms: C_14  and  C_15
REMARK    5  A    between atoms: N_20  and  C_21
REMARK                            x       y       z     vdW  Elec       q    Type
REMARK                         _______ _______ _______ _____ _____    ______ ____
ROOT
ATOM      1  C   UNL     1      -1.887  11.275  17.462  0.00  0.00    +0.000 A 
ATOM      2  N   UNL     1      -1.225  12.373  17.742  0.00  0.00    +0.000 NA
ATOM      3  C   UNL     1      -0.231  11.983  18.624  0.00  0.00    +0.000 A 
ATOM      4  C   UNL     1      -0.262  10.606  18.847  0.00  0.00    +0.000 A 
ATOM      5  N   UNL     1      -1.331  10.193  18.080  0.00  0.00    +0.000 N 
ATOM      6  H   UNL     1      -1.693   9.254  17.997  0.00  0.00    +0.000 HD
ENDROOT
BRANCH   4   7
ATOM      7  C   UNL     1       0.505   9.663  19.676  0.00  0.00    +0.000 A 
ATOM      8  C   UNL     1       0.430   9.655  21.065  0.00  0.00    +0.000 A 
ATOM      9  C   UNL     1       1.082   8.639  21.746  0.00  0.00    +0.000 A 
ATOM     10  N   UNL     1       1.816   7.660  21.157  0.00  0.00    +0.000 NA
ATOM     11  C   UNL     1       1.952   7.707  19.820  0.00  0.00    +0.000 A 
ATOM     12  N   UNL     1       2.716   6.779  19.120  0.00  0.00    +0.000 N 
ATOM     13  C   UNL     1       1.313   8.694  19.066  0.00  0.00    +0.000 A 
ATOM     14  H   UNL     1       3.474   7.224  18.618  0.00  0.00    +0.000 HD
BRANCH  12  15
ATOM     15  C   UNL     1       3.014   5.457  19.662  0.00  0.00    +0.000 C 
ATOM     16  C   UNL     1       1.837   4.536  19.308  0.00  0.00    +0.000 C 
ATOM     17  C   UNL     1       1.765   4.167  17.823  0.00  0.00    +0.000 C 
ATOM     18  C   UNL     1       3.081   3.639  17.268  0.00  0.00    +0.000 C 
ATOM     19  C   UNL     1       4.301   4.462  17.674  0.00  0.00    +0.000 C 
ATOM     20  C   UNL     1       4.317   4.838  19.153  0.00  0.00    +0.000 C 
ENDBRANCH  12  15
ENDBRANCH   4   7
BRANCH   3  21
ATOM     21  C   UNL     1       0.692  12.946  19.210  0.00  0.00    +0.000 A 
ATOM     22  C   UNL     1       0.429  13.537  20.457  0.00  0.00    +0.000 A 
ATOM     23  C   UNL     1       1.377  14.362  21.063  0.00  0.00    +0.000 A 
ATOM     24  C   UNL     1       2.566  14.642  20.399  0.00  0.00    +0.000 A 
ATOM     25  F   UNL     1       3.487  15.411  20.995  0.00  0.00    +0.000 F 
ATOM     26  C   UNL     1       2.814  14.132  19.131  0.00  0.00    +0.000 A 
ATOM     27  C   UNL     1       1.876  13.283  18.536  0.00  0.00    +0.000 A 
ENDBRANCH   3  21
BRANCH   1  29
ATOM     28  C   UNL     1      -4.556  11.126  17.736  0.00  0.00    +0.000 C 
ATOM     29  S   UNL     1      -3.291  11.130  16.453  0.00  0.00    +0.000 S 
ATOM     30  O   UNL     1      -3.191   9.702  15.800  0.00  0.00    +0.000 OA
ENDBRANCH   1  29
TORSDOF 4
ENDMDL
MODEL 6
REMARK VINA RESULT:      -7.6      1.155      1.794
REMARK  Name = 
REMARK  5 active torsions:
REMARK  status: ('A' for Active; 'I' for Inactive)
REMARK    1  A    between atoms: C_1  and  S_2
REMARK    2  A    between atoms: S_2  and  C_4
REMARK    3  A    between atoms: C_6  and  C_7
REMARK    4  A    between atoms: C_14  and  C_15
REMARK    5  A    between atoms: N_20  and  C_21
REMARK                            x       y       z     vdW  Elec       q    Type
REMARK                         _______ _______ _______ _____ _____    ______ ____
ROOT
ATOM      1  C   UNL     1       4.655   5.731  16.735  0.00  0.00    +0.000 A 
ATOM      2  N   UNL     1       4.290   4.651  17.387  0.00  0.00    +0.000 NA
ATOM      3  C   UNL     1       3.394   5.091  18.346  0.00  0.00    +0.000 A 
ATOM      4  C   UNL     1       3.173   6.466  18.242  0.00  0.00    +0.000 A 
ATOM      5  N   UNL     1       3.993   6.832  17.197  0.00  0.00    +0.000 N 
ATOM      6  H   UNL     1       4.134   7.763  16.831  0.00  0.00    +0.000 HD
ENDROOT
BRANCH   4   7
ATOM      7  C   UNL     1       2.371   7.454  18.980  0.00  0.00    +0.000 A 
ATOM      8  C   UNL     1       2.081   7.323  20.334  0.00  0.00    +0.000 A 
ATOM      9  C   UNL     1       1.439   8.376  20.967  0.00  0.00    +0.000 A 
ATOM     10  N   UNL     1       1.046   9.522  20.355  0.00  0.00    +0.000 NA
ATOM     11  C   UNL     1       1.258   9.622  19.031  0.00  0.00    +0.000 A 
ATOM     12  N   UNL     1       0.857  10.734  18.298  0.00  0.00    +0.000 N 
ATOM     13  C   UNL     1       1.912   8.607  18.329  0.00  0.00    +0.000 A 
ATOM     14  H   UNL     1       0.197  10.484  17.573  0.00  0.00    +0.000 HD
BRANCH  12  15
ATOM     15  C   UNL     1       0.637  12.034  18.925  0.00  0.00    +0.000 C 
ATOM     16  C   UNL     1      -0.300  12.836  18.008  0.00  0.00    +0.000 C 
ATOM     17  C   UNL     1      -1.746  12.330  18.008  0.00  0.00    +0.000 C 
ATOM     18  C   UNL     1      -2.328  12.166  19.406  0.00  0.00    +0.000 C 
ATOM     19  C   UNL     1      -1.395  11.462  20.388  0.00  0.00    +0.000 C 
ATOM     20  C   UNL     1       0.043  11.971  20.333  0.00  0.00    +0.000 C 
ENDBRANCH  12  15
ENDBRANCH   4   7
BRANCH   3  21
ATOM     21  C   UNL     1       2.798   4.178  19.313  0.00  0.00    +0.000 A 
ATOM     22  C   UNL     1       3.593   3.488  20.244  0.00  0.00    +0.000 A 
ATOM     23  C   UNL     1       3.001   2.713  21.241  0.00  0.00    +0.000 A 
ATOM     24  C   UNL     1       1.617   2.580  21.276  0.00  0.00    +0.000 A 
ATOM     25  F   UNL     1       1.051   1.859  22.251  0.00  0.00    +0.000 F 
ATOM     26  C   UNL     1       0.817   3.189  20.317  0.00  0.00    +0.000 A 
ATOM     27  C   UNL     1       1.408   3.989  19.335  0.00  0.00    +0.000 A 
ENDBRANCH   3  21
BRANCH   1  29
ATOM     28  C   UNL     1       5.744   4.128  14.873  0.00  0.00    +0.000 C 
ATOM     29  S   UNL     1       5.815   5.834  15.449  0.00  0.00    +0.000 S 
ATOM     30  O   UNL     1       7.196   6.101  16.153  0.00  0.00    +0.000 OA
ENDBRANCH   1  29
TORSDOF 4
ENDMDL
MODEL 7
REMARK VINA RESULT:      -7.4      4.115      8.367
REMARK  Name = 
REMARK  5 active torsions:
REMARK  status: ('A' for Active; 'I' for Inactive)
REMARK    1  A    between atoms: C_1  and  S_2
REMARK    2  A    between atoms: S_2  and  C_4
REMARK    3  A    between atoms: C_6  and  C_7
REMARK    4  A    between atoms: C_14  and  C_15
REMARK    5  A    between atoms: N_20  and  C_21
REMARK                            x       y       z     vdW  Elec       q    Type
REMARK                         _______ _______ _______ _____ _____    ______ ____
ROOT
ATOM      1  C   UNL     1      -1.802  11.120  17.037  0.00  0.00    +0.000 A 
ATOM      2  N   UNL     1      -1.450  12.207  17.683  0.00  0.00    +0.000 NA
ATOM      3  C   UNL     1      -0.502  11.791  18.604  0.00  0.00    +0.000 A 
ATOM      4  C   UNL     1      -0.239  10.426  18.480  0.00  0.00    +0.000 A 
ATOM      5  N   UNL     1      -1.086  10.039  17.464  0.00  0.00    +0.000 N 
ATOM      6  H   UNL     1      -1.208   9.106  17.096  0.00  0.00    +0.000 HD
ENDROOT
BRANCH   4   7
ATOM      7  C   UNL     1       0.624   9.460  19.178  0.00  0.00    +0.000 A 
ATOM      8  C   UNL     1       0.550   9.245  20.550  0.00  0.00    +0.000 A 
ATOM      9  C   UNL     1       1.306   8.216  21.089  0.00  0.00    +0.000 A 
ATOM     10  N   UNL     1       2.140   7.414  20.378  0.00  0.00    +0.000 NA
ATOM     11  C   UNL     1       2.271   7.667  19.064  0.00  0.00    +0.000 A 
ATOM     12  N   UNL     1       3.129   6.934  18.250  0.00  0.00    +0.000 N 
ATOM     13  C   UNL     1       1.530   8.678  18.448  0.00  0.00    +0.000 A 
ATOM     14  H   UNL     1       3.836   7.524  17.829  0.00  0.00    +0.000 HD
BRANCH  12  15
ATOM     15  C   UNL     1       3.566   5.586  18.603  0.00  0.00    +0.000 C 
ATOM     16  C   UNL     1       3.579   4.753  17.313  0.00  0.00    +0.000 C 
ATOM     17  C   UNL     1       4.713   5.120  16.350  0.00  0.00    +0.000 C 
ATOM     18  C   UNL     1       6.082   5.151  17.016  0.00  0.00    +0.000 C 
ATOM     19  C   UNL     1       6.105   5.884  18.356  0.00  0.00    +0.000 C 
ATOM     20  C   UNL     1       4.940   5.516  19.271  0.00  0.00    +0.000 C 
ENDBRANCH  12  15
ENDBRANCH   4   7
BRANCH   3  21
ATOM     21  C   UNL     1       0.098  12.717  19.555  0.00  0.00    +0.000 A 
ATOM     22  C   UNL     1      -0.414  12.854  20.856  0.00  0.00    +0.000 A 
ATOM     23  C   UNL     1       0.243  13.651  21.794  0.00  0.00    +0.000 A 
ATOM     24  C   UNL     1       1.380  14.357  21.418  0.00  0.00    +0.000 A 
ATOM     25  F   UNL     1       2.024  15.098  22.328  0.00  0.00    +0.000 F 
ATOM     26  C   UNL     1       1.858  14.299  20.115  0.00  0.00    +0.000 A 
ATOM     27  C   UNL     1       1.216  13.478  19.183  0.00  0.00    +0.000 A 
ENDBRANCH   3  21
BRANCH   1  29
ATOM     28  C   UNL     1      -4.458  11.425  16.769  0.00  0.00    +0.000 C 
ATOM     29  S   UNL     1      -3.007  10.986  15.795  0.00  0.00    +0.000 S 
ATOM     30  O   UNL     1      -3.056   9.458  15.424  0.00  0.00    +0.000 OA
ENDBRANCH   1  29
TORSDOF 4
ENDMDL
MODEL 8
REMARK VINA RESULT:      -7.4      4.998      7.294
REMARK  Name = 
REMARK  5 active torsions:
REMARK  status: ('A' for Active; 'I' for Inactive)
REMARK    1  A    between atoms: C_1  and  S_2
REMARK    2  A    between atoms: S_2  and  C_4
REMARK    3  A    between atoms: C_6  and  C_7
REMARK    4  A    between atoms: C_14  and  C_15
REMARK    5  A    between atoms: N_20  and  C_21
REMARK                            x       y       z     vdW  Elec       q    Type
REMARK                         _______ _______ _______ _____ _____    ______ ____
ROOT
ATOM      1  C   UNL     1       0.988  13.342  20.206  0.00  0.00    +0.000 A 
ATOM      2  N   UNL     1       1.719  12.257  20.096  0.00  0.00    +0.000 NA
ATOM      3  C   UNL     1       0.901  11.330  19.471  0.00  0.00    +0.000 A 
ATOM      4  C   UNL     1      -0.341  11.882  19.152  0.00  0.00    +0.000 A 
ATOM      5  N   UNL     1      -0.239  13.169  19.634  0.00  0.00    +0.000 N 
ATOM      6  H   UNL     1      -0.953  13.883  19.615  0.00  0.00    +0.000 HD
ENDROOT
BRANCH   4   7
ATOM      7  C   UNL     1      -1.576  11.384  18.527  0.00  0.00    +0.000 A 
ATOM      8  C   UNL     1      -1.627  10.190  17.816  0.00  0.00    +0.000 A 
ATOM      9  C   UNL     1      -2.867   9.740  17.387  0.00  0.00    +0.000 A 
ATOM     10  N   UNL     1      -4.038  10.397  17.586  0.00  0.00    +0.000 NA
ATOM     11  C   UNL     1      -3.983  11.588  18.208  0.00  0.00    +0.000 A 
ATOM     12  N   UNL     1      -5.118  12.362  18.426  0.00  0.00    +0.000 N 
ATOM     13  C   UNL     1      -2.772  12.098  18.681  0.00  0.00    +0.000 A 
ATOM     14  H   UNL     1      -5.046  13.264  17.971  0.00  0.00    +0.000 HD
BRANCH  12  15
ATOM     15  C   UNL     1      -6.457  11.781  18.456  0.00  0.00    +0.000 C 
ATOM     16  C   UNL     1      -6.647  11.128  19.833  0.00  0.00    +0.000 C 
ATOM     17  C   UNL     1      -6.804  12.134  20.978  0.00  0.00    +0.000 C 
ATOM     18  C   UNL     1      -7.862  13.196  20.706  0.00  0.00    +0.000 C 
ATOM     19  C   UNL     1      -7.782  13.809  19.311  0.00  0.00    +0.000 C 
ATOM     20  C   UNL     1      -7.590  12.777  18.202  0.00  0.00    +0.000 C 
ENDBRANCH  12  15
ENDBRANCH   4   7
BRANCH   3  21
ATOM     21  C   UNL     1       1.347   9.966  19.216  0.00  0.00    +0.000 A 
ATOM     22  C   UNL     1       1.877   9.599  17.968  0.00  0.00    +0.000 A 
ATOM     23  C   UNL     1       2.412   8.324  17.775  0.00  0.00    +0.000 A 
ATOM     24  C   UNL     1       2.367   7.398  18.810  0.00  0.00    +0.000 A 
ATOM     25  F   UNL     1       2.907   6.186  18.632  0.00  0.00    +0.000 F 
ATOM     26  C   UNL     1       1.775   7.714  20.027  0.00  0.00    +0.000 A 
ATOM     27  C   UNL     1       1.265   9.000  20.229  0.00  0.00    +0.000 A 
ENDBRANCH   3  21
BRANCH   1  29
ATOM     28  C   UNL     1       2.393  15.554  19.611  0.00  0.00    +0.000 C 
ATOM     29  S   UNL     1       1.442  14.836  20.963  0.00  0.00    +0.000 S 
ATOM     30  O   UNL     1       2.407  14.432  22.137  0.00  0.00    +0.000 OA
ENDBRANCH   1  29
TORSDOF 4
ENDMDL
MODEL 9
REMARK VINA RESULT:      -7.3      4.195      8.537
REMARK  Name = 
REMARK  5 active torsions:
REMARK  status: ('A' for Active; 'I' for Inactive)
REMARK    1  A    between atoms: C_1  and  S_2
REMARK    2  A    between atoms: S_2  and  C_4
REMARK    3  A    between atoms: C_6  and  C_7
REMARK    4  A    between atoms: C_14  and  C_15
REMARK    5  A    between atoms: N_20  and  C_21
REMARK                            x       y       z     vdW  Elec       q    Type
REMARK                         _______ _______ _______ _____ _____    ______ ____
ROOT
ATOM      1  C   UNL     1      -1.904  11.275  17.443  0.00  0.00    +0.000 A 
ATOM      2  N   UNL     1      -1.714  12.366  18.147  0.00  0.00    +0.000 NA
ATOM      3  C   UNL     1      -0.861  11.993  19.173  0.00  0.00    +0.000 A 
ATOM      4  C   UNL     1      -0.487  10.653  19.060  0.00  0.00    +0.000 A 
ATOM      5  N   UNL     1      -1.171  10.235  17.938  0.00  0.00    +0.000 N 
ATOM      6  H   UNL     1      -1.180   9.306  17.542  0.00  0.00    +0.000 HD
ENDROOT
BRANCH   4   7
ATOM      7  C   UNL     1       0.349   9.731  19.844  0.00  0.00    +0.000 A 
ATOM      8  C   UNL     1       0.321   9.693  21.234  0.00  0.00    +0.000 A 
ATOM      9  C   UNL     1       1.040   8.696  21.873  0.00  0.00    +0.000 A 
ATOM     10  N   UNL     1       1.797   7.762  21.241  0.00  0.00    +0.000 NA
ATOM     11  C   UNL     1       1.886   7.841  19.902  0.00  0.00    +0.000 A 
ATOM     12  N   UNL     1       2.667   6.961  19.159  0.00  0.00    +0.000 N 
ATOM     13  C   UNL     1       1.178   8.811  19.189  0.00  0.00    +0.000 A 
ATOM     14  H   UNL     1       3.387   7.450  18.642  0.00  0.00    +0.000 HD
BRANCH  12  15
ATOM     15  C   UNL     1       3.042   5.644  19.664  0.00  0.00    +0.000 C 
ATOM     16  C   UNL     1       1.911   4.670  19.300  0.00  0.00    +0.000 C 
ATOM     17  C   UNL     1       1.840   4.334  17.807  0.00  0.00    +0.000 C 
ATOM     18  C   UNL     1       3.176   3.891  17.225  0.00  0.00    +0.000 C 
ATOM     19  C   UNL     1       4.355   4.769  17.637  0.00  0.00    +0.000 C 
ATOM     20  C   UNL     1       4.370   5.109  19.126  0.00  0.00    +0.000 C 
ENDBRANCH  12  15
ENDBRANCH   4   7
BRANCH   3  21
ATOM     21  C   UNL     1      -0.452  12.933  20.208  0.00  0.00    +0.000 A 
ATOM     22  C   UNL     1       0.793  13.582  20.146  0.00  0.00    +0.000 A 
ATOM     23  C   UNL     1       1.122  14.569  21.076  0.00  0.00    +0.000 A 
ATOM     24  C   UNL     1       0.232  14.870  22.100  0.00  0.00    +0.000 A 
ATOM     25  F   UNL     1       0.538  15.839  22.973  0.00  0.00    +0.000 F 
ATOM     26  C   UNL     1      -0.970  14.186  22.227  0.00  0.00    +0.000 A 
ATOM     27  C   UNL     1      -1.312  13.216  21.279  0.00  0.00    +0.000 A 
ENDBRANCH   3  21
BRANCH   1  29
ATOM     28  C   UNL     1      -4.522  11.402  16.848  0.00  0.00    +0.000 C 
ATOM     29  S   UNL     1      -2.932  11.091  16.058  0.00  0.00    +0.000 S 
ATOM     30  O   UNL     1      -2.825   9.574  15.657  0.00  0.00    +0.000 OA
ENDBRANCH   1  29
TORSDOF 4
ENDMDL
