MODEL 1
REMARK VINA RESULT:      -6.8      0.000      0.000
REMARK  Name = 
REMARK  7 active torsions:
REMARK  status: ('A' for Active; 'I' for Inactive)
REMARK    1  A    between atoms: C_1  and  N_2
REMARK    2  A    between atoms: N_2  and  C_3
REMARK    3  A    between atoms: N_2  and  C_4
REMARK    4  A    between atoms: C_4  and  C_5
REMARK    5  A    between atoms: C_5  and  S_6
REMARK    6  A    between atoms: S_6  and  C_7
REMARK    7  A    between atoms: C_11  and  C_12
REMARK                            x       y       z     vdW  Elec       q    Type
REMARK                         _______ _______ _______ _____ _____    ______ ____
ROOT
ATOM      1  C   UNL     1       5.507   5.347  16.930  0.00  0.00    +0.000 A 
ATOM      2  C   UNL     1       5.252   6.692  16.662  0.00  0.00    +0.000 A 
ATOM      3  C   UNL     1       4.111   7.298  17.182  0.00  0.00    +0.000 A 
ATOM      4  C   UNL     1       3.237   6.560  17.985  0.00  0.00    +0.000 A 
ATOM      5  C   UNL     1       3.456   5.199  18.265  0.00  0.00    +0.000 A 
ATOM      6  C   UNL     1       4.596   4.602  17.687  0.00  0.00    +0.000 A 
ENDROOT
BRANCH   5   7
ATOM      7  C   UNL     1       2.577   4.454  19.202  0.00  0.00    +0.000 A 
ATOM      8  C   UNL     1       2.772   4.489  20.596  0.00  0.00    +0.000 A 
ATOM      9  C   UNL     1       2.014   3.694  21.463  0.00  0.00    +0.000 A 
ATOM     10  C   UNL     1       1.020   2.862  20.959  0.00  0.00    +0.000 A 
ATOM     11  C   UNL     1       0.776   2.834  19.592  0.00  0.00    +0.000 A 
ATOM     12  C   UNL     1       1.546   3.618  18.727  0.00  0.00    +0.000 A 
ENDBRANCH   5   7
BRANCH   1  13
ATOM     13  S   UNL     1       7.024   4.583  16.384  0.00  0.00    +0.000 S 
BRANCH  13  14
ATOM     14  C   UNL     1       6.833   4.867  14.582  0.00  0.00    +0.000 C 
BRANCH  14  15
ATOM     15  C   UNL     1       5.708   3.988  14.011  0.00  0.00    +0.000 C 
BRANCH  15  17
ATOM     16  C   UNL     1       4.821   3.361  11.866  0.00  0.00    +0.000 C 
ATOM     17  N   UNL     1       6.025   3.366  12.706  0.00  0.00    +0.000 NA
ATOM     18  C   UNL     1       7.107   4.056  12.002  0.00  0.00    +0.000 C 
ENDBRANCH  15  17
ENDBRANCH  14  15
ENDBRANCH  13  14
ENDBRANCH   1  13
TORSDOF 5
ENDMDL
MODEL 2
REMARK VINA RESULT:      -6.8      2.535      7.104
REMARK  Name = 
REMARK  7 active torsions:
REMARK  status: ('A' for Active; 'I' for Inactive)
REMARK    1  A    between atoms: C_1  and  N_2
REMARK    2  A    between atoms: N_2  and  C_3
REMARK    3  A    between atoms: N_2  and  C_4
REMARK    4  A    between atoms: C_4  and  C_5
REMARK    5  A    between atoms: C_5  and  S_6
REMARK    6  A    between atoms: S_6  and  C_7
REMARK    7  A    between atoms: C_11  and  C_12
REMARK                            x       y       z     vdW  Elec       q    Type
REMARK                         _______ _______ _______ _____ _____    ______ ____
ROOT
ATOM      1  C   UNL     1       4.515   4.062  17.825  0.00  0.00    +0.000 A 
ATOM      2  C   UNL     1       4.197   5.365  18.206  0.00  0.00    +0.000 A 
ATOM      3  C   UNL     1       4.504   6.428  17.361  0.00  0.00    +0.000 A 
ATOM      4  C   UNL     1       5.110   6.183  16.127  0.00  0.00    +0.000 A 
ATOM      5  C   UNL     1       5.456   4.883  15.715  0.00  0.00    +0.000 A 
ATOM      6  C   UNL     1       5.175   3.831  16.612  0.00  0.00    +0.000 A 
ENDROOT
BRANCH   5   7
ATOM      7  C   UNL     1       6.006   4.624  14.359  0.00  0.00    +0.000 A 
ATOM      8  C   UNL     1       5.403   3.712  13.472  0.00  0.00    +0.000 A 
ATOM      9  C   UNL     1       5.991   3.386  12.244  0.00  0.00    +0.000 A 
ATOM     10  C   UNL     1       7.184   3.987  11.859  0.00  0.00    +0.000 A 
ATOM     11  C   UNL     1       7.784   4.921  12.695  0.00  0.00    +0.000 A 
ATOM     12  C   UNL     1       7.202   5.232  13.928  0.00  0.00    +0.000 A 
ENDBRANCH   5   7
BRANCH   1  13
ATOM     13  S   UNL     1       4.019   2.674  18.830  0.00  0.00    +0.000 S 
BRANCH  13  14
ATOM     14  C   UNL     1       2.321   2.459  18.170  0.00  0.00    +0.000 C 
BRANCH  14  15
ATOM     15  C   UNL     1       1.279   2.641  19.285  0.00  0.00    +0.000 C 
BRANCH  15  17
ATOM     16  C   UNL     1       1.291   4.700  20.527  0.00  0.00    +0.000 C 
ATOM     17  N   UNL     1       1.793   3.321  20.494  0.00  0.00    +0.000 NA
ATOM     18  C   UNL     1       1.410   2.635  21.730  0.00  0.00    +0.000 C 
ENDBRANCH  15  17
ENDBRANCH  14  15
ENDBRANCH  13  14
ENDBRANCH   1  13
TORSDOF 5
ENDMDL
MODEL 3
REMARK VINA RESULT:      -6.7      2.332      3.345
REMARK  Name = 
REMARK  7 active torsions:
REMARK  status: ('A' for Active; 'I' for Inactive)
REMARK    1  A    between atoms: C_1  and  N_2
REMARK    2  A    between atoms: N_2  and  C_3
REMARK    3  A    between atoms: N_2  and  C_4
REMARK    4  A    between atoms: C_4  and  C_5
REMARK    5  A    between atoms: C_5  and  S_6
REMARK    6  A    between atoms: S_6  and  C_7
REMARK    7  A    between atoms: C_11  and  C_12
REMARK                            x       y       z     vdW  Elec       q    Type
REMARK                         _______ _______ _______ _____ _____    ______ ____
ROOT
ATOM      1  C   UNL     1       4.712   5.448  16.298  0.00  0.00    +0.000 A 
ATOM      2  C   UNL     1       4.617   6.836  16.398  0.00  0.00    +0.000 A 
ATOM      3  C   UNL     1       3.796   7.406  17.368  0.00  0.00    +0.000 A 
ATOM      4  C   UNL     1       3.086   6.585  18.248  0.00  0.00    +0.000 A 
ATOM      5  C   UNL     1       3.149   5.182  18.168  0.00  0.00    +0.000 A 
ATOM      6  C   UNL     1       3.952   4.634  17.146  0.00  0.00    +0.000 A 
ENDROOT
BRANCH   5   7
ATOM      7  C   UNL     1       2.472   4.321  19.173  0.00  0.00    +0.000 A 
ATOM      8  C   UNL     1       1.431   3.441  18.820  0.00  0.00    +0.000 A 
ATOM      9  C   UNL     1       0.720   2.721  19.787  0.00  0.00    +0.000 A 
ATOM     10  C   UNL     1       1.052   2.841  21.132  0.00  0.00    +0.000 A 
ATOM     11  C   UNL     1       2.101   3.671  21.509  0.00  0.00    +0.000 A 
ATOM     12  C   UNL     1       2.798   4.401  20.541  0.00  0.00    +0.000 A 
ENDBRANCH   5   7
BRANCH   1  13
ATOM     13  S   UNL     1       5.853   4.695  15.151  0.00  0.00    +0.000 S 
BRANCH  13  14
ATOM     14  C   UNL     1       7.419   5.210  15.954  0.00  0.00    +0.000 C 
BRANCH  14  15
ATOM     15  C   UNL     1       7.554   4.566  17.343  0.00  0.00    +0.000 C 
BRANCH  15  17
ATOM     16  C   UNL     1       7.768   6.894  17.903  0.00  0.00    +0.000 C 
ATOM     17  N   UNL     1       7.718   5.533  18.451  0.00  0.00    +0.000 NA
ATOM     18  C   UNL     1       6.640   5.445  19.438  0.00  0.00    +0.000 C 
ENDBRANCH  15  17
ENDBRANCH  14  15
ENDBRANCH  13  14
ENDBRANCH   1  13
TORSDOF 5
ENDMDL
MODEL 4
REMARK VINA RESULT:      -6.7      3.263      5.831
REMARK  Name = 
REMARK  7 active torsions:
REMARK  status: ('A' for Active; 'I' for Inactive)
REMARK    1  A    between atoms: C_1  and  N_2
REMARK    2  A    between atoms: N_2  and  C_3
REMARK    3  A    between atoms: N_2  and  C_4
REMARK    4  A    between atoms: C_4  and  C_5
REMARK    5  A    between atoms: C_5  and  S_6
REMARK    6  A    between atoms: S_6  and  C_7
REMARK    7  A    between atoms: C_11  and  C_12
REMARK                            x       y       z     vdW  Elec       q    Type
REMARK                         _______ _______ _______ _____ _____    ______ ____
ROOT
ATOM      1  C   UNL     1       3.734   4.314  17.423  0.00  0.00    +0.000 A 
ATOM      2  C   UNL     1       4.907   4.658  16.753  0.00  0.00    +0.000 A 
ATOM      3  C   UNL     1       5.260   5.999  16.618  0.00  0.00    +0.000 A 
ATOM      4  C   UNL     1       4.446   6.991  17.171  0.00  0.00    +0.000 A 
ATOM      5  C   UNL     1       3.250   6.681  17.843  0.00  0.00    +0.000 A 
ATOM      6  C   UNL     1       2.895   5.317  17.923  0.00  0.00    +0.000 A 
ENDROOT
BRANCH   5   7
ATOM      7  C   UNL     1       2.447   7.735  18.515  0.00  0.00    +0.000 A 
ATOM      8  C   UNL     1       2.077   7.640  19.870  0.00  0.00    +0.000 A 
ATOM      9  C   UNL     1       1.224   8.577  20.464  0.00  0.00    +0.000 A 
ATOM     10  C   UNL     1       0.742   9.651  19.725  0.00  0.00    +0.000 A 
ATOM     11  C   UNL     1       1.121   9.795  18.396  0.00  0.00    +0.000 A 
ATOM     12  C   UNL     1       1.960   8.848  17.801  0.00  0.00    +0.000 A 
ENDBRANCH   5   7
BRANCH   1  13
ATOM     13  S   UNL     1       3.325   2.603  17.720  0.00  0.00    +0.000 S 
BRANCH  13  14
ATOM     14  C   UNL     1       1.601   2.836  18.301  0.00  0.00    +0.000 C 
BRANCH  14  15
ATOM     15  C   UNL     1       1.342   2.015  19.574  0.00  0.00    +0.000 C 
BRANCH  15  17
ATOM     16  C   UNL     1       2.498   2.724  21.559  0.00  0.00    +0.000 C 
ATOM     17  N   UNL     1       1.240   2.823  20.810  0.00  0.00    +0.000 NA
ATOM     18  C   UNL     1       0.946   4.232  20.537  0.00  0.00    +0.000 C 
ENDBRANCH  15  17
ENDBRANCH  14  15
ENDBRANCH  13  14
ENDBRANCH   1  13
TORSDOF 5
ENDMDL
MODEL 5
REMARK VINA RESULT:      -6.6      2.565      6.924
REMARK  Name = 
REMARK  7 active torsions:
REMARK  status: ('A' for Active; 'I' for Inactive)
REMARK    1  A    between atoms: C_1  and  N_2
REMARK    2  A    between atoms: N_2  and  C_3
REMARK    3  A    between atoms: N_2  and  C_4
REMARK    4  A    between atoms: C_4  and  C_5
REMARK    5  A    between atoms: C_5  and  S_6
REMARK    6  A    between atoms: S_6  and  C_7
REMARK    7  A    between atoms: C_11  and  C_12
REMARK                            x       y       z     vdW  Elec       q    Type
REMARK                         _______ _______ _______ _____ _____    ______ ____
ROOT
ATOM      1  C   UNL     1       4.478   5.169  17.904  0.00  0.00    +0.000 A 
ATOM      2  C   UNL     1       5.532   5.245  18.813  0.00  0.00    +0.000 A 
ATOM      3  C   UNL     1       6.841   5.057  18.374  0.00  0.00    +0.000 A 
ATOM      4  C   UNL     1       7.091   4.811  17.022  0.00  0.00    +0.000 A 
ATOM      5  C   UNL     1       6.052   4.715  16.079  0.00  0.00    +0.000 A 
ATOM      6  C   UNL     1       4.734   4.864  16.562  0.00  0.00    +0.000 A 
ENDROOT
BRANCH   5   7
ATOM      7  C   UNL     1       6.337   4.555  14.630  0.00  0.00    +0.000 A 
ATOM      8  C   UNL     1       5.590   3.683  13.815  0.00  0.00    +0.000 A 
ATOM      9  C   UNL     1       5.937   3.449  12.480  0.00  0.00    +0.000 A 
ATOM     10  C   UNL     1       7.026   4.106  11.916  0.00  0.00    +0.000 A 
ATOM     11  C   UNL     1       7.759   5.003  12.682  0.00  0.00    +0.000 A 
ATOM     12  C   UNL     1       7.418   5.221  14.021  0.00  0.00    +0.000 A 
ENDBRANCH   5   7
BRANCH   1  13
ATOM     13  S   UNL     1       2.808   5.533  18.416  0.00  0.00    +0.000 S 
BRANCH  13  14
ATOM     14  C   UNL     1       1.976   4.079  17.668  0.00  0.00    +0.000 C 
BRANCH  14  15
ATOM     15  C   UNL     1       1.949   2.902  18.657  0.00  0.00    +0.000 C 
BRANCH  15  17
ATOM     16  C   UNL     1       1.261   2.997  20.959  0.00  0.00    +0.000 C 
ATOM     17  N   UNL     1       2.370   3.252  20.032  0.00  0.00    +0.000 NA
ATOM     18  C   UNL     1       3.549   2.499  20.466  0.00  0.00    +0.000 C 
ENDBRANCH  15  17
ENDBRANCH  14  15
ENDBRANCH  13  14
ENDBRANCH   1  13
TORSDOF 5
ENDMDL
MODEL 6
REMARK VINA RESULT:      -6.6      2.718      7.135
REMARK  Name = 
REMARK  7 active torsions:
REMARK  status: ('A' for Active; 'I' for Inactive)
REMARK    1  A    between atoms: C_1  and  N_2
REMARK    2  A    between atoms: N_2  and  C_3
REMARK    3  A    between atoms: N_2  and  C_4
REMARK    4  A    between atoms: C_4  and  C_5
REMARK    5  A    between atoms: C_5  and  S_6
REMARK    6  A    between atoms: S_6  and  C_7
REMARK    7  A    between atoms: C_11  and  C_12
REMARK                            x       y       z     vdW  Elec       q    Type
REMARK                         _______ _______ _______ _____ _____    ______ ____
ROOT
ATOM      1  C   UNL     1       4.606   5.368  17.885  0.00  0.00    +0.000 A 
ATOM      2  C   UNL     1       5.640   5.443  18.818  0.00  0.00    +0.000 A 
ATOM      3  C   UNL     1       6.949   5.178  18.424  0.00  0.00    +0.000 A 
ATOM      4  C   UNL     1       7.222   4.856  17.093  0.00  0.00    +0.000 A 
ATOM      5  C   UNL     1       6.204   4.760  16.127  0.00  0.00    +0.000 A 
ATOM      6  C   UNL     1       4.882   4.989  16.567  0.00  0.00    +0.000 A 
ENDROOT
BRANCH   5   7
ATOM      7  C   UNL     1       6.518   4.519  14.696  0.00  0.00    +0.000 A 
ATOM      8  C   UNL     1       7.535   5.225  14.026  0.00  0.00    +0.000 A 
ATOM      9  C   UNL     1       7.748   5.078  12.651  0.00  0.00    +0.000 A 
ATOM     10  C   UNL     1       6.965   4.197  11.914  0.00  0.00    +0.000 A 
ATOM     11  C   UNL     1       5.978   3.455  12.552  0.00  0.00    +0.000 A 
ATOM     12  C   UNL     1       5.758   3.617  13.924  0.00  0.00    +0.000 A 
ENDBRANCH   5   7
BRANCH   1  13
ATOM     13  S   UNL     1       2.941   5.827  18.334  0.00  0.00    +0.000 S 
BRANCH  13  14
ATOM     14  C   UNL     1       2.843   4.942  19.937  0.00  0.00    +0.000 C 
BRANCH  14  15
ATOM     15  C   UNL     1       1.379   4.779  20.377  0.00  0.00    +0.000 C 
BRANCH  15  17
ATOM     16  C   UNL     1       0.976   2.614  19.410  0.00  0.00    +0.000 C 
ATOM     17  N   UNL     1       0.980   3.382  20.661  0.00  0.00    +0.000 NA
ATOM     18  C   UNL     1       1.866   2.731  21.628  0.00  0.00    +0.000 C 
ENDBRANCH  15  17
ENDBRANCH  14  15
ENDBRANCH  13  14
ENDBRANCH   1  13
TORSDOF 5
ENDMDL
MODEL 7
REMARK VINA RESULT:      -6.5      2.461      6.960
REMARK  Name = 
REMARK  7 active torsions:
REMARK  status: ('A' for Active; 'I' for Inactive)
REMARK    1  A    between atoms: C_1  and  N_2
REMARK    2  A    between atoms: N_2  and  C_3
REMARK    3  A    between atoms: N_2  and  C_4
REMARK    4  A    between atoms: C_4  and  C_5
REMARK    5  A    between atoms: C_5  and  S_6
REMARK    6  A    between atoms: S_6  and  C_7
REMARK    7  A    between atoms: C_11  and  C_12
REMARK                            x       y       z     vdW  Elec       q    Type
REMARK                         _______ _______ _______ _____ _____    ______ ____
ROOT
ATOM      1  C   UNL     1       4.731   4.650  17.906  0.00  0.00    +0.000 A 
ATOM      2  C   UNL     1       4.433   5.994  18.124  0.00  0.00    +0.000 A 
ATOM      3  C   UNL     1       4.679   6.930  17.122  0.00  0.00    +0.000 A 
ATOM      4  C   UNL     1       5.206   6.514  15.897  0.00  0.00    +0.000 A 
ATOM      5  C   UNL     1       5.530   5.168  15.647  0.00  0.00    +0.000 A 
ATOM      6  C   UNL     1       5.313   4.251  16.697  0.00  0.00    +0.000 A 
ENDROOT
BRANCH   5   7
ATOM      7  C   UNL     1       5.993   4.723  14.307  0.00  0.00    +0.000 A 
ATOM      8  C   UNL     1       5.276   3.780  13.546  0.00  0.00    +0.000 A 
ATOM      9  C   UNL     1       5.776   3.278  12.339  0.00  0.00    +0.000 A 
ATOM     10  C   UNL     1       6.996   3.730  11.847  0.00  0.00    +0.000 A 
ATOM     11  C   UNL     1       7.709   4.690  12.555  0.00  0.00    +0.000 A 
ATOM     12  C   UNL     1       7.213   5.177  13.768  0.00  0.00    +0.000 A 
ENDBRANCH   5   7
BRANCH   1  13
ATOM     13  S   UNL     1       4.307   3.415  19.122  0.00  0.00    +0.000 S 
BRANCH  13  14
ATOM     14  C   UNL     1       3.116   4.405  20.105  0.00  0.00    +0.000 C 
BRANCH  14  15
ATOM     15  C   UNL     1       1.724   4.379  19.455  0.00  0.00    +0.000 C 
BRANCH  15  17
ATOM     16  C   UNL     1       0.724   2.245  18.977  0.00  0.00    +0.000 C 
ATOM     17  N   UNL     1       0.830   3.319  19.972  0.00  0.00    +0.000 NA
ATOM     18  C   UNL     1       1.298   2.759  21.242  0.00  0.00    +0.000 C 
ENDBRANCH  15  17
ENDBRANCH  14  15
ENDBRANCH  13  14
ENDBRANCH   1  13
TORSDOF 5
ENDMDL
MODEL 8
REMARK VINA RESULT:      -6.5      1.028      1.181
REMARK  Name = 
REMARK  7 active torsions:
REMARK  status: ('A' for Active; 'I' for Inactive)
REMARK    1  A    between atoms: C_1  and  N_2
REMARK    2  A    between atoms: N_2  and  C_3
REMARK    3  A    between atoms: N_2  and  C_4
REMARK    4  A    between atoms: C_4  and  C_5
REMARK    5  A    between atoms: C_5  and  S_6
REMARK    6  A    between atoms: S_6  and  C_7
REMARK    7  A    between atoms: C_11  and  C_12
REMARK                            x       y       z     vdW  Elec       q    Type
REMARK                         _______ _______ _______ _____ _____    ______ ____
ROOT
ATOM      1  C   UNL     1       5.255   4.705  15.927  0.00  0.00    +0.000 A 
ATOM      2  C   UNL     1       5.533   6.071  15.939  0.00  0.00    +0.000 A 
ATOM      3  C   UNL     1       4.794   6.921  16.758  0.00  0.00    +0.000 A 
ATOM      4  C   UNL     1       3.790   6.398  17.576  0.00  0.00    +0.000 A 
ATOM      5  C   UNL     1       3.473   5.028  17.580  0.00  0.00    +0.000 A 
ATOM      6  C   UNL     1       4.208   4.199  16.706  0.00  0.00    +0.000 A 
ENDROOT
BRANCH   5   7
ATOM      7  C   UNL     1       2.474   4.469  18.527  0.00  0.00    +0.000 A 
ATOM      8  C   UNL     1       2.218   5.065  19.777  0.00  0.00    +0.000 A 
ATOM      9  C   UNL     1       1.363   4.469  20.712  0.00  0.00    +0.000 A 
ATOM     10  C   UNL     1       0.719   3.275  20.408  0.00  0.00    +0.000 A 
ATOM     11  C   UNL     1       0.920   2.683  19.167  0.00  0.00    +0.000 A 
ATOM     12  C   UNL     1       1.787   3.272  18.242  0.00  0.00    +0.000 A 
ENDBRANCH   5   7
BRANCH   1  13
ATOM     13  S   UNL     1       6.269   3.579  14.986  0.00  0.00    +0.000 S 
BRANCH  13  14
ATOM     14  C   UNL     1       6.812   4.740  13.674  0.00  0.00    +0.000 C 
BRANCH  14  15
ATOM     15  C   UNL     1       6.709   4.080  12.289  0.00  0.00    +0.000 C 
BRANCH  15  17
ATOM     16  C   UNL     1       4.503   3.422  11.595  0.00  0.00    +0.000 C 
ATOM     17  N   UNL     1       5.748   2.958  12.219  0.00  0.00    +0.000 NA
ATOM     18  C   UNL     1       6.272   1.816  11.467  0.00  0.00    +0.000 C 
ENDBRANCH  15  17
ENDBRANCH  14  15
ENDBRANCH  13  14
ENDBRANCH   1  13
TORSDOF 5
ENDMDL
MODEL 9
REMARK VINA RESULT:      -6.5      2.617      6.974
REMARK  Name = 
REMARK  7 active torsions:
REMARK  status: ('A' for Active; 'I' for Inactive)
REMARK    1  A    between atoms: C_1  and  N_2
REMARK    2  A    between atoms: N_2  and  C_3
REMARK    3  A    between atoms: N_2  and  C_4
REMARK    4  A    between atoms: C_4  and  C_5
REMARK    5  A    between atoms: C_5  and  S_6
REMARK    6  A    between atoms: S_6  and  C_7
REMARK    7  A    between atoms: C_11  and  C_12
REMARK                            x       y       z     vdW  Elec       q    Type
REMARK                         _______ _______ _______ _____ _____    ______ ____
ROOT
ATOM      1  C   UNL     1       5.626   4.328  18.304  0.00  0.00    +0.000 A 
ATOM      2  C   UNL     1       6.265   5.423  18.883  0.00  0.00    +0.000 A 
ATOM      3  C   UNL     1       7.063   6.254  18.100  0.00  0.00    +0.000 A 
ATOM      4  C   UNL     1       7.203   5.996  16.734  0.00  0.00    +0.000 A 
ATOM      5  C   UNL     1       6.583   4.893  16.119  0.00  0.00    +0.000 A 
ATOM      6  C   UNL     1       5.819   4.044  16.947  0.00  0.00    +0.000 A 
ENDROOT
BRANCH   5   7
ATOM      7  C   UNL     1       6.656   4.688  14.649  0.00  0.00    +0.000 A 
ATOM      8  C   UNL     1       5.822   3.771  13.982  0.00  0.00    +0.000 A 
ATOM      9  C   UNL     1       5.976   3.497  12.618  0.00  0.00    +0.000 A 
ATOM     10  C   UNL     1       6.950   4.158  11.879  0.00  0.00    +0.000 A 
ATOM     11  C   UNL     1       7.763   5.099  12.499  0.00  0.00    +0.000 A 
ATOM     12  C   UNL     1       7.617   5.358  13.866  0.00  0.00    +0.000 A 
ENDBRANCH   5   7
BRANCH   1  13
ATOM     13  S   UNL     1       4.499   3.325  19.256  0.00  0.00    +0.000 S 
BRANCH  13  14
ATOM     14  C   UNL     1       3.332   4.644  19.767  0.00  0.00    +0.000 C 
BRANCH  14  15
ATOM     15  C   UNL     1       2.016   4.539  18.980  0.00  0.00    +0.000 C 
BRANCH  15  17
ATOM     16  C   UNL     1       0.875   2.426  18.855  0.00  0.00    +0.000 C 
ATOM     17  N   UNL     1       0.994   3.677  19.614  0.00  0.00    +0.000 NA
ATOM     18  C   UNL     1       1.308   3.369  21.011  0.00  0.00    +0.000 C 
ENDBRANCH  15  17
ENDBRANCH  14  15
ENDBRANCH  13  14
ENDBRANCH   1  13
TORSDOF 5
ENDMDL
