MODEL 1
REMARK VINA RESULT:      -7.1      0.000      0.000
REMARK  Name = 
REMARK  3 active torsions:
REMARK  status: ('A' for Active; 'I' for Inactive)
REMARK    1  A    between atoms: C_2  and  O_3
REMARK    2  A    between atoms: C_2  and  C_14
REMARK    3  A    between atoms: O_3  and  C_4
REMARK                            x       y       z     vdW  Elec       q    Type
REMARK                         _______ _______ _______ _____ _____    ______ ____
ROOT
ATOM      1  C   UNL     1       6.296   5.621  16.481  0.00  0.00    +0.000 A 
ATOM      2  C   UNL     1       7.280   6.379  17.122  0.00  0.00    +0.000 A 
ATOM      3  C   UNL     1       7.467   6.255  18.495  0.00  0.00    +0.000 A 
ATOM      4  C   UNL     1       6.654   5.400  19.235  0.00  0.00    +0.000 A 
ATOM      5  C   UNL     1       5.622   4.676  18.620  0.00  0.00    +0.000 A 
ATOM      6  C   UNL     1       4.783   3.856  19.391  0.00  0.00    +0.000 A 
ATOM      7  C   UNL     1       3.735   3.149  18.801  0.00  0.00    +0.000 A 
ATOM      8  C   UNL     1       3.523   3.247  17.431  0.00  0.00    +0.000 A 
ATOM      9  C   UNL     1       4.359   4.048  16.647  0.00  0.00    +0.000 A 
ATOM     10  C   UNL     1       5.422   4.781  17.220  0.00  0.00    +0.000 A 
ENDROOT
BRANCH   1  11
ATOM     11  O   UNL     1       6.104   5.701  15.074  0.00  0.00    +0.000 OA
BRANCH  11  13
ATOM     12  O   UNL     1       8.071   5.507  13.814  0.00  0.00    +0.000 OA
ATOM     13  C   UNL     1       6.981   5.089  14.176  0.00  0.00    +0.000 C 
BRANCH  13  14
ATOM     14  C   UNL     1       6.449   3.786  13.692  0.00  0.00    +0.000 C 
ATOM     15  C   UNL     1       5.127   3.712  12.958  0.00  0.00    +0.000 C 
ATOM     16  C   UNL     1       6.407   3.514  12.202  0.00  0.00    +0.000 C 
ENDBRANCH  13  14
ENDBRANCH  11  13
ENDBRANCH   1  11
TORSDOF 3
ENDMDL
MODEL 2
REMARK VINA RESULT:      -7.1      2.003      2.852
REMARK  Name = 
REMARK  3 active torsions:
REMARK  status: ('A' for Active; 'I' for Inactive)
REMARK    1  A    between atoms: C_2  and  O_3
REMARK    2  A    between atoms: C_2  and  C_14
REMARK    3  A    between atoms: O_3  and  C_4
REMARK                            x       y       z     vdW  Elec       q    Type
REMARK                         _______ _______ _______ _____ _____    ______ ____
ROOT
ATOM      1  C   UNL     1       4.598   5.583  17.677  0.00  0.00    +0.000 A 
ATOM      2  C   UNL     1       4.163   6.911  17.701  0.00  0.00    +0.000 A 
ATOM      3  C   UNL     1       2.832   7.202  17.978  0.00  0.00    +0.000 A 
ATOM      4  C   UNL     1       1.924   6.169  18.200  0.00  0.00    +0.000 A 
ATOM      5  C   UNL     1       2.327   4.827  18.121  0.00  0.00    +0.000 A 
ATOM      6  C   UNL     1       1.387   3.800  18.302  0.00  0.00    +0.000 A 
ATOM      7  C   UNL     1       1.763   2.461  18.201  0.00  0.00    +0.000 A 
ATOM      8  C   UNL     1       3.087   2.135  17.929  0.00  0.00    +0.000 A 
ATOM      9  C   UNL     1       4.038   3.147  17.762  0.00  0.00    +0.000 A 
ATOM     10  C   UNL     1       3.682   4.511  17.851  0.00  0.00    +0.000 A 
ENDROOT
BRANCH   1  11
ATOM     11  O   UNL     1       5.959   5.256  17.430  0.00  0.00    +0.000 OA
BRANCH  11  13
ATOM     12  O   UNL     1       7.631   6.406  16.254  0.00  0.00    +0.000 OA
ATOM     13  C   UNL     1       6.627   5.708  16.289  0.00  0.00    +0.000 C 
BRANCH  13  14
ATOM     14  C   UNL     1       5.985   5.208  15.043  0.00  0.00    +0.000 C 
ATOM     15  C   UNL     1       6.822   4.768  13.862  0.00  0.00    +0.000 C 
ATOM     16  C   UNL     1       6.106   3.740  14.688  0.00  0.00    +0.000 C 
ENDBRANCH  13  14
ENDBRANCH  11  13
ENDBRANCH   1  11
TORSDOF 3
ENDMDL
MODEL 3
REMARK VINA RESULT:      -7.0      2.483      3.864
REMARK  Name = 
REMARK  3 active torsions:
REMARK  status: ('A' for Active; 'I' for Inactive)
REMARK    1  A    between atoms: C_2  and  O_3
REMARK    2  A    between atoms: C_2  and  C_14
REMARK    3  A    between atoms: O_3  and  C_4
REMARK                            x       y       z     vdW  Elec       q    Type
REMARK                         _______ _______ _______ _____ _____    ______ ____
ROOT
ATOM      1  C   UNL     1       4.566   5.626  17.001  0.00  0.00    +0.000 A 
ATOM      2  C   UNL     1       4.315   6.994  17.152  0.00  0.00    +0.000 A 
ATOM      3  C   UNL     1       3.167   7.420  17.811  0.00  0.00    +0.000 A 
ATOM      4  C   UNL     1       2.251   6.487  18.291  0.00  0.00    +0.000 A 
ATOM      5  C   UNL     1       2.455   5.113  18.096  0.00  0.00    +0.000 A 
ATOM      6  C   UNL     1       1.497   4.190  18.547  0.00  0.00    +0.000 A 
ATOM      7  C   UNL     1       1.669   2.822  18.339  0.00  0.00    +0.000 A 
ATOM      8  C   UNL     1       2.808   2.361  17.689  0.00  0.00    +0.000 A 
ATOM      9  C   UNL     1       3.778   3.266  17.247  0.00  0.00    +0.000 A 
ATOM     10  C   UNL     1       3.625   4.658  17.437  0.00  0.00    +0.000 A 
ENDROOT
BRANCH   1  11
ATOM     11  O   UNL     1       5.748   5.160  16.362  0.00  0.00    +0.000 OA
BRANCH  11  13
ATOM     12  O   UNL     1       7.921   4.355  16.720  0.00  0.00    +0.000 OA
ATOM     13  C   UNL     1       6.953   5.025  17.054  0.00  0.00    +0.000 C 
BRANCH  13  14
ATOM     14  C   UNL     1       6.966   5.841  18.299  0.00  0.00    +0.000 C 
ATOM     15  C   UNL     1       8.123   5.756  19.270  0.00  0.00    +0.000 C 
ATOM     16  C   UNL     1       7.954   6.982  18.422  0.00  0.00    +0.000 C 
ENDBRANCH  13  14
ENDBRANCH  11  13
ENDBRANCH   1  11
TORSDOF 3
ENDMDL
MODEL 4
REMARK VINA RESULT:      -7.0      1.930      2.662
REMARK  Name = 
REMARK  3 active torsions:
REMARK  status: ('A' for Active; 'I' for Inactive)
REMARK    1  A    between atoms: C_2  and  O_3
REMARK    2  A    between atoms: C_2  and  C_14
REMARK    3  A    between atoms: O_3  and  C_4
REMARK                            x       y       z     vdW  Elec       q    Type
REMARK                         _______ _______ _______ _____ _____    ______ ____
ROOT
ATOM      1  C   UNL     1       4.493   4.636  17.093  0.00  0.00    +0.000 A 
ATOM      2  C   UNL     1       4.588   6.030  17.077  0.00  0.00    +0.000 A 
ATOM      3  C   UNL     1       3.642   6.799  17.745  0.00  0.00    +0.000 A 
ATOM      4  C   UNL     1       2.581   6.182  18.404  0.00  0.00    +0.000 A 
ATOM      5  C   UNL     1       2.434   4.787  18.381  0.00  0.00    +0.000 A 
ATOM      6  C   UNL     1       1.332   4.187  19.012  0.00  0.00    +0.000 A 
ATOM      7  C   UNL     1       1.154   2.804  18.978  0.00  0.00    +0.000 A 
ATOM      8  C   UNL     1       2.085   2.005  18.322  0.00  0.00    +0.000 A 
ATOM      9  C   UNL     1       3.195   2.587  17.703  0.00  0.00    +0.000 A 
ATOM     10  C   UNL     1       3.395   3.985  17.715  0.00  0.00    +0.000 A 
ENDROOT
BRANCH   1  11
ATOM     11  O   UNL     1       5.465   3.822  16.447  0.00  0.00    +0.000 OA
BRANCH  11  13
ATOM     12  O   UNL     1       7.698   4.503  16.227  0.00  0.00    +0.000 OA
ATOM     13  C   UNL     1       6.564   4.375  15.787  0.00  0.00    +0.000 C 
BRANCH  13  14
ATOM     14  C   UNL     1       6.217   4.797  14.402  0.00  0.00    +0.000 C 
ATOM     15  C   UNL     1       7.262   4.800  13.308  0.00  0.00    +0.000 C 
ATOM     16  C   UNL     1       6.184   3.757  13.301  0.00  0.00    +0.000 C 
ENDBRANCH  13  14
ENDBRANCH  11  13
ENDBRANCH   1  11
TORSDOF 3
ENDMDL
MODEL 5
REMARK VINA RESULT:      -6.9      3.018      5.744
REMARK  Name = 
REMARK  3 active torsions:
REMARK  status: ('A' for Active; 'I' for Inactive)
REMARK    1  A    between atoms: C_2  and  O_3
REMARK    2  A    between atoms: C_2  and  C_14
REMARK    3  A    between atoms: O_3  and  C_4
REMARK                            x       y       z     vdW  Elec       q    Type
REMARK                         _______ _______ _______ _____ _____    ______ ____
ROOT
ATOM      1  C   UNL     1       3.051   4.649  17.803  0.00  0.00    +0.000 A 
ATOM      2  C   UNL     1       2.477   5.776  18.399  0.00  0.00    +0.000 A 
ATOM      3  C   UNL     1       2.985   7.041  18.124  0.00  0.00    +0.000 A 
ATOM      4  C   UNL     1       4.085   7.184  17.282  0.00  0.00    +0.000 A 
ATOM      5  C   UNL     1       4.712   6.061  16.722  0.00  0.00    +0.000 A 
ATOM      6  C   UNL     1       5.848   6.222  15.912  0.00  0.00    +0.000 A 
ATOM      7  C   UNL     1       6.501   5.117  15.368  0.00  0.00    +0.000 A 
ATOM      8  C   UNL     1       6.017   3.838  15.619  0.00  0.00    +0.000 A 
ATOM      9  C   UNL     1       4.878   3.662  16.411  0.00  0.00    +0.000 A 
ATOM     10  C   UNL     1       4.202   4.763  16.981  0.00  0.00    +0.000 A 
ENDROOT
BRANCH   1  11
ATOM     11  O   UNL     1       2.533   3.346  18.039  0.00  0.00    +0.000 OA
BRANCH  11  13
ATOM     12  O   UNL     1       3.870   2.201  19.587  0.00  0.00    +0.000 OA
ATOM     13  C   UNL     1       2.794   2.654  19.223  0.00  0.00    +0.000 C 
BRANCH  13  14
ATOM     14  C   UNL     1       1.576   2.536  20.070  0.00  0.00    +0.000 C 
ATOM     15  C   UNL     1       1.678   2.537  21.580  0.00  0.00    +0.000 C 
ATOM     16  C   UNL     1       1.117   3.735  20.874  0.00  0.00    +0.000 C 
ENDBRANCH  13  14
ENDBRANCH  11  13
ENDBRANCH   1  11
TORSDOF 3
ENDMDL
MODEL 6
REMARK VINA RESULT:      -6.8      2.411      3.309
REMARK  Name = 
REMARK  3 active torsions:
REMARK  status: ('A' for Active; 'I' for Inactive)
REMARK    1  A    between atoms: C_2  and  O_3
REMARK    2  A    between atoms: C_2  and  C_14
REMARK    3  A    between atoms: O_3  and  C_4
REMARK                            x       y       z     vdW  Elec       q    Type
REMARK                         _______ _______ _______ _____ _____    ______ ____
ROOT
ATOM      1  C   UNL     1       3.577   5.053  17.668  0.00  0.00    +0.000 A 
ATOM      2  C   UNL     1       3.623   6.451  17.693  0.00  0.00    +0.000 A 
ATOM      3  C   UNL     1       2.940   7.150  18.682  0.00  0.00    +0.000 A 
ATOM      4  C   UNL     1       2.184   6.462  19.628  0.00  0.00    +0.000 A 
ATOM      5  C   UNL     1       2.076   5.064  19.585  0.00  0.00    +0.000 A 
ATOM      6  C   UNL     1       1.272   4.393  20.519  0.00  0.00    +0.000 A 
ATOM      7  C   UNL     1       1.131   3.006  20.475  0.00  0.00    +0.000 A 
ATOM      8  C   UNL     1       1.804   2.275  19.503  0.00  0.00    +0.000 A 
ATOM      9  C   UNL     1       2.620   2.928  18.574  0.00  0.00    +0.000 A 
ATOM     10  C   UNL     1       2.774   4.332  18.591  0.00  0.00    +0.000 A 
ENDROOT
BRANCH   1  11
ATOM     11  O   UNL     1       4.292   4.309  16.690  0.00  0.00    +0.000 OA
BRANCH  11  13
ATOM     12  O   UNL     1       6.419   4.418  17.670  0.00  0.00    +0.000 OA
ATOM     13  C   UNL     1       5.685   4.212  16.714  0.00  0.00    +0.000 C 
BRANCH  13  14
ATOM     14  C   UNL     1       6.227   3.781  15.397  0.00  0.00    +0.000 C 
ATOM     15  C   UNL     1       5.566   4.213  14.106  0.00  0.00    +0.000 C 
ATOM     16  C   UNL     1       6.886   4.808  14.498  0.00  0.00    +0.000 C 
ENDBRANCH  13  14
ENDBRANCH  11  13
ENDBRANCH   1  11
TORSDOF 3
ENDMDL
MODEL 7
REMARK VINA RESULT:      -6.8      3.429      5.772
REMARK  Name = 
REMARK  3 active torsions:
REMARK  status: ('A' for Active; 'I' for Inactive)
REMARK    1  A    between atoms: C_2  and  O_3
REMARK    2  A    between atoms: C_2  and  C_14
REMARK    3  A    between atoms: O_3  and  C_4
REMARK                            x       y       z     vdW  Elec       q    Type
REMARK                         _______ _______ _______ _____ _____    ______ ____
ROOT
ATOM      1  C   UNL     1       3.630   4.729  18.443  0.00  0.00    +0.000 A 
ATOM      2  C   UNL     1       2.492   5.541  18.440  0.00  0.00    +0.000 A 
ATOM      3  C   UNL     1       2.572   6.847  17.969  0.00  0.00    +0.000 A 
ATOM      4  C   UNL     1       3.791   7.357  17.530  0.00  0.00    +0.000 A 
ATOM      5  C   UNL     1       4.957   6.578  17.581  0.00  0.00    +0.000 A 
ATOM      6  C   UNL     1       6.186   7.126  17.178  0.00  0.00    +0.000 A 
ATOM      7  C   UNL     1       7.359   6.376  17.246  0.00  0.00    +0.000 A 
ATOM      8  C   UNL     1       7.315   5.065  17.708  0.00  0.00    +0.000 A 
ATOM      9  C   UNL     1       6.096   4.501  18.099  0.00  0.00    +0.000 A 
ATOM     10  C   UNL     1       4.894   5.241  18.048  0.00  0.00    +0.000 A 
ENDROOT
BRANCH   1  11
ATOM     11  O   UNL     1       3.572   3.380  18.888  0.00  0.00    +0.000 OA
BRANCH  11  13
ATOM     12  O   UNL     1       1.921   2.234  17.679  0.00  0.00    +0.000 OA
ATOM     13  C   UNL     1       2.421   2.604  18.732  0.00  0.00    +0.000 C 
BRANCH  13  14
ATOM     14  C   UNL     1       1.837   2.220  20.046  0.00  0.00    +0.000 C 
ATOM     15  C   UNL     1       2.365   2.813  21.334  0.00  0.00    +0.000 C 
ATOM     16  C   UNL     1       1.022   3.238  20.817  0.00  0.00    +0.000 C 
ENDBRANCH  13  14
ENDBRANCH  11  13
ENDBRANCH   1  11
TORSDOF 3
ENDMDL
MODEL 8
REMARK VINA RESULT:      -6.7      2.350      4.446
REMARK  Name = 
REMARK  3 active torsions:
REMARK  status: ('A' for Active; 'I' for Inactive)
REMARK    1  A    between atoms: C_2  and  O_3
REMARK    2  A    between atoms: C_2  and  C_14
REMARK    3  A    between atoms: O_3  and  C_4
REMARK                            x       y       z     vdW  Elec       q    Type
REMARK                         _______ _______ _______ _____ _____    ______ ____
ROOT
ATOM      1  C   UNL     1       3.318   3.773  17.602  0.00  0.00    +0.000 A 
ATOM      2  C   UNL     1       3.139   2.389  17.697  0.00  0.00    +0.000 A 
ATOM      3  C   UNL     1       2.346   1.860  18.709  0.00  0.00    +0.000 A 
ATOM      4  C   UNL     1       1.756   2.703  19.647  0.00  0.00    +0.000 A 
ATOM      5  C   UNL     1       1.972   4.089  19.605  0.00  0.00    +0.000 A 
ATOM      6  C   UNL     1       1.407   4.918  20.586  0.00  0.00    +0.000 A 
ATOM      7  C   UNL     1       1.632   6.294  20.577  0.00  0.00    +0.000 A 
ATOM      8  C   UNL     1       2.416   6.857  19.577  0.00  0.00    +0.000 A 
ATOM      9  C   UNL     1       2.974   6.047  18.583  0.00  0.00    +0.000 A 
ATOM     10  C   UNL     1       2.769   4.649  18.574  0.00  0.00    +0.000 A 
ENDROOT
BRANCH   1  11
ATOM     11  O   UNL     1       4.097   4.346  16.559  0.00  0.00    +0.000 OA
BRANCH  11  13
ATOM     12  O   UNL     1       6.064   3.622  15.509  0.00  0.00    +0.000 OA
ATOM     13  C   UNL     1       5.470   4.117  16.456  0.00  0.00    +0.000 C 
BRANCH  13  14
ATOM     14  C   UNL     1       6.196   4.585  17.668  0.00  0.00    +0.000 C 
ATOM     15  C   UNL     1       7.709   4.621  17.701  0.00  0.00    +0.000 C 
ATOM     16  C   UNL     1       6.938   5.905  17.620  0.00  0.00    +0.000 C 
ENDBRANCH  13  14
ENDBRANCH  11  13
ENDBRANCH   1  11
TORSDOF 3
ENDMDL
MODEL 9
REMARK VINA RESULT:      -6.7      2.868      4.659
REMARK  Name = 
REMARK  3 active torsions:
REMARK  status: ('A' for Active; 'I' for Inactive)
REMARK    1  A    between atoms: C_2  and  O_3
REMARK    2  A    between atoms: C_2  and  C_14
REMARK    3  A    between atoms: O_3  and  C_4
REMARK                            x       y       z     vdW  Elec       q    Type
REMARK                         _______ _______ _______ _____ _____    ______ ____
ROOT
ATOM      1  C   UNL     1       4.332   4.888  18.264  0.00  0.00    +0.000 A 
ATOM      2  C   UNL     1       4.578   4.311  17.014  0.00  0.00    +0.000 A 
ATOM      3  C   UNL     1       3.701   3.360  16.504  0.00  0.00    +0.000 A 
ATOM      4  C   UNL     1       2.596   2.957  17.250  0.00  0.00    +0.000 A 
ATOM      5  C   UNL     1       2.365   3.480  18.532  0.00  0.00    +0.000 A 
ATOM      6  C   UNL     1       1.272   3.027  19.288  0.00  0.00    +0.000 A 
ATOM      7  C   UNL     1       1.041   3.515  20.574  0.00  0.00    +0.000 A 
ATOM      8  C   UNL     1       1.895   4.470  21.113  0.00  0.00    +0.000 A 
ATOM      9  C   UNL     1       2.980   4.942  20.366  0.00  0.00    +0.000 A 
ATOM     10  C   UNL     1       3.241   4.459  19.065  0.00  0.00    +0.000 A 
ENDROOT
BRANCH   1  11
ATOM     11  O   UNL     1       5.192   5.887  18.797  0.00  0.00    +0.000 OA
BRANCH  11  13
ATOM     12  O   UNL     1       6.973   5.005  20.041  0.00  0.00    +0.000 OA
ATOM     13  C   UNL     1       6.533   5.625  19.083  0.00  0.00    +0.000 C 
BRANCH  13  14
ATOM     14  C   UNL     1       7.436   6.179  18.037  0.00  0.00    +0.000 C 
ATOM     15  C   UNL     1       7.055   7.421  17.262  0.00  0.00    +0.000 C 
ATOM     16  C   UNL     1       8.142   7.495  18.293  0.00  0.00    +0.000 C 
ENDBRANCH  13  14
ENDBRANCH  11  13
ENDBRANCH   1  11
TORSDOF 3
ENDMDL
