MODEL 1
REMARK VINA RESULT:      -7.8      0.000      0.000
REMARK  Name = 
REMARK  5 active torsions:
REMARK  status: ('A' for Active; 'I' for Inactive)
REMARK    1  A    between atoms: C_1  and  C_2
REMARK    2  A    between atoms: N_5  and  C_6
REMARK    3  A    between atoms: C_6  and  C_7
REMARK    4  A    between atoms: C_7  and  N_8
REMARK    5  A    between atoms: N_11  and  C_12
REMARK                            x       y       z     vdW  Elec       q    Type
REMARK                         _______ _______ _______ _____ _____    ______ ____
ROOT
ATOM      1  N   UNL     1       1.371   9.206  19.103  0.00  0.00    +0.000 N 
ATOM      2  C   UNL     1       2.113   8.386  18.307  0.00  0.00    +0.000 C 
ATOM      3  O   UNL     1       2.504   8.711  17.196  0.00  0.00    +0.000 OA
ATOM      4  N   UNL     1       2.389   7.171  18.879  0.00  0.00    +0.000 N 
ATOM      5  H   UNL     1       1.217   8.964  20.071  0.00  0.00    +0.000 HD
ATOM      6  H   UNL     1       1.673   6.828  19.504  0.00  0.00    +0.000 HD
ENDROOT
BRANCH   4   7
ATOM      7  C   UNL     1       3.111   6.210  18.062  0.00  0.00    +0.000 C 
ATOM      8  C   UNL     1       4.636   6.307  18.247  0.00  0.00    +0.000 C 
ATOM      9  S   UNL     1       5.273   4.734  17.686  0.00  0.00    +0.000 S 
ATOM     10  O   UNL     1       5.510   4.781  16.257  0.00  0.00    +0.000 OA
ATOM     11  O   UNL     1       6.240   4.232  18.634  0.00  0.00    +0.000 OA
ATOM     12  C   UNL     1       3.768   3.880  17.938  0.00  0.00    +0.000 A 
ATOM     13  C   UNL     1       3.612   2.510  17.826  0.00  0.00    +0.000 A 
ATOM     14  C   UNL     1       2.345   1.993  18.073  0.00  0.00    +0.000 A 
ATOM     15  C   UNL     1       1.291   2.844  18.445  0.00  0.00    +0.000 A 
ATOM     16  C   UNL     1       1.477   4.231  18.537  0.00  0.00    +0.000 A 
ATOM     17  C   UNL     1       2.733   4.761  18.271  0.00  0.00    +0.000 A 
ENDBRANCH   4   7
BRANCH   1  18
ATOM     18  C   UNL     1       1.097  10.573  18.683  0.00  0.00    +0.000 C 
BRANCH  18  19
ATOM     19  C   UNL     1      -0.221  11.127  19.221  0.00  0.00    +0.000 C 
BRANCH  19  24
ATOM     20  C   UNL     1      -4.616  11.364  16.812  0.00  0.00    +0.000 C 
ATOM     21  C   UNL     1      -3.260  10.992  17.269  0.00  0.00    +0.000 A 
ATOM     22  C   UNL     1      -2.435   9.951  16.788  0.00  0.00    +0.000 A 
ATOM     23  N   UNL     1      -1.266   9.884  17.426  0.00  0.00    +0.000 NA
ATOM     24  N   UNL     1      -1.332  10.889  18.320  0.00  0.00    +0.000 N 
ATOM     25  C   UNL     1      -2.512  11.575  18.270  0.00  0.00    +0.000 A 
ENDBRANCH  19  24
ENDBRANCH  18  19
ENDBRANCH   1  18
TORSDOF 4
ENDMDL
MODEL 2
REMARK VINA RESULT:      -7.7      0.622      1.028
REMARK  Name = 
REMARK  5 active torsions:
REMARK  status: ('A' for Active; 'I' for Inactive)
REMARK    1  A    between atoms: C_1  and  C_2
REMARK    2  A    between atoms: N_5  and  C_6
REMARK    3  A    between atoms: C_6  and  C_7
REMARK    4  A    between atoms: C_7  and  N_8
REMARK    5  A    between atoms: N_11  and  C_12
REMARK                            x       y       z     vdW  Elec       q    Type
REMARK                         _______ _______ _______ _____ _____    ______ ____
ROOT
ATOM      1  N   UNL     1       1.321   9.088  19.465  0.00  0.00    +0.000 N 
ATOM      2  C   UNL     1       1.968   8.330  18.536  0.00  0.00    +0.000 C 
ATOM      3  O   UNL     1       2.033   8.634  17.354  0.00  0.00    +0.000 OA
ATOM      4  N   UNL     1       2.549   7.203  19.058  0.00  0.00    +0.000 N 
ATOM      5  H   UNL     1       1.438   8.889  20.448  0.00  0.00    +0.000 HD
ATOM      6  H   UNL     1       2.061   6.805  19.848  0.00  0.00    +0.000 HD
ENDROOT
BRANCH   4   7
ATOM      7  C   UNL     1       3.193   6.301  18.119  0.00  0.00    +0.000 C 
ATOM      8  C   UNL     1       4.729   6.386  18.176  0.00  0.00    +0.000 C 
ATOM      9  S   UNL     1       5.307   4.856  17.456  0.00  0.00    +0.000 S 
ATOM     10  O   UNL     1       5.418   5.001  16.018  0.00  0.00    +0.000 OA
ATOM     11  O   UNL     1       6.351   4.292  18.280  0.00  0.00    +0.000 OA
ATOM     12  C   UNL     1       3.825   3.985  17.780  0.00  0.00    +0.000 A 
ATOM     13  C   UNL     1       3.654   2.625  17.589  0.00  0.00    +0.000 A 
ATOM     14  C   UNL     1       2.410   2.091  17.910  0.00  0.00    +0.000 A 
ATOM     15  C   UNL     1       1.397   2.914  18.429  0.00  0.00    +0.000 A 
ATOM     16  C   UNL     1       1.597   4.292  18.599  0.00  0.00    +0.000 A 
ATOM     17  C   UNL     1       2.827   4.840  18.260  0.00  0.00    +0.000 A 
ENDBRANCH   4   7
BRANCH   1  18
ATOM     18  C   UNL     1       0.755  10.375  19.085  0.00  0.00    +0.000 C 
BRANCH  18  19
ATOM     19  C   UNL     1      -0.698  10.557  19.519  0.00  0.00    +0.000 C 
BRANCH  19  24
ATOM     20  C   UNL     1      -3.006   9.937  15.108  0.00  0.00    +0.000 C 
ATOM     21  C   UNL     1      -2.611  10.394  16.457  0.00  0.00    +0.000 A 
ATOM     22  C   UNL     1      -3.216  11.397  17.247  0.00  0.00    +0.000 A 
ATOM     23  N   UNL     1      -2.605  11.566  18.421  0.00  0.00    +0.000 NA
ATOM     24  N   UNL     1      -1.605  10.664  18.392  0.00  0.00    +0.000 N 
ATOM     25  C   UNL     1      -1.562   9.945  17.233  0.00  0.00    +0.000 A 
ENDBRANCH  19  24
ENDBRANCH  18  19
ENDBRANCH   1  18
TORSDOF 4
ENDMDL
MODEL 3
REMARK VINA RESULT:      -7.4      1.128      1.423
REMARK  Name = 
REMARK  5 active torsions:
REMARK  status: ('A' for Active; 'I' for Inactive)
REMARK    1  A    between atoms: C_1  and  C_2
REMARK    2  A    between atoms: N_5  and  C_6
REMARK    3  A    between atoms: C_6  and  C_7
REMARK    4  A    between atoms: C_7  and  N_8
REMARK    5  A    between atoms: N_11  and  C_12
REMARK                            x       y       z     vdW  Elec       q    Type
REMARK                         _______ _______ _______ _____ _____    ______ ____
ROOT
ATOM      1  N   UNL     1       1.410   9.268  19.923  0.00  0.00    +0.000 N 
ATOM      2  C   UNL     1       1.778   8.258  19.086  0.00  0.00    +0.000 C 
ATOM      3  O   UNL     1       1.471   8.227  17.903  0.00  0.00    +0.000 OA
ATOM      4  N   UNL     1       2.534   7.291  19.695  0.00  0.00    +0.000 N 
ATOM      5  H   UNL     1       1.826   9.339  20.841  0.00  0.00    +0.000 HD
ATOM      6  H   UNL     1       2.323   7.144  20.672  0.00  0.00    +0.000 HD
ENDROOT
BRANCH   4   7
ATOM      7  C   UNL     1       2.901   6.139  18.888  0.00  0.00    +0.000 C 
ATOM      8  C   UNL     1       4.418   6.052  18.639  0.00  0.00    +0.000 C 
ATOM      9  S   UNL     1       4.719   4.346  18.199  0.00  0.00    +0.000 S 
ATOM     10  O   UNL     1       4.542   4.167  16.772  0.00  0.00    +0.000 OA
ATOM     11  O   UNL     1       5.865   3.849  18.924  0.00  0.00    +0.000 OA
ATOM     12  C   UNL     1       3.275   3.746  18.984  0.00  0.00    +0.000 A 
ATOM     13  C   UNL     1       2.968   2.407  19.148  0.00  0.00    +0.000 A 
ATOM     14  C   UNL     1       1.781   2.105  19.807  0.00  0.00    +0.000 A 
ATOM     15  C   UNL     1       0.961   3.134  20.300  0.00  0.00    +0.000 A 
ATOM     16  C   UNL     1       1.293   4.483  20.106  0.00  0.00    +0.000 A 
ATOM     17  C   UNL     1       2.465   4.796  19.429  0.00  0.00    +0.000 A 
ENDBRANCH   4   7
BRANCH   1  18
ATOM     18  C   UNL     1       0.704  10.428  19.396  0.00  0.00    +0.000 C 
BRANCH  18  19
ATOM     19  C   UNL     1      -0.793  10.424  19.701  0.00  0.00    +0.000 C 
BRANCH  19  24
ATOM     20  C   UNL     1      -2.838   9.959  15.143  0.00  0.00    +0.000 C 
ATOM     21  C   UNL     1      -2.493  10.400  16.512  0.00  0.00    +0.000 A 
ATOM     22  C   UNL     1      -3.043  11.475  17.244  0.00  0.00    +0.000 A 
ATOM     23  N   UNL     1      -2.502  11.603  18.456  0.00  0.00    +0.000 NA
ATOM     24  N   UNL     1      -1.602  10.602  18.511  0.00  0.00    +0.000 N 
ATOM     25  C   UNL     1      -1.554   9.860  17.366  0.00  0.00    +0.000 A 
ENDBRANCH  19  24
ENDBRANCH  18  19
ENDBRANCH   1  18
TORSDOF 4
ENDMDL
MODEL 4
REMARK VINA RESULT:      -7.3      1.774      2.548
REMARK  Name = 
REMARK  5 active torsions:
REMARK  status: ('A' for Active; 'I' for Inactive)
REMARK    1  A    between atoms: C_1  and  C_2
REMARK    2  A    between atoms: N_5  and  C_6
REMARK    3  A    between atoms: C_6  and  C_7
REMARK    4  A    between atoms: C_7  and  N_8
REMARK    5  A    between atoms: N_11  and  C_12
REMARK                            x       y       z     vdW  Elec       q    Type
REMARK                         _______ _______ _______ _____ _____    ______ ____
ROOT
ATOM      1  N   UNL     1       1.391   9.139  19.394  0.00  0.00    +0.000 N 
ATOM      2  C   UNL     1       2.065   8.357  18.505  0.00  0.00    +0.000 C 
ATOM      3  O   UNL     1       2.312   8.709  17.360  0.00  0.00    +0.000 OA
ATOM      4  N   UNL     1       2.449   7.146  19.021  0.00  0.00    +0.000 N 
ATOM      5  H   UNL     1       1.360   8.880  20.370  0.00  0.00    +0.000 HD
ATOM      6  H   UNL     1       1.824   6.770  19.720  0.00  0.00    +0.000 HD
ENDROOT
BRANCH   4   7
ATOM      7  C   UNL     1       3.105   6.222  18.111  0.00  0.00    +0.000 C 
ATOM      8  C   UNL     1       4.639   6.319  18.177  0.00  0.00    +0.000 C 
ATOM      9  S   UNL     1       5.232   4.773  17.503  0.00  0.00    +0.000 S 
ATOM     10  O   UNL     1       5.353   4.879  16.063  0.00  0.00    +0.000 OA
ATOM     11  O   UNL     1       6.272   4.238  18.350  0.00  0.00    +0.000 OA
ATOM     12  C   UNL     1       3.752   3.902  17.840  0.00  0.00    +0.000 A 
ATOM     13  C   UNL     1       3.590   2.537  17.685  0.00  0.00    +0.000 A 
ATOM     14  C   UNL     1       2.347   2.005  18.012  0.00  0.00    +0.000 A 
ATOM     15  C   UNL     1       1.326   2.835  18.501  0.00  0.00    +0.000 A 
ATOM     16  C   UNL     1       1.516   4.218  18.635  0.00  0.00    +0.000 A 
ATOM     17  C   UNL     1       2.746   4.764  18.290  0.00  0.00    +0.000 A 
ENDBRANCH   4   7
BRANCH   1  18
ATOM     18  C   UNL     1       1.022  10.500  19.030  0.00  0.00    +0.000 C 
BRANCH  18  19
ATOM     19  C   UNL     1      -0.469  10.793  19.192  0.00  0.00    +0.000 C 
BRANCH  19  24
ATOM     20  C   UNL     1      -2.510  12.759  23.333  0.00  0.00    +0.000 C 
ATOM     21  C   UNL     1      -1.722  11.948  22.379  0.00  0.00    +0.000 A 
ATOM     22  C   UNL     1      -0.807  10.912  22.667  0.00  0.00    +0.000 A 
ATOM     23  N   UNL     1      -0.261  10.387  21.570  0.00  0.00    +0.000 NA
ATOM     24  N   UNL     1      -0.831  11.083  20.566  0.00  0.00    +0.000 N 
ATOM     25  C   UNL     1      -1.706  12.035  21.003  0.00  0.00    +0.000 A 
ENDBRANCH  19  24
ENDBRANCH  18  19
ENDBRANCH   1  18
TORSDOF 4
ENDMDL
MODEL 5
REMARK VINA RESULT:      -7.2      3.183      7.997
REMARK  Name = 
REMARK  5 active torsions:
REMARK  status: ('A' for Active; 'I' for Inactive)
REMARK    1  A    between atoms: C_1  and  C_2
REMARK    2  A    between atoms: N_5  and  C_6
REMARK    3  A    between atoms: C_6  and  C_7
REMARK    4  A    between atoms: C_7  and  N_8
REMARK    5  A    between atoms: N_11  and  C_12
REMARK                            x       y       z     vdW  Elec       q    Type
REMARK                         _______ _______ _______ _____ _____    ______ ____
ROOT
ATOM      1  N   UNL     1       2.798   8.003  17.606  0.00  0.00    +0.000 N 
ATOM      2  C   UNL     1       1.888   8.556  18.455  0.00  0.00    +0.000 C 
ATOM      3  O   UNL     1       1.741   8.184  19.610  0.00  0.00    +0.000 OA
ATOM      4  N   UNL     1       1.165   9.576  17.893  0.00  0.00    +0.000 N 
ATOM      5  H   UNL     1       3.003   8.451  16.724  0.00  0.00    +0.000 HD
ATOM      6  H   UNL     1       1.002   9.480  16.901  0.00  0.00    +0.000 HD
ENDROOT
BRANCH   4   7
ATOM      7  C   UNL     1       0.119  10.167  18.710  0.00  0.00    +0.000 C 
ATOM      8  C   UNL     1       0.557  11.490  19.364  0.00  0.00    +0.000 C 
ATOM      9  S   UNL     1      -0.965  12.328  19.783  0.00  0.00    +0.000 S 
ATOM     10  O   UNL     1      -1.415  11.906  21.094  0.00  0.00    +0.000 OA
ATOM     11  O   UNL     1      -0.887  13.713  19.380  0.00  0.00    +0.000 OA
ATOM     12  C   UNL     1      -1.924  11.468  18.599  0.00  0.00    +0.000 A 
ATOM     13  C   UNL     1      -3.239  11.763  18.288  0.00  0.00    +0.000 A 
ATOM     14  C   UNL     1      -3.850  10.984  17.311  0.00  0.00    +0.000 A 
ATOM     15  C   UNL     1      -3.131   9.965  16.664  0.00  0.00    +0.000 A 
ATOM     16  C   UNL     1      -1.802   9.682  17.011  0.00  0.00    +0.000 A 
ATOM     17  C   UNL     1      -1.190  10.438  18.001  0.00  0.00    +0.000 A 
ENDBRANCH   4   7
BRANCH   1  18
ATOM     18  C   UNL     1       3.723   6.988  18.093  0.00  0.00    +0.000 C 
BRANCH  18  19
ATOM     19  C   UNL     1       3.549   5.628  17.420  0.00  0.00    +0.000 C 
BRANCH  19  24
ATOM     20  C   UNL     1       1.235   3.118  21.097  0.00  0.00    +0.000 C 
ATOM     21  C   UNL     1       1.671   3.642  19.785  0.00  0.00    +0.000 A 
ATOM     22  C   UNL     1       1.197   3.282  18.504  0.00  0.00    +0.000 A 
ATOM     23  N   UNL     1       1.810   3.946  17.523  0.00  0.00    +0.000 NA
ATOM     24  N   UNL     1       2.679   4.744  18.173  0.00  0.00    +0.000 N 
ATOM     25  C   UNL     1       2.639   4.590  19.529  0.00  0.00    +0.000 A 
ENDBRANCH  19  24
ENDBRANCH  18  19
ENDBRANCH   1  18
TORSDOF 4
ENDMDL
MODEL 6
REMARK VINA RESULT:      -7.2      1.805      2.676
REMARK  Name = 
REMARK  5 active torsions:
REMARK  status: ('A' for Active; 'I' for Inactive)
REMARK    1  A    between atoms: C_1  and  C_2
REMARK    2  A    between atoms: N_5  and  C_6
REMARK    3  A    between atoms: C_6  and  C_7
REMARK    4  A    between atoms: C_7  and  N_8
REMARK    5  A    between atoms: N_11  and  C_12
REMARK                            x       y       z     vdW  Elec       q    Type
REMARK                         _______ _______ _______ _____ _____    ______ ____
ROOT
ATOM      1  N   UNL     1       1.571   9.514  18.557  0.00  0.00    +0.000 N 
ATOM      2  C   UNL     1       2.022   8.273  18.893  0.00  0.00    +0.000 C 
ATOM      3  O   UNL     1       1.944   7.819  20.026  0.00  0.00    +0.000 OA
ATOM      4  N   UNL     1       2.556   7.581  17.838  0.00  0.00    +0.000 N 
ATOM      5  H   UNL     1       1.499   9.778  17.585  0.00  0.00    +0.000 HD
ATOM      6  H   UNL     1       3.005   8.157  17.140  0.00  0.00    +0.000 HD
ENDROOT
BRANCH   4   7
ATOM      7  C   UNL     1       3.130   6.278  18.130  0.00  0.00    +0.000 C 
ATOM      8  C   UNL     1       2.063   5.174  18.235  0.00  0.00    +0.000 C 
ATOM      9  S   UNL     1       2.952   3.643  17.984  0.00  0.00    +0.000 S 
ATOM     10  O   UNL     1       3.477   3.166  19.248  0.00  0.00    +0.000 OA
ATOM     11  O   UNL     1       2.229   2.804  17.058  0.00  0.00    +0.000 OA
ATOM     12  C   UNL     1       4.275   4.395  17.120  0.00  0.00    +0.000 A 
ATOM     13  C   UNL     1       5.292   3.706  16.485  0.00  0.00    +0.000 A 
ATOM     14  C   UNL     1       6.261   4.462  15.833  0.00  0.00    +0.000 A 
ATOM     15  C   UNL     1       6.171   5.864  15.814  0.00  0.00    +0.000 A 
ATOM     16  C   UNL     1       5.135   6.535  16.479  0.00  0.00    +0.000 A 
ATOM     17  C   UNL     1       4.175   5.790  17.152  0.00  0.00    +0.000 A 
ENDBRANCH   4   7
BRANCH   1  18
ATOM     18  C   UNL     1       0.870  10.324  19.545  0.00  0.00    +0.000 C 
BRANCH  18  19
ATOM     19  C   UNL     1       0.126  11.515  18.943  0.00  0.00    +0.000 C 
BRANCH  19  24
ATOM     20  C   UNL     1      -4.552  11.311  17.139  0.00  0.00    +0.000 C 
ATOM     21  C   UNL     1      -3.138  11.029  17.468  0.00  0.00    +0.000 A 
ATOM     22  C   UNL     1      -2.355   9.924  17.067  0.00  0.00    +0.000 A 
ATOM     23  N   UNL     1      -1.111   9.973  17.545  0.00  0.00    +0.000 NA
ATOM     24  N   UNL     1      -1.087  11.119  18.253  0.00  0.00    +0.000 N 
ATOM     25  C   UNL     1      -2.281  11.781  18.244  0.00  0.00    +0.000 A 
ENDBRANCH  19  24
ENDBRANCH  18  19
ENDBRANCH   1  18
TORSDOF 4
ENDMDL
MODEL 7
REMARK VINA RESULT:      -7.1      1.795      2.948
REMARK  Name = 
REMARK  5 active torsions:
REMARK  status: ('A' for Active; 'I' for Inactive)
REMARK    1  A    between atoms: C_1  and  C_2
REMARK    2  A    between atoms: N_5  and  C_6
REMARK    3  A    between atoms: C_6  and  C_7
REMARK    4  A    between atoms: C_7  and  N_8
REMARK    5  A    between atoms: N_11  and  C_12
REMARK                            x       y       z     vdW  Elec       q    Type
REMARK                         _______ _______ _______ _____ _____    ______ ____
ROOT
ATOM      1  N   UNL     1       1.434   9.835  17.925  0.00  0.00    +0.000 N 
ATOM      2  C   UNL     1       1.908   8.705  18.520  0.00  0.00    +0.000 C 
ATOM      3  O   UNL     1       1.758   8.464  19.709  0.00  0.00    +0.000 OA
ATOM      4  N   UNL     1       2.556   7.862  17.655  0.00  0.00    +0.000 N 
ATOM      5  H   UNL     1       1.431   9.911  16.918  0.00  0.00    +0.000 HD
ATOM      6  H   UNL     1       3.035   8.324  16.896  0.00  0.00    +0.000 HD
ENDROOT
BRANCH   4   7
ATOM      7  C   UNL     1       3.159   6.670  18.228  0.00  0.00    +0.000 C 
ATOM      8  C   UNL     1       2.251   5.433  18.108  0.00  0.00    +0.000 C 
ATOM      9  S   UNL     1       3.348   4.033  18.283  0.00  0.00    +0.000 S 
ATOM     10  O   UNL     1       3.503   3.701  19.684  0.00  0.00    +0.000 OA
ATOM     11  O   UNL     1       3.054   3.053  17.263  0.00  0.00    +0.000 OA
ATOM     12  C   UNL     1       4.776   4.917  17.794  0.00  0.00    +0.000 A 
ATOM     13  C   UNL     1       6.015   4.346  17.564  0.00  0.00    +0.000 A 
ATOM     14  C   UNL     1       7.042   5.197  17.169  0.00  0.00    +0.000 A 
ATOM     15  C   UNL     1       6.799   6.568  16.992  0.00  0.00    +0.000 A 
ATOM     16  C   UNL     1       5.535   7.120  17.246  0.00  0.00    +0.000 A 
ATOM     17  C   UNL     1       4.507   6.284  17.663  0.00  0.00    +0.000 A 
ENDBRANCH   4   7
BRANCH   1  18
ATOM     18  C   UNL     1       0.621  10.772  18.689  0.00  0.00    +0.000 C 
BRANCH  18  19
ATOM     19  C   UNL     1      -0.768  10.238  19.035  0.00  0.00    +0.000 C 
BRANCH  19  24
ATOM     20  C   UNL     1      -3.459  10.079  14.804  0.00  0.00    +0.000 C 
ATOM     21  C   UNL     1      -2.913  10.429  16.133  0.00  0.00    +0.000 A 
ATOM     22  C   UNL     1      -3.334  11.459  17.003  0.00  0.00    +0.000 A 
ATOM     23  N   UNL     1      -2.620  11.506  18.128  0.00  0.00    +0.000 NA
ATOM     24  N   UNL     1      -1.738  10.497  17.989  0.00  0.00    +0.000 N 
ATOM     25  C   UNL     1      -1.868   9.829  16.805  0.00  0.00    +0.000 A 
ENDBRANCH  19  24
ENDBRANCH  18  19
ENDBRANCH   1  18
TORSDOF 4
ENDMDL
MODEL 8
REMARK VINA RESULT:      -7.0      1.861      2.340
REMARK  Name = 
REMARK  5 active torsions:
REMARK  status: ('A' for Active; 'I' for Inactive)
REMARK    1  A    between atoms: C_1  and  C_2
REMARK    2  A    between atoms: N_5  and  C_6
REMARK    3  A    between atoms: C_6  and  C_7
REMARK    4  A    between atoms: C_7  and  N_8
REMARK    5  A    between atoms: N_11  and  C_12
REMARK                            x       y       z     vdW  Elec       q    Type
REMARK                         _______ _______ _______ _____ _____    ______ ____
ROOT
ATOM      1  N   UNL     1       1.363   8.497  21.618  0.00  0.00    +0.000 N 
ATOM      2  C   UNL     1       1.799   7.895  20.476  0.00  0.00    +0.000 C 
ATOM      3  O   UNL     1       1.784   8.445  19.385  0.00  0.00    +0.000 OA
ATOM      4  N   UNL     1       2.266   6.622  20.674  0.00  0.00    +0.000 N 
ATOM      5  H   UNL     1       1.551   8.073  22.515  0.00  0.00    +0.000 HD
ATOM      6  H   UNL     1       1.810   6.117  21.420  0.00  0.00    +0.000 HD
ENDROOT
BRANCH   4   7
ATOM      7  C   UNL     1       2.677   5.883  19.492  0.00  0.00    +0.000 C 
ATOM      8  C   UNL     1       4.205   5.873  19.305  0.00  0.00    +0.000 C 
ATOM      9  S   UNL     1       4.533   4.480  18.233  0.00  0.00    +0.000 S 
ATOM     10  O   UNL     1       4.431   4.891  16.847  0.00  0.00    +0.000 OA
ATOM     11  O   UNL     1       5.640   3.713  18.754  0.00  0.00    +0.000 OA
ATOM     12  C   UNL     1       3.050   3.644  18.640  0.00  0.00    +0.000 A 
ATOM     13  C   UNL     1       2.737   2.358  18.238  0.00  0.00    +0.000 A 
ATOM     14  C   UNL     1       1.518   1.840  18.662  0.00  0.00    +0.000 A 
ATOM     15  C   UNL     1       0.671   2.602  19.485  0.00  0.00    +0.000 A 
ATOM     16  C   UNL     1       1.011   3.908  19.864  0.00  0.00    +0.000 A 
ATOM     17  C   UNL     1       2.216   4.444  19.428  0.00  0.00    +0.000 A 
ENDBRANCH   4   7
BRANCH   1  18
ATOM     18  C   UNL     1       0.947   9.893  21.589  0.00  0.00    +0.000 C 
BRANCH  18  19
ATOM     19  C   UNL     1      -0.497  10.093  21.135  0.00  0.00    +0.000 C 
BRANCH  19  24
ATOM     20  C   UNL     1      -0.124  14.456  18.686  0.00  0.00    +0.000 C 
ATOM     21  C   UNL     1      -0.470  13.079  19.099  0.00  0.00    +0.000 A 
ATOM     22  C   UNL     1      -1.312  12.158  18.437  0.00  0.00    +0.000 A 
ATOM     23  N   UNL     1      -1.415  10.997  19.084  0.00  0.00    +0.000 NA
ATOM     24  N   UNL     1      -0.631  11.165  20.167  0.00  0.00    +0.000 N 
ATOM     25  C   UNL     1      -0.052  12.400  20.224  0.00  0.00    +0.000 A 
ENDBRANCH  19  24
ENDBRANCH  18  19
ENDBRANCH   1  18
TORSDOF 4
ENDMDL
MODEL 9
REMARK VINA RESULT:      -7.0      1.532      2.251
REMARK  Name = 
REMARK  5 active torsions:
REMARK  status: ('A' for Active; 'I' for Inactive)
REMARK    1  A    between atoms: C_1  and  C_2
REMARK    2  A    between atoms: N_5  and  C_6
REMARK    3  A    between atoms: C_6  and  C_7
REMARK    4  A    between atoms: C_7  and  N_8
REMARK    5  A    between atoms: N_11  and  C_12
REMARK                            x       y       z     vdW  Elec       q    Type
REMARK                         _______ _______ _______ _____ _____    ______ ____
ROOT
ATOM      1  N   UNL     1       1.433   9.091  19.349  0.00  0.00    +0.000 N 
ATOM      2  C   UNL     1       2.107   8.307  18.462  0.00  0.00    +0.000 C 
ATOM      3  O   UNL     1       2.322   8.640  17.306  0.00  0.00    +0.000 OA
ATOM      4  N   UNL     1       2.531   7.118  18.996  0.00  0.00    +0.000 N 
ATOM      5  H   UNL     1       1.428   8.853  20.330  0.00  0.00    +0.000 HD
ATOM      6  H   UNL     1       1.930   6.741  19.715  0.00  0.00    +0.000 HD
ENDROOT
BRANCH   4   7
ATOM      7  C   UNL     1       3.191   6.190  18.092  0.00  0.00    +0.000 C 
ATOM      8  C   UNL     1       4.725   6.273  18.179  0.00  0.00    +0.000 C 
ATOM      9  S   UNL     1       5.314   4.724  17.509  0.00  0.00    +0.000 S 
ATOM     10  O   UNL     1       5.454   4.832  16.071  0.00  0.00    +0.000 OA
ATOM     11  O   UNL     1       6.338   4.178  18.368  0.00  0.00    +0.000 OA
ATOM     12  C   UNL     1       3.822   3.865  17.824  0.00  0.00    +0.000 A 
ATOM     13  C   UNL     1       3.651   2.502  17.664  0.00  0.00    +0.000 A 
ATOM     14  C   UNL     1       2.399   1.979  17.972  0.00  0.00    +0.000 A 
ATOM     15  C   UNL     1       1.379   2.817  18.450  0.00  0.00    +0.000 A 
ATOM     16  C   UNL     1       1.579   4.198  18.590  0.00  0.00    +0.000 A 
ATOM     17  C   UNL     1       2.818   4.735  18.263  0.00  0.00    +0.000 A 
ENDBRANCH   4   7
BRANCH   1  18
ATOM     18  C   UNL     1       1.022  10.435  18.964  0.00  0.00    +0.000 C 
BRANCH  18  19
ATOM     19  C   UNL     1      -0.477  10.566  18.703  0.00  0.00    +0.000 C 
BRANCH  19  24
ATOM     20  C   UNL     1      -1.872  12.577  23.082  0.00  0.00    +0.000 C 
ATOM     21  C   UNL     1      -1.768  12.200  21.656  0.00  0.00    +0.000 A 
ATOM     22  C   UNL     1      -2.589  12.616  20.585  0.00  0.00    +0.000 A 
ATOM     23  N   UNL     1      -2.223  12.083  19.419  0.00  0.00    +0.000 NA
ATOM     24  N   UNL     1      -1.156  11.324  19.736  0.00  0.00    +0.000 N 
ATOM     25  C   UNL     1      -0.851  11.355  21.067  0.00  0.00    +0.000 A 
ENDBRANCH  19  24
ENDBRANCH  18  19
ENDBRANCH   1  18
TORSDOF 4
ENDMDL
