MODEL 1
REMARK VINA RESULT:      -7.4      0.000      0.000
REMARK  Name = 
REMARK  13 active torsions:
REMARK  status: ('A' for Active; 'I' for Inactive)
REMARK    1  A    between atoms: C_1  and  C_2
REMARK    2  A    between atoms: C_2  and  C_3
REMARK    3  A    between atoms: C_3  and  N_4
REMARK    4  A    between atoms: N_4  and  C_5
REMARK    5  A    between atoms: N_4  and  C_23
REMARK    6  A    between atoms: C_5  and  C_6
REMARK    7  A    between atoms: C_9  and  C_10
REMARK    8  A    between atoms: C_12  and  O_13
REMARK    9  A    between atoms: O_13  and  C_14
REMARK   10  A    between atoms: C_15  and  O_16
REMARK   11  A    between atoms: O_16  and  C_17
REMARK   12  A    between atoms: C_18  and  O_19
REMARK   13  A    between atoms: O_19  and  C_20
REMARK                            x       y       z     vdW  Elec       q    Type
REMARK                         _______ _______ _______ _____ _____    ______ ____
ROOT
ATOM      1  C   UNL     1       1.107   9.329  19.027  0.00  0.00    +0.000 A 
ATOM      2  C   UNL     1       1.327   8.629  20.190  0.00  0.00    +0.000 A 
ATOM      3  O   UNL     1       2.159   7.588  19.908  0.00  0.00    +0.000 OA
ATOM      4  C   UNL     1       2.409   7.708  18.566  0.00  0.00    +0.000 A 
ATOM      5  N   UNL     1       1.777   8.710  17.990  0.00  0.00    +0.000 NA
ENDROOT
BRANCH   4   6
ATOM      6  C   UNL     1       3.352   6.760  17.983  0.00  0.00    +0.000 A 
ATOM      7  C   UNL     1       4.608   7.172  17.532  0.00  0.00    +0.000 A 
ATOM      8  C   UNL     1       5.528   6.247  17.027  0.00  0.00    +0.000 A 
ATOM      9  C   UNL     1       5.173   4.886  16.923  0.00  0.00    +0.000 A 
ATOM     10  C   UNL     1       3.885   4.468  17.314  0.00  0.00    +0.000 A 
ATOM     11  C   UNL     1       2.996   5.411  17.852  0.00  0.00    +0.000 A 
BRANCH   8  12
ATOM     12  O   UNL     1       6.788   6.607  16.610  0.00  0.00    +0.000 OA
ATOM     13  C   UNL     1       7.611   7.254  17.582  0.00  0.00    +0.000 C 
ENDBRANCH   8  12
BRANCH   9  14
ATOM     14  O   UNL     1       6.138   4.069  16.374  0.00  0.00    +0.000 OA
ATOM     15  C   UNL     1       6.094   3.893  14.963  0.00  0.00    +0.000 C 
ENDBRANCH   9  14
BRANCH  10  16
ATOM     16  O   UNL     1       3.552   3.151  17.130  0.00  0.00    +0.000 OA
ATOM     17  C   UNL     1       3.618   2.277  18.250  0.00  0.00    +0.000 C 
ENDBRANCH  10  16
ENDBRANCH   4   6
BRANCH   1  18
ATOM     18  C   UNL     1       0.508  10.693  18.868  0.00  0.00    +0.000 C 
BRANCH  18  19
ATOM     19  N   UNL     1      -0.886  10.987  19.257  0.00  0.00    +0.000 N 
BRANCH  19  20
ATOM     20  C   UNL     1      -1.881  10.893  18.269  0.00  0.00    +0.000 A 
ATOM     21  C   UNL     1      -1.771  10.025  17.165  0.00  0.00    +0.000 A 
ATOM     22  C   UNL     1      -2.770   9.907  16.189  0.00  0.00    +0.000 A 
ATOM     23  C   UNL     1      -3.918  10.671  16.277  0.00  0.00    +0.000 A 
ATOM     24  C   UNL     1      -4.072  11.536  17.346  0.00  0.00    +0.000 A 
ATOM     25  C   UNL     1      -3.075  11.635  18.331  0.00  0.00    +0.000 A 
ENDBRANCH  19  20
BRANCH  19  26
ATOM     26  C   UNL     1      -1.082  11.871  20.422  0.00  0.00    +0.000 C 
BRANCH  26  28
ATOM     27  C   UNL     1      -1.270  12.007  22.995  0.00  0.00    +0.000 C 
ATOM     28  C   UNL     1      -0.959  11.154  21.775  0.00  0.00    +0.000 C 
ENDBRANCH  26  28
ENDBRANCH  19  26
ENDBRANCH  18  19
ENDBRANCH   1  18
TORSDOF 9
ENDMDL
MODEL 2
REMARK VINA RESULT:      -7.2      0.644      2.518
REMARK  Name = 
REMARK  13 active torsions:
REMARK  status: ('A' for Active; 'I' for Inactive)
REMARK    1  A    between atoms: C_1  and  C_2
REMARK    2  A    between atoms: C_2  and  C_3
REMARK    3  A    between atoms: C_3  and  N_4
REMARK    4  A    between atoms: N_4  and  C_5
REMARK    5  A    between atoms: N_4  and  C_23
REMARK    6  A    between atoms: C_5  and  C_6
REMARK    7  A    between atoms: C_9  and  C_10
REMARK    8  A    between atoms: C_12  and  O_13
REMARK    9  A    between atoms: O_13  and  C_14
REMARK   10  A    between atoms: C_15  and  O_16
REMARK   11  A    between atoms: O_16  and  C_17
REMARK   12  A    between atoms: C_18  and  O_19
REMARK   13  A    between atoms: O_19  and  C_20
REMARK                            x       y       z     vdW  Elec       q    Type
REMARK                         _______ _______ _______ _____ _____    ______ ____
ROOT
ATOM      1  C   UNL     1       1.060   9.256  19.003  0.00  0.00    +0.000 A 
ATOM      2  C   UNL     1       1.347   8.617  20.185  0.00  0.00    +0.000 A 
ATOM      3  O   UNL     1       2.211   7.598  19.919  0.00  0.00    +0.000 OA
ATOM      4  C   UNL     1       2.411   7.669  18.564  0.00  0.00    +0.000 A 
ATOM      5  N   UNL     1       1.720   8.620  17.970  0.00  0.00    +0.000 NA
ENDROOT
BRANCH   4   6
ATOM      6  C   UNL     1       3.372   6.734  17.989  0.00  0.00    +0.000 A 
ATOM      7  C   UNL     1       3.088   5.369  17.897  0.00  0.00    +0.000 A 
ATOM      8  C   UNL     1       3.991   4.488  17.293  0.00  0.00    +0.000 A 
ATOM      9  C   UNL     1       5.228   4.967  16.812  0.00  0.00    +0.000 A 
ATOM     10  C   UNL     1       5.553   6.331  16.958  0.00  0.00    +0.000 A 
ATOM     11  C   UNL     1       4.613   7.199  17.534  0.00  0.00    +0.000 A 
BRANCH   8  12
ATOM     12  O   UNL     1       3.732   3.146  17.147  0.00  0.00    +0.000 OA
ATOM     13  C   UNL     1       2.467   2.693  17.633  0.00  0.00    +0.000 C 
ENDBRANCH   8  12
BRANCH   9  14
ATOM     14  O   UNL     1       6.058   4.008  16.274  0.00  0.00    +0.000 OA
ATOM     15  C   UNL     1       6.092   3.922  14.854  0.00  0.00    +0.000 C 
ENDBRANCH   9  14
BRANCH  10  16
ATOM     16  O   UNL     1       6.793   6.744  16.545  0.00  0.00    +0.000 OA
ATOM     17  C   UNL     1       7.587   7.500  17.450  0.00  0.00    +0.000 C 
ENDBRANCH  10  16
ENDBRANCH   4   6
BRANCH   1  18
ATOM     18  C   UNL     1       0.400  10.587  18.807  0.00  0.00    +0.000 C 
BRANCH  18  19
ATOM     19  N   UNL     1      -1.011  10.823  19.171  0.00  0.00    +0.000 N 
BRANCH  19  20
ATOM     20  C   UNL     1      -1.970  10.802  18.143  0.00  0.00    +0.000 A 
ATOM     21  C   UNL     1      -1.820  10.015  16.985  0.00  0.00    +0.000 A 
ATOM     22  C   UNL     1      -2.783   9.970  15.967  0.00  0.00    +0.000 A 
ATOM     23  C   UNL     1      -3.934  10.729  16.068  0.00  0.00    +0.000 A 
ATOM     24  C   UNL     1      -4.126  11.518  17.189  0.00  0.00    +0.000 A 
ATOM     25  C   UNL     1      -3.165  11.542  18.215  0.00  0.00    +0.000 A 
ENDBRANCH  19  20
BRANCH  19  26
ATOM     26  C   UNL     1      -1.264  11.595  20.402  0.00  0.00    +0.000 C 
BRANCH  26  28
ATOM     27  C   UNL     1      -1.237  14.173  20.232  0.00  0.00    +0.000 C 
ATOM     28  C   UNL     1      -0.453  12.896  20.497  0.00  0.00    +0.000 C 
ENDBRANCH  26  28
ENDBRANCH  19  26
ENDBRANCH  18  19
ENDBRANCH   1  18
TORSDOF 9
ENDMDL
MODEL 3
REMARK VINA RESULT:      -7.2      0.574      2.609
REMARK  Name = 
REMARK  13 active torsions:
REMARK  status: ('A' for Active; 'I' for Inactive)
REMARK    1  A    between atoms: C_1  and  C_2
REMARK    2  A    between atoms: C_2  and  C_3
REMARK    3  A    between atoms: C_3  and  N_4
REMARK    4  A    between atoms: N_4  and  C_5
REMARK    5  A    between atoms: N_4  and  C_23
REMARK    6  A    between atoms: C_5  and  C_6
REMARK    7  A    between atoms: C_9  and  C_10
REMARK    8  A    between atoms: C_12  and  O_13
REMARK    9  A    between atoms: O_13  and  C_14
REMARK   10  A    between atoms: C_15  and  O_16
REMARK   11  A    between atoms: O_16  and  C_17
REMARK   12  A    between atoms: C_18  and  O_19
REMARK   13  A    between atoms: O_19  and  C_20
REMARK                            x       y       z     vdW  Elec       q    Type
REMARK                         _______ _______ _______ _____ _____    ______ ____
ROOT
ATOM      1  C   UNL     1       1.236   9.350  19.152  0.00  0.00    +0.000 A 
ATOM      2  C   UNL     1       1.310   8.528  20.251  0.00  0.00    +0.000 A 
ATOM      3  O   UNL     1       2.076   7.450  19.925  0.00  0.00    +0.000 OA
ATOM      4  C   UNL     1       2.438   7.675  18.622  0.00  0.00    +0.000 A 
ATOM      5  N   UNL     1       1.933   8.777  18.107  0.00  0.00    +0.000 NA
ENDROOT
BRANCH   4   6
ATOM      6  C   UNL     1       3.346   6.708  18.013  0.00  0.00    +0.000 A 
ATOM      7  C   UNL     1       3.013   5.353  17.933  0.00  0.00    +0.000 A 
ATOM      8  C   UNL     1       3.863   4.442  17.298  0.00  0.00    +0.000 A 
ATOM      9  C   UNL     1       5.097   4.879  16.772  0.00  0.00    +0.000 A 
ATOM     10  C   UNL     1       5.473   6.231  16.904  0.00  0.00    +0.000 A 
ATOM     11  C   UNL     1       4.584   7.130  17.512  0.00  0.00    +0.000 A 
BRANCH   8  12
ATOM     12  O   UNL     1       3.554   3.109  17.164  0.00  0.00    +0.000 OA
ATOM     13  C   UNL     1       2.311   2.692  17.730  0.00  0.00    +0.000 C 
ENDBRANCH   8  12
BRANCH   9  14
ATOM     14  O   UNL     1       5.874   3.893  16.205  0.00  0.00    +0.000 OA
ATOM     15  C   UNL     1       5.985   3.907  14.787  0.00  0.00    +0.000 C 
ENDBRANCH   9  14
BRANCH  10  16
ATOM     16  O   UNL     1       6.710   6.602  16.444  0.00  0.00    +0.000 OA
ATOM     17  C   UNL     1       7.613   7.211  17.359  0.00  0.00    +0.000 C 
ENDBRANCH  10  16
ENDBRANCH   4   6
BRANCH   1  18
ATOM     18  C   UNL     1       0.760  10.770  19.089  0.00  0.00    +0.000 C 
BRANCH  18  19
ATOM     19  N   UNL     1      -0.532  11.189  19.668  0.00  0.00    +0.000 N 
BRANCH  19  20
ATOM     20  C   UNL     1      -1.689  11.025  18.886  0.00  0.00    +0.000 A 
ATOM     21  C   UNL     1      -2.827  11.840  19.040  0.00  0.00    +0.000 A 
ATOM     22  C   UNL     1      -3.975  11.699  18.248  0.00  0.00    +0.000 A 
ATOM     23  C   UNL     1      -4.029  10.719  17.275  0.00  0.00    +0.000 A 
ATOM     24  C   UNL     1      -2.934   9.894  17.086  0.00  0.00    +0.000 A 
ATOM     25  C   UNL     1      -1.779  10.054  17.871  0.00  0.00    +0.000 A 
ENDBRANCH  19  20
BRANCH  19  26
ATOM     26  C   UNL     1      -0.490  12.225  20.717  0.00  0.00    +0.000 C 
BRANCH  26  28
ATOM     27  C   UNL     1      -0.618  10.415  22.556  0.00  0.00    +0.000 C 
ATOM     28  C   UNL     1      -1.086  11.775  22.060  0.00  0.00    +0.000 C 
ENDBRANCH  26  28
ENDBRANCH  19  26
ENDBRANCH  18  19
ENDBRANCH   1  18
TORSDOF 9
ENDMDL
MODEL 4
REMARK VINA RESULT:      -7.2      5.618      9.336
REMARK  Name = 
REMARK  13 active torsions:
REMARK  status: ('A' for Active; 'I' for Inactive)
REMARK    1  A    between atoms: C_1  and  C_2
REMARK    2  A    between atoms: C_2  and  C_3
REMARK    3  A    between atoms: C_3  and  N_4
REMARK    4  A    between atoms: N_4  and  C_5
REMARK    5  A    between atoms: N_4  and  C_23
REMARK    6  A    between atoms: C_5  and  C_6
REMARK    7  A    between atoms: C_9  and  C_10
REMARK    8  A    between atoms: C_12  and  O_13
REMARK    9  A    between atoms: O_13  and  C_14
REMARK   10  A    between atoms: C_15  and  O_16
REMARK   11  A    between atoms: O_16  and  C_17
REMARK   12  A    between atoms: C_18  and  O_19
REMARK   13  A    between atoms: O_19  and  C_20
REMARK                            x       y       z     vdW  Elec       q    Type
REMARK                         _______ _______ _______ _____ _____    ______ ____
ROOT
ATOM      1  C   UNL     1       7.147   7.391  17.378  0.00  0.00    +0.000 A 
ATOM      2  C   UNL     1       7.889   6.814  18.380  0.00  0.00    +0.000 A 
ATOM      3  O   UNL     1       8.677   7.776  18.934  0.00  0.00    +0.000 OA
ATOM      4  C   UNL     1       8.369   8.912  18.231  0.00  0.00    +0.000 A 
ATOM      5  N   UNL     1       7.487   8.725  17.270  0.00  0.00    +0.000 NA
ENDROOT
BRANCH   4   6
ATOM      6  C   UNL     1       9.011  10.149  18.662  0.00  0.00    +0.000 A 
ATOM      7  C   UNL     1       9.561  11.040  17.736  0.00  0.00    +0.000 A 
ATOM      8  C   UNL     1      10.124  12.250  18.153  0.00  0.00    +0.000 A 
ATOM      9  C   UNL     1      10.187  12.562  19.527  0.00  0.00    +0.000 A 
ATOM     10  C   UNL     1       9.694  11.642  20.475  0.00  0.00    +0.000 A 
ATOM     11  C   UNL     1       9.100  10.453  20.026  0.00  0.00    +0.000 A 
BRANCH   8  12
ATOM     12  O   UNL     1      10.640  13.171  17.271  0.00  0.00    +0.000 OA
ATOM     13  C   UNL     1      12.029  13.039  16.967  0.00  0.00    +0.000 C 
ENDBRANCH   8  12
BRANCH   9  14
ATOM     14  O   UNL     1      10.798  13.759  19.829  0.00  0.00    +0.000 OA
ATOM     15  C   UNL     1       9.941  14.872  20.054  0.00  0.00    +0.000 C 
ENDBRANCH   9  14
BRANCH  10  16
ATOM     16  O   UNL     1       9.837  11.948  21.803  0.00  0.00    +0.000 OA
ATOM     17  C   UNL     1       8.683  12.350  22.530  0.00  0.00    +0.000 C 
ENDBRANCH  10  16
ENDBRANCH   4   6
BRANCH   1  18
ATOM     18  C   UNL     1       5.948   6.831  16.673  0.00  0.00    +0.000 C 
BRANCH  18  19
ATOM     19  N   UNL     1       5.534   5.423  16.833  0.00  0.00    +0.000 N 
BRANCH  19  20
ATOM     20  C   UNL     1       4.694   5.100  17.913  0.00  0.00    +0.000 A 
ATOM     21  C   UNL     1       3.673   5.961  18.360  0.00  0.00    +0.000 A 
ATOM     22  C   UNL     1       2.815   5.636  19.420  0.00  0.00    +0.000 A 
ATOM     23  C   UNL     1       2.960   4.432  20.084  0.00  0.00    +0.000 A 
ATOM     24  C   UNL     1       3.949   3.553  19.679  0.00  0.00    +0.000 A 
ATOM     25  C   UNL     1       4.792   3.878  18.603  0.00  0.00    +0.000 A 
ENDBRANCH  19  20
BRANCH  19  26
ATOM     26  C   UNL     1       6.420   4.396  16.254  0.00  0.00    +0.000 C 
BRANCH  26  28
ATOM     27  C   UNL     1       6.068   3.882  13.746  0.00  0.00    +0.000 C 
ATOM     28  C   UNL     1       6.828   4.675  14.799  0.00  0.00    +0.000 C 
ENDBRANCH  26  28
ENDBRANCH  19  26
ENDBRANCH  18  19
ENDBRANCH   1  18
TORSDOF 9
ENDMDL
MODEL 5
REMARK VINA RESULT:      -7.2      2.559      8.881
REMARK  Name = 
REMARK  13 active torsions:
REMARK  status: ('A' for Active; 'I' for Inactive)
REMARK    1  A    between atoms: C_1  and  C_2
REMARK    2  A    between atoms: C_2  and  C_3
REMARK    3  A    between atoms: C_3  and  N_4
REMARK    4  A    between atoms: N_4  and  C_5
REMARK    5  A    between atoms: N_4  and  C_23
REMARK    6  A    between atoms: C_5  and  C_6
REMARK    7  A    between atoms: C_9  and  C_10
REMARK    8  A    between atoms: C_12  and  O_13
REMARK    9  A    between atoms: O_13  and  C_14
REMARK   10  A    between atoms: C_15  and  O_16
REMARK   11  A    between atoms: O_16  and  C_17
REMARK   12  A    between atoms: C_18  and  O_19
REMARK   13  A    between atoms: O_19  and  C_20
REMARK                            x       y       z     vdW  Elec       q    Type
REMARK                         _______ _______ _______ _____ _____    ______ ____
ROOT
ATOM      1  C   UNL     1       3.143   6.505  19.025  0.00  0.00    +0.000 A 
ATOM      2  C   UNL     1       3.366   7.214  17.869  0.00  0.00    +0.000 A 
ATOM      3  O   UNL     1       2.571   8.319  17.888  0.00  0.00    +0.000 OA
ATOM      4  C   UNL     1       1.892   8.227  19.076  0.00  0.00    +0.000 A 
ATOM      5  N   UNL     1       2.175   7.145  19.772  0.00  0.00    +0.000 NA
ENDROOT
BRANCH   4   6
ATOM      6  C   UNL     1       1.006   9.335  19.417  0.00  0.00    +0.000 A 
ATOM      7  C   UNL     1       0.826   9.736  20.743  0.00  0.00    +0.000 A 
ATOM      8  C   UNL     1       0.020  10.835  21.056  0.00  0.00    +0.000 A 
ATOM      9  C   UNL     1      -0.664  11.522  20.031  0.00  0.00    +0.000 A 
ATOM     10  C   UNL     1      -0.541  11.087  18.696  0.00  0.00    +0.000 A 
ATOM     11  C   UNL     1       0.305  10.006  18.406  0.00  0.00    +0.000 A 
BRANCH   8  12
ATOM     12  O   UNL     1      -0.152  11.286  22.344  0.00  0.00    +0.000 OA
ATOM     13  C   UNL     1      -0.910  10.440  23.210  0.00  0.00    +0.000 C 
ENDBRANCH   8  12
BRANCH   9  14
ATOM     14  O   UNL     1      -1.462  12.562  20.454  0.00  0.00    +0.000 OA
ATOM     15  C   UNL     1      -0.935  13.874  20.295  0.00  0.00    +0.000 C 
ENDBRANCH   9  14
BRANCH  10  16
ATOM     16  O   UNL     1      -1.277  11.735  17.738  0.00  0.00    +0.000 OA
ATOM     17  C   UNL     1      -2.419  11.076  17.206  0.00  0.00    +0.000 C 
ENDBRANCH  10  16
ENDBRANCH   4   6
BRANCH   1  18
ATOM     18  C   UNL     1       3.963   5.389  19.599  0.00  0.00    +0.000 C 
BRANCH  18  19
ATOM     19  N   UNL     1       4.269   4.166  18.831  0.00  0.00    +0.000 N 
BRANCH  19  20
ATOM     20  C   UNL     1       5.125   4.281  17.722  0.00  0.00    +0.000 A 
ATOM     21  C   UNL     1       4.679   4.095  16.400  0.00  0.00    +0.000 A 
ATOM     22  C   UNL     1       5.520   4.232  15.287  0.00  0.00    +0.000 A 
ATOM     23  C   UNL     1       6.854   4.549  15.463  0.00  0.00    +0.000 A 
ATOM     24  C   UNL     1       7.339   4.743  16.744  0.00  0.00    +0.000 A 
ATOM     25  C   UNL     1       6.484   4.623  17.853  0.00  0.00    +0.000 A 
ENDBRANCH  19  20
BRANCH  19  26
ATOM     26  C   UNL     1       3.278   3.075  18.890  0.00  0.00    +0.000 C 
BRANCH  26  28
ATOM     27  C   UNL     1       0.848   3.179  19.759  0.00  0.00    +0.000 C 
ATOM     28  C   UNL     1       1.832   3.535  18.655  0.00  0.00    +0.000 C 
ENDBRANCH  26  28
ENDBRANCH  19  26
ENDBRANCH  18  19
ENDBRANCH   1  18
TORSDOF 9
ENDMDL
MODEL 6
REMARK VINA RESULT:      -7.2      4.623      8.772
REMARK  Name = 
REMARK  13 active torsions:
REMARK  status: ('A' for Active; 'I' for Inactive)
REMARK    1  A    between atoms: C_1  and  C_2
REMARK    2  A    between atoms: C_2  and  C_3
REMARK    3  A    between atoms: C_3  and  N_4
REMARK    4  A    between atoms: N_4  and  C_5
REMARK    5  A    between atoms: N_4  and  C_23
REMARK    6  A    between atoms: C_5  and  C_6
REMARK    7  A    between atoms: C_9  and  C_10
REMARK    8  A    between atoms: C_12  and  O_13
REMARK    9  A    between atoms: O_13  and  C_14
REMARK   10  A    between atoms: C_15  and  O_16
REMARK   11  A    between atoms: O_16  and  C_17
REMARK   12  A    between atoms: C_18  and  O_19
REMARK   13  A    between atoms: O_19  and  C_20
REMARK                            x       y       z     vdW  Elec       q    Type
REMARK                         _______ _______ _______ _____ _____    ______ ____
ROOT
ATOM      1  C   UNL     1       7.303   7.191  17.528  0.00  0.00    +0.000 A 
ATOM      2  C   UNL     1       8.024   6.718  18.598  0.00  0.00    +0.000 A 
ATOM      3  O   UNL     1       8.743   7.751  19.117  0.00  0.00    +0.000 OA
ATOM      4  C   UNL     1       8.417   8.822  18.324  0.00  0.00    +0.000 A 
ATOM      5  N   UNL     1       7.589   8.529  17.342  0.00  0.00    +0.000 NA
ENDROOT
BRANCH   4   6
ATOM      6  C   UNL     1       8.985  10.114  18.693  0.00  0.00    +0.000 A 
ATOM      7  C   UNL     1       9.402  11.027  17.721  0.00  0.00    +0.000 A 
ATOM      8  C   UNL     1       9.892  12.285  18.082  0.00  0.00    +0.000 A 
ATOM      9  C   UNL     1      10.016  12.628  19.445  0.00  0.00    +0.000 A 
ATOM     10  C   UNL     1       9.660  11.691  20.437  0.00  0.00    +0.000 A 
ATOM     11  C   UNL     1       9.136  10.450  20.045  0.00  0.00    +0.000 A 
BRANCH   8  12
ATOM     12  O   UNL     1      10.275  13.226  17.156  0.00  0.00    +0.000 OA
ATOM     13  C   UNL     1      11.633  13.161  16.719  0.00  0.00    +0.000 C 
ENDBRANCH   8  12
BRANCH   9  14
ATOM     14  O   UNL     1      10.548  13.875  19.690  0.00  0.00    +0.000 OA
ATOM     15  C   UNL     1       9.620  14.922  19.948  0.00  0.00    +0.000 C 
ENDBRANCH   9  14
BRANCH  10  16
ATOM     16  O   UNL     1       9.863  12.034  21.748  0.00  0.00    +0.000 OA
ATOM     17  C   UNL     1       8.727  12.330  22.551  0.00  0.00    +0.000 C 
ENDBRANCH  10  16
ENDBRANCH   4   6
BRANCH   1  18
ATOM     18  C   UNL     1       6.163   6.528  16.815  0.00  0.00    +0.000 C 
BRANCH  18  19
ATOM     19  N   UNL     1       4.838   6.360  17.444  0.00  0.00    +0.000 N 
BRANCH  19  20
ATOM     20  C   UNL     1       4.475   5.075  17.884  0.00  0.00    +0.000 A 
ATOM     21  C   UNL     1       3.660   4.217  17.122  0.00  0.00    +0.000 A 
ATOM     22  C   UNL     1       3.314   2.926  17.543  0.00  0.00    +0.000 A 
ATOM     23  C   UNL     1       3.766   2.449  18.759  0.00  0.00    +0.000 A 
ATOM     24  C   UNL     1       4.572   3.256  19.543  0.00  0.00    +0.000 A 
ATOM     25  C   UNL     1       4.930   4.542  19.105  0.00  0.00    +0.000 A 
ENDBRANCH  19  20
BRANCH  19  26
ATOM     26  C   UNL     1       3.795   7.338  17.078  0.00  0.00    +0.000 C 
BRANCH  26  28
ATOM     27  C   UNL     1       1.832   8.774  17.948  0.00  0.00    +0.000 C 
ATOM     28  C   UNL     1       2.775   7.605  18.194  0.00  0.00    +0.000 C 
ENDBRANCH  26  28
ENDBRANCH  19  26
ENDBRANCH  18  19
ENDBRANCH   1  18
TORSDOF 9
ENDMDL
MODEL 7
REMARK VINA RESULT:      -7.1      2.650      8.915
REMARK  Name = 
REMARK  13 active torsions:
REMARK  status: ('A' for Active; 'I' for Inactive)
REMARK    1  A    between atoms: C_1  and  C_2
REMARK    2  A    between atoms: C_2  and  C_3
REMARK    3  A    between atoms: C_3  and  N_4
REMARK    4  A    between atoms: N_4  and  C_5
REMARK    5  A    between atoms: N_4  and  C_23
REMARK    6  A    between atoms: C_5  and  C_6
REMARK    7  A    between atoms: C_9  and  C_10
REMARK    8  A    between atoms: C_12  and  O_13
REMARK    9  A    between atoms: O_13  and  C_14
REMARK   10  A    between atoms: C_15  and  O_16
REMARK   11  A    between atoms: O_16  and  C_17
REMARK   12  A    between atoms: C_18  and  O_19
REMARK   13  A    between atoms: O_19  and  C_20
REMARK                            x       y       z     vdW  Elec       q    Type
REMARK                         _______ _______ _______ _____ _____    ______ ____
ROOT
ATOM      1  C   UNL     1       3.034   6.853  18.913  0.00  0.00    +0.000 A 
ATOM      2  C   UNL     1       3.279   7.546  17.751  0.00  0.00    +0.000 A 
ATOM      3  O   UNL     1       2.464   8.636  17.726  0.00  0.00    +0.000 OA
ATOM      4  C   UNL     1       1.753   8.554  18.895  0.00  0.00    +0.000 A 
ATOM      5  N   UNL     1       2.033   7.490  19.619  0.00  0.00    +0.000 NA
ENDROOT
BRANCH   4   6
ATOM      6  C   UNL     1       0.837   9.651  19.189  0.00  0.00    +0.000 A 
ATOM      7  C   UNL     1       0.035  10.212  18.192  0.00  0.00    +0.000 A 
ATOM      8  C   UNL     1      -0.880  11.225  18.494  0.00  0.00    +0.000 A 
ATOM      9  C   UNL     1      -0.967  11.727  19.809  0.00  0.00    +0.000 A 
ATOM     10  C   UNL     1      -0.118  11.215  20.810  0.00  0.00    +0.000 A 
ATOM     11  C   UNL     1       0.765  10.172  20.488  0.00  0.00    +0.000 A 
BRANCH   8  12
ATOM     12  O   UNL     1      -1.715  11.775  17.550  0.00  0.00    +0.000 OA
ATOM     13  C   UNL     1      -2.264  10.870  16.592  0.00  0.00    +0.000 C 
ENDBRANCH   8  12
BRANCH   9  14
ATOM     14  O   UNL     1      -1.872  12.751  19.987  0.00  0.00    +0.000 OA
ATOM     15  C   UNL     1      -3.192  12.376  20.361  0.00  0.00    +0.000 C 
ENDBRANCH   9  14
BRANCH  10  16
ATOM     16  O   UNL     1      -0.181  11.778  22.058  0.00  0.00    +0.000 OA
ATOM     17  C   UNL     1      -1.018  11.166  23.031  0.00  0.00    +0.000 C 
ENDBRANCH  10  16
ENDBRANCH   4   6
BRANCH   1  18
ATOM     18  C   UNL     1       3.857   5.764  19.532  0.00  0.00    +0.000 C 
BRANCH  18  19
ATOM     19  N   UNL     1       4.101   4.481  18.843  0.00  0.00    +0.000 N 
BRANCH  19  20
ATOM     20  C   UNL     1       5.056   4.457  17.812  0.00  0.00    +0.000 A 
ATOM     21  C   UNL     1       4.705   4.275  16.460  0.00  0.00    +0.000 A 
ATOM     22  C   UNL     1       5.648   4.275  15.424  0.00  0.00    +0.000 A 
ATOM     23  C   UNL     1       6.990   4.445  15.708  0.00  0.00    +0.000 A 
ATOM     24  C   UNL     1       7.383   4.629  17.022  0.00  0.00    +0.000 A 
ATOM     25  C   UNL     1       6.429   4.648  18.053  0.00  0.00    +0.000 A 
ENDBRANCH  19  20
BRANCH  19  26
ATOM     26  C   UNL     1       3.004   3.495  18.857  0.00  0.00    +0.000 C 
BRANCH  26  28
ATOM     27  C   UNL     1       0.855   3.837  20.250  0.00  0.00    +0.000 C 
ATOM     28  C   UNL     1       2.301   3.366  20.217  0.00  0.00    +0.000 C 
ENDBRANCH  26  28
ENDBRANCH  19  26
ENDBRANCH  18  19
ENDBRANCH   1  18
TORSDOF 9
ENDMDL
MODEL 8
REMARK VINA RESULT:      -7.1      2.555      9.176
REMARK  Name = 
REMARK  13 active torsions:
REMARK  status: ('A' for Active; 'I' for Inactive)
REMARK    1  A    between atoms: C_1  and  C_2
REMARK    2  A    between atoms: C_2  and  C_3
REMARK    3  A    between atoms: C_3  and  N_4
REMARK    4  A    between atoms: N_4  and  C_5
REMARK    5  A    between atoms: N_4  and  C_23
REMARK    6  A    between atoms: C_5  and  C_6
REMARK    7  A    between atoms: C_9  and  C_10
REMARK    8  A    between atoms: C_12  and  O_13
REMARK    9  A    between atoms: O_13  and  C_14
REMARK   10  A    between atoms: C_15  and  O_16
REMARK   11  A    between atoms: O_16  and  C_17
REMARK   12  A    between atoms: C_18  and  O_19
REMARK   13  A    between atoms: O_19  and  C_20
REMARK                            x       y       z     vdW  Elec       q    Type
REMARK                         _______ _______ _______ _____ _____    ______ ____
ROOT
ATOM      1  C   UNL     1       2.940   6.952  18.877  0.00  0.00    +0.000 A 
ATOM      2  C   UNL     1       3.168   7.693  17.743  0.00  0.00    +0.000 A 
ATOM      3  O   UNL     1       2.370   8.795  17.787  0.00  0.00    +0.000 OA
ATOM      4  C   UNL     1       1.684   8.669  18.968  0.00  0.00    +0.000 A 
ATOM      5  N   UNL     1       1.965   7.569  19.635  0.00  0.00    +0.000 NA
ENDROOT
BRANCH   4   6
ATOM      6  C   UNL     1       0.793   9.764  19.333  0.00  0.00    +0.000 A 
ATOM      7  C   UNL     1       0.655  10.174  20.662  0.00  0.00    +0.000 A 
ATOM      8  C   UNL     1      -0.157  11.261  20.998  0.00  0.00    +0.000 A 
ATOM      9  C   UNL     1      -0.890  11.929  19.994  0.00  0.00    +0.000 A 
ATOM     10  C   UNL     1      -0.810  11.485  18.659  0.00  0.00    +0.000 A 
ATOM     11  C   UNL     1       0.042  10.415  18.345  0.00  0.00    +0.000 A 
BRANCH   8  12
ATOM     12  O   UNL     1      -0.287  11.720  22.288  0.00  0.00    +0.000 OA
ATOM     13  C   UNL     1      -1.008  10.875  23.185  0.00  0.00    +0.000 C 
ENDBRANCH   8  12
BRANCH   9  14
ATOM     14  O   UNL     1      -1.689  12.959  20.440  0.00  0.00    +0.000 OA
ATOM     15  C   UNL     1      -3.075  12.671  20.586  0.00  0.00    +0.000 C 
ENDBRANCH   9  14
BRANCH  10  16
ATOM     16  O   UNL     1      -1.592  12.112  17.724  0.00  0.00    +0.000 OA
ATOM     17  C   UNL     1      -2.501  11.323  16.967  0.00  0.00    +0.000 C 
ENDBRANCH  10  16
ENDBRANCH   4   6
BRANCH   1  18
ATOM     18  C   UNL     1       3.759   5.823  19.425  0.00  0.00    +0.000 C 
BRANCH  18  19
ATOM     19  N   UNL     1       3.954   4.563  18.680  0.00  0.00    +0.000 N 
BRANCH  19  20
ATOM     20  C   UNL     1       4.998   4.507  17.741  0.00  0.00    +0.000 A 
ATOM     21  C   UNL     1       4.768   4.318  16.365  0.00  0.00    +0.000 A 
ATOM     22  C   UNL     1       5.801   4.286  15.419  0.00  0.00    +0.000 A 
ATOM     23  C   UNL     1       7.115   4.431  15.823  0.00  0.00    +0.000 A 
ATOM     24  C   UNL     1       7.391   4.621  17.165  0.00  0.00    +0.000 A 
ATOM     25  C   UNL     1       6.348   4.671  18.105  0.00  0.00    +0.000 A 
ENDBRANCH  19  20
BRANCH  19  26
ATOM     26  C   UNL     1       2.777   3.686  18.530  0.00  0.00    +0.000 C 
BRANCH  26  28
ATOM     27  C   UNL     1       3.686   1.272  18.382  0.00  0.00    +0.000 C 
ATOM     28  C   UNL     1       2.936   2.313  19.200  0.00  0.00    +0.000 C 
ENDBRANCH  26  28
ENDBRANCH  19  26
ENDBRANCH  18  19
ENDBRANCH   1  18
TORSDOF 9
ENDMDL
MODEL 9
REMARK VINA RESULT:      -7.0      2.834      8.935
REMARK  Name = 
REMARK  13 active torsions:
REMARK  status: ('A' for Active; 'I' for Inactive)
REMARK    1  A    between atoms: C_1  and  C_2
REMARK    2  A    between atoms: C_2  and  C_3
REMARK    3  A    between atoms: C_3  and  N_4
REMARK    4  A    between atoms: N_4  and  C_5
REMARK    5  A    between atoms: N_4  and  C_23
REMARK    6  A    between atoms: C_5  and  C_6
REMARK    7  A    between atoms: C_9  and  C_10
REMARK    8  A    between atoms: C_12  and  O_13
REMARK    9  A    between atoms: O_13  and  C_14
REMARK   10  A    between atoms: C_15  and  O_16
REMARK   11  A    between atoms: O_16  and  C_17
REMARK   12  A    between atoms: C_18  and  O_19
REMARK   13  A    between atoms: O_19  and  C_20
REMARK                            x       y       z     vdW  Elec       q    Type
REMARK                         _______ _______ _______ _____ _____    ______ ____
ROOT
ATOM      1  C   UNL     1       3.627   5.320  18.180  0.00  0.00    +0.000 A 
ATOM      2  C   UNL     1       3.170   4.816  19.374  0.00  0.00    +0.000 A 
ATOM      3  O   UNL     1       2.462   5.794  20.005  0.00  0.00    +0.000 OA
ATOM      4  C   UNL     1       2.523   6.862  19.148  0.00  0.00    +0.000 A 
ATOM      5  N   UNL     1       3.235   6.639  18.063  0.00  0.00    +0.000 NA
ENDROOT
BRANCH   4   6
ATOM      6  C   UNL     1       1.773   8.055  19.527  0.00  0.00    +0.000 A 
ATOM      7  C   UNL     1       1.838   9.224  18.764  0.00  0.00    +0.000 A 
ATOM      8  C   UNL     1       1.072  10.344  19.101  0.00  0.00    +0.000 A 
ATOM      9  C   UNL     1       0.257  10.319  20.253  0.00  0.00    +0.000 A 
ATOM     10  C   UNL     1       0.233   9.168  21.067  0.00  0.00    +0.000 A 
ATOM     11  C   UNL     1       0.982   8.046  20.683  0.00  0.00    +0.000 A 
BRANCH   8  12
ATOM     12  O   UNL     1       1.077  11.499  18.355  0.00  0.00    +0.000 OA
ATOM     13  C   UNL     1       2.278  12.271  18.401  0.00  0.00    +0.000 C 
ENDBRANCH   8  12
BRANCH   9  14
ATOM     14  O   UNL     1      -0.422  11.489  20.515  0.00  0.00    +0.000 OA
ATOM     15  C   UNL     1      -1.701  11.631  19.907  0.00  0.00    +0.000 C 
ENDBRANCH   9  14
BRANCH  10  16
ATOM     16  O   UNL     1      -0.514   9.208  22.216  0.00  0.00    +0.000 OA
ATOM     17  C   UNL     1       0.136   9.563  23.429  0.00  0.00    +0.000 C 
ENDBRANCH  10  16
ENDBRANCH   4   6
BRANCH   1  18
ATOM     18  C   UNL     1       4.199   4.568  17.016  0.00  0.00    +0.000 C 
BRANCH  18  19
ATOM     19  N   UNL     1       5.655   4.434  16.811  0.00  0.00    +0.000 N 
BRANCH  19  20
ATOM     20  C   UNL     1       6.497   5.387  17.410  0.00  0.00    +0.000 A 
ATOM     21  C   UNL     1       7.192   5.136  18.608  0.00  0.00    +0.000 A 
ATOM     22  C   UNL     1       8.052   6.072  19.198  0.00  0.00    +0.000 A 
ATOM     23  C   UNL     1       8.238   7.309  18.610  0.00  0.00    +0.000 A 
ATOM     24  C   UNL     1       7.577   7.601  17.431  0.00  0.00    +0.000 A 
ATOM     25  C   UNL     1       6.731   6.650  16.835  0.00  0.00    +0.000 A 
ENDBRANCH  19  20
BRANCH  19  26
ATOM     26  C   UNL     1       6.096   3.716  15.600  0.00  0.00    +0.000 C 
BRANCH  26  28
ATOM     27  C   UNL     1       5.994   3.665  13.019  0.00  0.00    +0.000 C 
ATOM     28  C   UNL     1       5.830   4.479  14.294  0.00  0.00    +0.000 C 
ENDBRANCH  26  28
ENDBRANCH  19  26
ENDBRANCH  18  19
ENDBRANCH   1  18
TORSDOF 9
ENDMDL
