MODEL 1
REMARK VINA RESULT:      -7.6      0.000      0.000
REMARK  Name = 
REMARK  4 active torsions:
REMARK  status: ('A' for Active; 'I' for Inactive)
REMARK    1  A    between atoms: C_1  and  C_2
REMARK    2  A    between atoms: C_2  and  C_3
REMARK    3  A    between atoms: C_2  and  N_4
REMARK    4  A    between atoms: C_8  and  C_9
REMARK                            x       y       z     vdW  Elec       q    Type
REMARK                         _______ _______ _______ _____ _____    ______ ____
ROOT
ATOM      1  N   UNL     1       3.593   3.443  18.042  0.00  0.00    +0.000 N 
ATOM      2  C   UNL     1       4.465   3.661  16.956  0.00  0.00    +0.000 A 
ATOM      3  O   UNL     1       5.032   2.730  16.390  0.00  0.00    +0.000 OA
ATOM      4  C   UNL     1       4.630   5.024  16.540  0.00  0.00    +0.000 A 
ATOM      5  C   UNL     1       5.263   5.611  15.455  0.00  0.00    +0.000 A 
ATOM      6  N   UNL     1       5.191   6.985  15.544  0.00  0.00    +0.000 NA
ATOM      7  C   UNL     1       4.474   7.224  16.621  0.00  0.00    +0.000 A 
ATOM      8  N   UNL     1       4.091   6.067  17.244  0.00  0.00    +0.000 N 
ATOM      9  C   UNL     1       3.314   5.877  18.400  0.00  0.00    +0.000 A 
ATOM     10  C   UNL     1       2.786   6.971  19.102  0.00  0.00    +0.000 A 
ATOM     11  C   UNL     1       2.056   6.756  20.267  0.00  0.00    +0.000 A 
ATOM     12  C   UNL     1       1.874   5.459  20.735  0.00  0.00    +0.000 A 
ATOM     13  C   UNL     1       2.385   4.370  20.021  0.00  0.00    +0.000 A 
ATOM     14  C   UNL     1       3.088   4.548  18.819  0.00  0.00    +0.000 A 
ENDROOT
BRANCH   5  15
ATOM     15  C   UNL     1       5.913   4.953  14.330  0.00  0.00    +0.000 A 
ATOM     16  C   UNL     1       7.237   5.280  13.996  0.00  0.00    +0.000 A 
ATOM     17  C   UNL     1       7.871   4.673  12.906  0.00  0.00    +0.000 A 
ATOM     18  C   UNL     1       7.184   3.730  12.139  0.00  0.00    +0.000 A 
ATOM     19  C   UNL     1       5.874   3.419  12.459  0.00  0.00    +0.000 A 
ATOM     20  F   UNL     1       5.212   2.518  11.723  0.00  0.00    +0.000 F 
ATOM     21  C   UNL     1       5.230   4.034  13.525  0.00  0.00    +0.000 A 
ENDBRANCH   5  15
BRANCH   1  23
ATOM     22  C   UNL     1       3.958   1.371  19.397  0.00  0.00    +0.000 C 
ATOM     23  C   UNL     1       3.137   2.053  18.290  0.00  0.00    +0.000 C 
ATOM     24  C   UNL     1       1.636   1.947  18.575  0.00  0.00    +0.000 C 
ENDBRANCH   1  23
TORSDOF 2
ENDMDL
MODEL 2
REMARK VINA RESULT:      -7.2      4.024      7.381
REMARK  Name = 
REMARK  4 active torsions:
REMARK  status: ('A' for Active; 'I' for Inactive)
REMARK    1  A    between atoms: C_1  and  C_2
REMARK    2  A    between atoms: C_2  and  C_3
REMARK    3  A    between atoms: C_2  and  N_4
REMARK    4  A    between atoms: C_8  and  C_9
REMARK                            x       y       z     vdW  Elec       q    Type
REMARK                         _______ _______ _______ _____ _____    ______ ____
ROOT
ATOM      1  N   UNL     1       2.611   4.726  19.608  0.00  0.00    +0.000 N 
ATOM      2  C   UNL     1       1.896   5.896  19.932  0.00  0.00    +0.000 A 
ATOM      3  O   UNL     1       1.045   5.905  20.817  0.00  0.00    +0.000 OA
ATOM      4  C   UNL     1       2.236   7.074  19.187  0.00  0.00    +0.000 A 
ATOM      5  C   UNL     1       1.874   8.408  19.310  0.00  0.00    +0.000 A 
ATOM      6  N   UNL     1       2.431   9.150  18.290  0.00  0.00    +0.000 NA
ATOM      7  C   UNL     1       3.165   8.301  17.605  0.00  0.00    +0.000 A 
ATOM      8  N   UNL     1       3.099   7.036  18.125  0.00  0.00    +0.000 N 
ATOM      9  C   UNL     1       3.735   5.853  17.711  0.00  0.00    +0.000 A 
ATOM     10  C   UNL     1       4.606   5.850  16.610  0.00  0.00    +0.000 A 
ATOM     11  C   UNL     1       5.188   4.656  16.196  0.00  0.00    +0.000 A 
ATOM     12  C   UNL     1       4.887   3.474  16.864  0.00  0.00    +0.000 A 
ATOM     13  C   UNL     1       4.034   3.486  17.973  0.00  0.00    +0.000 A 
ATOM     14  C   UNL     1       3.464   4.678  18.445  0.00  0.00    +0.000 A 
ENDROOT
BRANCH   5  15
ATOM     15  C   UNL     1       1.053   9.024  20.342  0.00  0.00    +0.000 A 
ATOM     16  C   UNL     1      -0.002   9.877  19.982  0.00  0.00    +0.000 A 
ATOM     17  C   UNL     1      -0.788  10.496  20.961  0.00  0.00    +0.000 A 
ATOM     18  C   UNL     1      -0.526  10.264  22.312  0.00  0.00    +0.000 A 
ATOM     19  C   UNL     1       0.525   9.436  22.667  0.00  0.00    +0.000 A 
ATOM     20  F   UNL     1       0.781   9.215  23.963  0.00  0.00    +0.000 F 
ATOM     21  C   UNL     1       1.324   8.837  21.703  0.00  0.00    +0.000 A 
ENDBRANCH   5  15
BRANCH   1  23
ATOM     22  C   UNL     1       1.319   2.691  20.278  0.00  0.00    +0.000 C 
ATOM     23  C   UNL     1       2.536   3.588  20.557  0.00  0.00    +0.000 C 
ATOM     24  C   UNL     1       3.824   2.762  20.619  0.00  0.00    +0.000 C 
ENDBRANCH   1  23
TORSDOF 2
ENDMDL
MODEL 3
REMARK VINA RESULT:      -7.1      7.833     11.784
REMARK  Name = 
REMARK  4 active torsions:
REMARK  status: ('A' for Active; 'I' for Inactive)
REMARK    1  A    between atoms: C_1  and  C_2
REMARK    2  A    between atoms: C_2  and  C_3
REMARK    3  A    between atoms: C_2  and  N_4
REMARK    4  A    between atoms: C_8  and  C_9
REMARK                            x       y       z     vdW  Elec       q    Type
REMARK                         _______ _______ _______ _____ _____    ______ ____
ROOT
ATOM      1  N   UNL     1      -0.172  11.268  19.140  0.00  0.00    +0.000 N 
ATOM      2  C   UNL     1      -0.644  11.844  20.337  0.00  0.00    +0.000 A 
ATOM      3  O   UNL     1      -1.194  12.942  20.348  0.00  0.00    +0.000 OA
ATOM      4  C   UNL     1      -0.465  11.066  21.529  0.00  0.00    +0.000 A 
ATOM      5  C   UNL     1      -0.913  11.217  22.833  0.00  0.00    +0.000 A 
ATOM      6  N   UNL     1      -0.406  10.215  23.632  0.00  0.00    +0.000 NA
ATOM      7  C   UNL     1       0.278   9.438  22.821  0.00  0.00    +0.000 A 
ATOM      8  N   UNL     1       0.251   9.899  21.531  0.00  0.00    +0.000 N 
ATOM      9  C   UNL     1       0.830   9.366  20.367  0.00  0.00    +0.000 A 
ATOM     10  C   UNL     1       1.567   8.172  20.410  0.00  0.00    +0.000 A 
ATOM     11  C   UNL     1       2.167   7.690  19.251  0.00  0.00    +0.000 A 
ATOM     12  C   UNL     1       2.047   8.406  18.065  0.00  0.00    +0.000 A 
ATOM     13  C   UNL     1       1.295   9.585  18.023  0.00  0.00    +0.000 A 
ATOM     14  C   UNL     1       0.640  10.077  19.163  0.00  0.00    +0.000 A 
ENDROOT
BRANCH   5  15
ATOM     15  C   UNL     1      -1.806  12.238  23.363  0.00  0.00    +0.000 A 
ATOM     16  C   UNL     1      -1.326  13.535  23.599  0.00  0.00    +0.000 A 
ATOM     17  C   UNL     1      -2.164  14.523  24.129  0.00  0.00    +0.000 A 
ATOM     18  C   UNL     1      -3.494  14.221  24.426  0.00  0.00    +0.000 A 
ATOM     19  C   UNL     1      -3.963  12.937  24.208  0.00  0.00    +0.000 A 
ATOM     20  F   UNL     1      -5.237  12.643  24.495  0.00  0.00    +0.000 F 
ATOM     21  C   UNL     1      -3.132  11.945  23.705  0.00  0.00    +0.000 A 
ENDBRANCH   5  15
BRANCH   1  23
ATOM     22  C   UNL     1      -2.091  11.524  17.555  0.00  0.00    +0.000 C 
ATOM     23  C   UNL     1      -0.624  11.870  17.861  0.00  0.00    +0.000 C 
ATOM     24  C   UNL     1      -0.388  13.381  17.783  0.00  0.00    +0.000 C 
ENDBRANCH   1  23
TORSDOF 2
ENDMDL
MODEL 4
REMARK VINA RESULT:      -7.1      1.070      1.451
REMARK  Name = 
REMARK  4 active torsions:
REMARK  status: ('A' for Active; 'I' for Inactive)
REMARK    1  A    between atoms: C_1  and  C_2
REMARK    2  A    between atoms: C_2  and  C_3
REMARK    3  A    between atoms: C_2  and  N_4
REMARK    4  A    between atoms: C_8  and  C_9
REMARK                            x       y       z     vdW  Elec       q    Type
REMARK                         _______ _______ _______ _____ _____    ______ ____
ROOT
ATOM      1  N   UNL     1       3.359   3.402  18.090  0.00  0.00    +0.000 N 
ATOM      2  C   UNL     1       4.286   3.690  17.069  0.00  0.00    +0.000 A 
ATOM      3  O   UNL     1       4.851   2.798  16.442  0.00  0.00    +0.000 OA
ATOM      4  C   UNL     1       4.512   5.080  16.792  0.00  0.00    +0.000 A 
ATOM      5  C   UNL     1       5.214   5.744  15.797  0.00  0.00    +0.000 A 
ATOM      6  N   UNL     1       5.179   7.105  16.014  0.00  0.00    +0.000 NA
ATOM      7  C   UNL     1       4.420   7.267  17.076  0.00  0.00    +0.000 A 
ATOM      8  N   UNL     1       3.973   6.070  17.568  0.00  0.00    +0.000 N 
ATOM      9  C   UNL     1       3.137   5.799  18.665  0.00  0.00    +0.000 A 
ATOM     10  C   UNL     1       2.610   6.840  19.445  0.00  0.00    +0.000 A 
ATOM     11  C   UNL     1       1.821   6.542  20.551  0.00  0.00    +0.000 A 
ATOM     12  C   UNL     1       1.577   5.214  20.885  0.00  0.00    +0.000 A 
ATOM     13  C   UNL     1       2.087   4.180  20.093  0.00  0.00    +0.000 A 
ATOM     14  C   UNL     1       2.851   4.446  18.945  0.00  0.00    +0.000 A 
ENDROOT
BRANCH   5  15
ATOM     15  C   UNL     1       5.896   5.172  14.644  0.00  0.00    +0.000 A 
ATOM     16  C   UNL     1       5.276   4.161  13.894  0.00  0.00    +0.000 A 
ATOM     17  C   UNL     1       5.925   3.584  12.796  0.00  0.00    +0.000 A 
ATOM     18  C   UNL     1       7.203   4.016  12.439  0.00  0.00    +0.000 A 
ATOM     19  C   UNL     1       7.821   5.002  13.189  0.00  0.00    +0.000 A 
ATOM     20  F   UNL     1       9.048   5.416  12.850  0.00  0.00    +0.000 F 
ATOM     21  C   UNL     1       7.193   5.562  14.293  0.00  0.00    +0.000 A 
ENDBRANCH   5  15
BRANCH   1  23
ATOM     22  C   UNL     1       3.735   1.138  19.088  0.00  0.00    +0.000 C 
ATOM     23  C   UNL     1       2.849   2.011  18.184  0.00  0.00    +0.000 C 
ATOM     24  C   UNL     1       1.380   1.929  18.609  0.00  0.00    +0.000 C 
ENDBRANCH   1  23
TORSDOF 2
ENDMDL
MODEL 5
REMARK VINA RESULT:      -7.1     10.120     13.237
REMARK  Name = 
REMARK  4 active torsions:
REMARK  status: ('A' for Active; 'I' for Inactive)
REMARK    1  A    between atoms: C_1  and  C_2
REMARK    2  A    between atoms: C_2  and  C_3
REMARK    3  A    between atoms: C_2  and  N_4
REMARK    4  A    between atoms: C_8  and  C_9
REMARK                            x       y       z     vdW  Elec       q    Type
REMARK                         _______ _______ _______ _____ _____    ______ ____
ROOT
ATOM      1  N   UNL     1      -4.823  12.176  18.640  0.00  0.00    +0.000 N 
ATOM      2  C   UNL     1      -4.296  12.706  19.835  0.00  0.00    +0.000 A 
ATOM      3  O   UNL     1      -4.952  13.457  20.551  0.00  0.00    +0.000 OA
ATOM      4  C   UNL     1      -2.962  12.298  20.175  0.00  0.00    +0.000 A 
ATOM      5  C   UNL     1      -2.177  12.477  21.303  0.00  0.00    +0.000 A 
ATOM      6  N   UNL     1      -0.924  11.937  21.106  0.00  0.00    +0.000 NA
ATOM      7  C   UNL     1      -0.970  11.385  19.913  0.00  0.00    +0.000 A 
ATOM      8  N   UNL     1      -2.192  11.556  19.320  0.00  0.00    +0.000 N 
ATOM      9  C   UNL     1      -2.661  11.116  18.070  0.00  0.00    +0.000 A 
ATOM     10  C   UNL     1      -1.838  10.366  17.215  0.00  0.00    +0.000 A 
ATOM     11  C   UNL     1      -2.313   9.980  15.965  0.00  0.00    +0.000 A 
ATOM     12  C   UNL     1      -3.590  10.357  15.567  0.00  0.00    +0.000 A 
ATOM     13  C   UNL     1      -4.414  11.088  16.431  0.00  0.00    +0.000 A 
ATOM     14  C   UNL     1      -3.984  11.456  17.715  0.00  0.00    +0.000 A 
ENDROOT
BRANCH   5  15
ATOM     15  C   UNL     1      -2.546  13.110  22.562  0.00  0.00    +0.000 A 
ATOM     16  C   UNL     1      -2.058  14.388  22.874  0.00  0.00    +0.000 A 
ATOM     17  C   UNL     1      -2.384  15.002  24.089  0.00  0.00    +0.000 A 
ATOM     18  C   UNL     1      -3.205  14.341  25.004  0.00  0.00    +0.000 A 
ATOM     19  C   UNL     1      -3.673  13.073  24.703  0.00  0.00    +0.000 A 
ATOM     20  F   UNL     1      -4.458  12.435  25.580  0.00  0.00    +0.000 F 
ATOM     21  C   UNL     1      -3.335  12.448  23.511  0.00  0.00    +0.000 A 
ENDBRANCH   5  15
BRANCH   1  23
ATOM     22  C   UNL     1      -6.609  13.087  17.142  0.00  0.00    +0.000 C 
ATOM     23  C   UNL     1      -6.287  12.297  18.421  0.00  0.00    +0.000 C 
ATOM     24  C   UNL     1      -7.016  10.951  18.434  0.00  0.00    +0.000 C 
ENDBRANCH   1  23
TORSDOF 2
ENDMDL
MODEL 6
REMARK VINA RESULT:      -7.0      3.911      7.272
REMARK  Name = 
REMARK  4 active torsions:
REMARK  status: ('A' for Active; 'I' for Inactive)
REMARK    1  A    between atoms: C_1  and  C_2
REMARK    2  A    between atoms: C_2  and  C_3
REMARK    3  A    between atoms: C_2  and  N_4
REMARK    4  A    between atoms: C_8  and  C_9
REMARK                            x       y       z     vdW  Elec       q    Type
REMARK                         _______ _______ _______ _____ _____    ______ ____
ROOT
ATOM      1  N   UNL     1       2.686   4.670  19.502  0.00  0.00    +0.000 N 
ATOM      2  C   UNL     1       1.986   5.842  19.851  0.00  0.00    +0.000 A 
ATOM      3  O   UNL     1       1.149   5.847  20.750  0.00  0.00    +0.000 OA
ATOM      4  C   UNL     1       2.324   7.026  19.114  0.00  0.00    +0.000 A 
ATOM      5  C   UNL     1       1.975   8.360  19.258  0.00  0.00    +0.000 A 
ATOM      6  N   UNL     1       2.521   9.110  18.237  0.00  0.00    +0.000 NA
ATOM      7  C   UNL     1       3.238   8.262  17.531  0.00  0.00    +0.000 A 
ATOM      8  N   UNL     1       3.169   6.992  18.038  0.00  0.00    +0.000 N 
ATOM      9  C   UNL     1       3.788   5.809  17.600  0.00  0.00    +0.000 A 
ATOM     10  C   UNL     1       4.641   5.811  16.485  0.00  0.00    +0.000 A 
ATOM     11  C   UNL     1       5.206   4.617  16.048  0.00  0.00    +0.000 A 
ATOM     12  C   UNL     1       4.906   3.430  16.707  0.00  0.00    +0.000 A 
ATOM     13  C   UNL     1       4.071   3.436  17.830  0.00  0.00    +0.000 A 
ATOM     14  C   UNL     1       3.519   4.628  18.325  0.00  0.00    +0.000 A 
ENDROOT
BRANCH   5  15
ATOM     15  C   UNL     1       1.176   8.971  20.310  0.00  0.00    +0.000 A 
ATOM     16  C   UNL     1       1.415   8.642  21.653  0.00  0.00    +0.000 A 
ATOM     17  C   UNL     1       0.643   9.202  22.677  0.00  0.00    +0.000 A 
ATOM     18  C   UNL     1      -0.378  10.102  22.364  0.00  0.00    +0.000 A 
ATOM     19  C   UNL     1      -0.625  10.415  21.039  0.00  0.00    +0.000 A 
ATOM     20  F   UNL     1      -1.605  11.275  20.736  0.00  0.00    +0.000 F 
ATOM     21  C   UNL     1       0.122   9.845  20.016  0.00  0.00    +0.000 A 
ENDBRANCH   5  15
BRANCH   1  23
ATOM     22  C   UNL     1       1.457   2.572  20.094  0.00  0.00    +0.000 C 
ATOM     23  C   UNL     1       2.617   3.521  20.439  0.00  0.00    +0.000 C 
ATOM     24  C   UNL     1       3.937   2.755  20.560  0.00  0.00    +0.000 C 
ENDBRANCH   1  23
TORSDOF 2
ENDMDL
MODEL 7
REMARK VINA RESULT:      -6.9      7.847     11.824
REMARK  Name = 
REMARK  4 active torsions:
REMARK  status: ('A' for Active; 'I' for Inactive)
REMARK    1  A    between atoms: C_1  and  C_2
REMARK    2  A    between atoms: C_2  and  C_3
REMARK    3  A    between atoms: C_2  and  N_4
REMARK    4  A    between atoms: C_8  and  C_9
REMARK                            x       y       z     vdW  Elec       q    Type
REMARK                         _______ _______ _______ _____ _____    ______ ____
ROOT
ATOM      1  N   UNL     1      -0.187  11.245  19.139  0.00  0.00    +0.000 N 
ATOM      2  C   UNL     1      -0.644  11.830  20.337  0.00  0.00    +0.000 A 
ATOM      3  O   UNL     1      -1.193  12.928  20.348  0.00  0.00    +0.000 OA
ATOM      4  C   UNL     1      -0.450  11.060  21.533  0.00  0.00    +0.000 A 
ATOM      5  C   UNL     1      -0.881  11.221  22.841  0.00  0.00    +0.000 A 
ATOM      6  N   UNL     1      -0.364  10.225  23.641  0.00  0.00    +0.000 NA
ATOM      7  C   UNL     1       0.309   9.442  22.827  0.00  0.00    +0.000 A 
ATOM      8  N   UNL     1       0.265   9.893  21.535  0.00  0.00    +0.000 N 
ATOM      9  C   UNL     1       0.830   9.352  20.367  0.00  0.00    +0.000 A 
ATOM     10  C   UNL     1       1.567   8.158  20.410  0.00  0.00    +0.000 A 
ATOM     11  C   UNL     1       2.152   7.667  19.247  0.00  0.00    +0.000 A 
ATOM     12  C   UNL     1       2.017   8.374  18.057  0.00  0.00    +0.000 A 
ATOM     13  C   UNL     1       1.265   9.553  18.016  0.00  0.00    +0.000 A 
ATOM     14  C   UNL     1       0.625  10.053  19.160  0.00  0.00    +0.000 A 
ENDROOT
BRANCH   5  15
ATOM     15  C   UNL     1      -1.767  12.246  23.375  0.00  0.00    +0.000 A 
ATOM     16  C   UNL     1      -3.123  11.957  23.591  0.00  0.00    +0.000 A 
ATOM     17  C   UNL     1      -3.995  12.936  24.083  0.00  0.00    +0.000 A 
ATOM     18  C   UNL     1      -3.514  14.216  24.365  0.00  0.00    +0.000 A 
ATOM     19  C   UNL     1      -2.180  14.506  24.137  0.00  0.00    +0.000 A 
ATOM     20  F   UNL     1      -1.717  15.733  24.404  0.00  0.00    +0.000 F 
ATOM     21  C   UNL     1      -1.315  13.547  23.627  0.00  0.00    +0.000 A 
ENDBRANCH   5  15
BRANCH   1  23
ATOM     22  C   UNL     1      -2.134  11.516  17.592  0.00  0.00    +0.000 C 
ATOM     23  C   UNL     1      -0.655  11.838  17.862  0.00  0.00    +0.000 C 
ATOM     24  C   UNL     1      -0.391  13.342  17.757  0.00  0.00    +0.000 C 
ENDBRANCH   1  23
TORSDOF 2
ENDMDL
MODEL 8
REMARK VINA RESULT:      -6.9      9.953     12.579
REMARK  Name = 
REMARK  4 active torsions:
REMARK  status: ('A' for Active; 'I' for Inactive)
REMARK    1  A    between atoms: C_1  and  C_2
REMARK    2  A    between atoms: C_2  and  C_3
REMARK    3  A    between atoms: C_2  and  N_4
REMARK    4  A    between atoms: C_8  and  C_9
REMARK                            x       y       z     vdW  Elec       q    Type
REMARK                         _______ _______ _______ _____ _____    ______ ____
ROOT
ATOM      1  N   UNL     1      -4.095  13.062  21.612  0.00  0.00    +0.000 N 
ATOM      2  C   UNL     1      -3.955  12.604  20.286  0.00  0.00    +0.000 A 
ATOM      3  O   UNL     1      -2.907  12.750  19.663  0.00  0.00    +0.000 OA
ATOM      4  C   UNL     1      -5.094  11.939  19.722  0.00  0.00    +0.000 A 
ATOM      5  C   UNL     1      -5.291  11.239  18.541  0.00  0.00    +0.000 A 
ATOM      6  N   UNL     1      -6.607  10.842  18.434  0.00  0.00    +0.000 NA
ATOM      7  C   UNL     1      -7.178  11.233  19.552  0.00  0.00    +0.000 A 
ATOM      8  N   UNL     1      -6.296  11.880  20.375  0.00  0.00    +0.000 N 
ATOM      9  C   UNL     1      -6.490  12.435  21.652  0.00  0.00    +0.000 A 
ATOM     10  C   UNL     1      -7.740  12.366  22.286  0.00  0.00    +0.000 A 
ATOM     11  C   UNL     1      -7.915  12.962  23.531  0.00  0.00    +0.000 A 
ATOM     12  C   UNL     1      -6.855  13.638  24.126  0.00  0.00    +0.000 A 
ATOM     13  C   UNL     1      -5.605  13.687  23.499  0.00  0.00    +0.000 A 
ATOM     14  C   UNL     1      -5.381  13.060  22.263  0.00  0.00    +0.000 A 
ENDROOT
BRANCH   5  15
ATOM     15  C   UNL     1      -4.308  10.905  17.520  0.00  0.00    +0.000 A 
ATOM     16  C   UNL     1      -4.538  11.261  16.182  0.00  0.00    +0.000 A 
ATOM     17  C   UNL     1      -3.615  10.930  15.184  0.00  0.00    +0.000 A 
ATOM     18  C   UNL     1      -2.449  10.239  15.517  0.00  0.00    +0.000 A 
ATOM     19  C   UNL     1      -2.229   9.874  16.834  0.00  0.00    +0.000 A 
ATOM     20  F   UNL     1      -1.113   9.208  17.156  0.00  0.00    +0.000 F 
ATOM     21  C   UNL     1      -3.151  10.178  17.826  0.00  0.00    +0.000 A 
ENDBRANCH   5  15
BRANCH   1  23
ATOM     22  C   UNL     1      -2.928  14.899  22.847  0.00  0.00    +0.000 C 
ATOM     23  C   UNL     1      -2.861  13.449  22.341  0.00  0.00    +0.000 C 
ATOM     24  C   UNL     1      -2.499  12.486  23.475  0.00  0.00    +0.000 C 
ENDBRANCH   1  23
TORSDOF 2
ENDMDL
MODEL 9
REMARK VINA RESULT:      -6.8     10.117     13.314
REMARK  Name = 
REMARK  4 active torsions:
REMARK  status: ('A' for Active; 'I' for Inactive)
REMARK    1  A    between atoms: C_1  and  C_2
REMARK    2  A    between atoms: C_2  and  C_3
REMARK    3  A    between atoms: C_2  and  N_4
REMARK    4  A    between atoms: C_8  and  C_9
REMARK                            x       y       z     vdW  Elec       q    Type
REMARK                         _______ _______ _______ _____ _____    ______ ____
ROOT
ATOM      1  N   UNL     1      -4.744  12.233  18.703  0.00  0.00    +0.000 N 
ATOM      2  C   UNL     1      -4.213  12.777  19.890  0.00  0.00    +0.000 A 
ATOM      3  O   UNL     1      -4.855  13.566  20.579  0.00  0.00    +0.000 OA
ATOM      4  C   UNL     1      -2.895  12.340  20.254  0.00  0.00    +0.000 A 
ATOM      5  C   UNL     1      -2.117  12.526  21.386  0.00  0.00    +0.000 A 
ATOM      6  N   UNL     1      -0.878  11.946  21.216  0.00  0.00    +0.000 NA
ATOM      7  C   UNL     1      -0.928  11.365  20.037  0.00  0.00    +0.000 A 
ATOM      8  N   UNL     1      -2.138  11.555  19.426  0.00  0.00    +0.000 N 
ATOM      9  C   UNL     1      -2.607  11.097  18.183  0.00  0.00    +0.000 A 
ATOM     10  C   UNL     1      -1.798  10.302  17.356  0.00  0.00    +0.000 A 
ATOM     11  C   UNL     1      -2.271   9.898  16.111  0.00  0.00    +0.000 A 
ATOM     12  C   UNL     1      -3.533  10.302  15.690  0.00  0.00    +0.000 A 
ATOM     13  C   UNL     1      -4.344  11.077  16.527  0.00  0.00    +0.000 A 
ATOM     14  C   UNL     1      -3.916  11.466  17.806  0.00  0.00    +0.000 A 
ENDROOT
BRANCH   5  15
ATOM     15  C   UNL     1      -2.480  13.201  22.625  0.00  0.00    +0.000 A 
ATOM     16  C   UNL     1      -3.356  12.582  23.529  0.00  0.00    +0.000 A 
ATOM     17  C   UNL     1      -3.734  13.224  24.714  0.00  0.00    +0.000 A 
ATOM     18  C   UNL     1      -3.234  14.494  25.006  0.00  0.00    +0.000 A 
ATOM     19  C   UNL     1      -2.382  15.111  24.106  0.00  0.00    +0.000 A 
ATOM     20  F   UNL     1      -1.903  16.331  24.382  0.00  0.00    +0.000 F 
ATOM     21  C   UNL     1      -2.021  14.491  22.918  0.00  0.00    +0.000 A 
ENDBRANCH   5  15
BRANCH   1  23
ATOM     22  C   UNL     1      -6.487  13.224  17.206  0.00  0.00    +0.000 C 
ATOM     23  C   UNL     1      -6.201  12.390  18.466  0.00  0.00    +0.000 C 
ATOM     24  C   UNL     1      -6.957  11.059  18.427  0.00  0.00    +0.000 C 
ENDBRANCH   1  23
TORSDOF 2
ENDMDL
