MODEL 1
REMARK VINA RESULT:      -7.7      0.000      0.000
REMARK  Name = 
REMARK  6 active torsions:
REMARK  status: ('A' for Active; 'I' for Inactive)
REMARK    1  A    between atoms: N_1  and  C_2
REMARK    2  A    between atoms: C_2  and  C_3
REMARK    3  A    between atoms: C_3  and  O_4
REMARK    4  A    between atoms: O_4  and  C_5
REMARK    5  A    between atoms: C_10  and  C_11
REMARK    6  A    between atoms: C_14  and  C_15
REMARK                            x       y       z     vdW  Elec       q    Type
REMARK                         _______ _______ _______ _____ _____    ______ ____
ROOT
ATOM      1  C   UNL     1       1.413   9.502  18.800  0.00  0.00    +0.000 A 
ATOM      2  C   UNL     1       2.060   8.879  17.724  0.00  0.00    +0.000 A 
ATOM      3  C   UNL     1       2.609   7.588  17.837  0.00  0.00    +0.000 A 
ATOM      4  C   UNL     1       2.526   6.851  19.031  0.00  0.00    +0.000 A 
ATOM      5  C   UNL     1       1.819   7.454  20.078  0.00  0.00    +0.000 A 
ATOM      6  F   UNL     1       1.663   6.817  21.250  0.00  0.00    +0.000 F 
ATOM      7  C   UNL     1       1.284   8.740  19.975  0.00  0.00    +0.000 A 
ENDROOT
BRANCH   4   8
ATOM      8  C   UNL     1       3.191   5.545  19.185  0.00  0.00    +0.000 A 
ATOM      9  C   UNL     1       4.567   5.401  19.231  0.00  0.00    +0.000 A 
ATOM     10  N   UNL     1       5.222   4.231  19.417  0.00  0.00    +0.000 NA
ATOM     11  C   UNL     1       4.464   3.151  19.591  0.00  0.00    +0.000 A 
ATOM     12  N   UNL     1       5.104   1.950  19.805  0.00  0.00    +0.000 N 
ATOM     13  N   UNL     1       3.132   3.140  19.537  0.00  0.00    +0.000 NA
ATOM     14  C   UNL     1       2.529   4.339  19.344  0.00  0.00    +0.000 A 
ATOM     15  H   UNL     1       6.035   1.986  19.414  0.00  0.00    +0.000 HD
ATOM     16  H   UNL     1       4.504   1.189  19.525  0.00  0.00    +0.000 HD
ENDBRANCH   4   8
BRANCH   1  22
ATOM     17  C   UNL     1      -0.498  11.213  18.582  0.00  0.00    +0.000 A 
ATOM     18  C   UNL     1      -0.892  12.560  18.477  0.00  0.00    +0.000 A 
ATOM     19  C   UNL     1       0.042  13.593  18.490  0.00  0.00    +0.000 A 
ATOM     20  C   UNL     1       1.387  13.300  18.634  0.00  0.00    +0.000 A 
ATOM     21  C   UNL     1       1.794  11.972  18.768  0.00  0.00    +0.000 A 
ATOM     22  C   UNL     1       0.877  10.892  18.729  0.00  0.00    +0.000 A 
BRANCH  17  23
ATOM     23  O   UNL     1      -1.406  10.174  18.520  0.00  0.00    +0.000 OA
BRANCH  23  24
ATOM     24  C   UNL     1      -2.640  10.446  17.846  0.00  0.00    +0.000 C 
BRANCH  24  25
ATOM     25  C   UNL     1      -2.526  10.131  16.351  0.00  0.00    +0.000 C 
BRANCH  25  26
ATOM     26  N   UNL     1      -2.987  11.260  15.538  0.00  0.00    +0.000 NA
ATOM     27  H   UNL     1      -2.226  11.584  14.943  0.00  0.00    +0.000 HD
ATOM     28  H   UNL     1      -3.227  12.045  16.143  0.00  0.00    +0.000 HD
ENDBRANCH  25  26
ENDBRANCH  24  25
ENDBRANCH  23  24
ENDBRANCH  17  23
ENDBRANCH   1  22
TORSDOF 6
ENDMDL
MODEL 2
REMARK VINA RESULT:      -7.7      2.674      8.374
REMARK  Name = 
REMARK  6 active torsions:
REMARK  status: ('A' for Active; 'I' for Inactive)
REMARK    1  A    between atoms: N_1  and  C_2
REMARK    2  A    between atoms: C_2  and  C_3
REMARK    3  A    between atoms: C_3  and  O_4
REMARK    4  A    between atoms: O_4  and  C_5
REMARK    5  A    between atoms: C_10  and  C_11
REMARK    6  A    between atoms: C_14  and  C_15
REMARK                            x       y       z     vdW  Elec       q    Type
REMARK                         _______ _______ _______ _____ _____    ______ ____
ROOT
ATOM      1  C   UNL     1       2.460   6.434  19.226  0.00  0.00    +0.000 A 
ATOM      2  C   UNL     1       2.514   7.163  18.029  0.00  0.00    +0.000 A 
ATOM      3  C   UNL     1       2.036   8.484  17.944  0.00  0.00    +0.000 A 
ATOM      4  C   UNL     1       1.492   9.146  19.058  0.00  0.00    +0.000 A 
ATOM      5  C   UNL     1       1.505   8.435  20.264  0.00  0.00    +0.000 A 
ATOM      6  F   UNL     1       1.030   8.994  21.389  0.00  0.00    +0.000 F 
ATOM      7  C   UNL     1       1.966   7.119  20.349  0.00  0.00    +0.000 A 
ENDROOT
BRANCH   4   8
ATOM      8  C   UNL     1       0.895  10.489  18.948  0.00  0.00    +0.000 A 
ATOM      9  C   UNL     1       1.649  11.650  18.935  0.00  0.00    +0.000 A 
ATOM     10  N   UNL     1       1.153  12.901  18.790  0.00  0.00    +0.000 NA
ATOM     11  C   UNL     1      -0.165  12.997  18.622  0.00  0.00    +0.000 A 
ATOM     12  N   UNL     1      -0.696  14.256  18.449  0.00  0.00    +0.000 N 
ATOM     13  N   UNL     1      -1.012  11.968  18.648  0.00  0.00    +0.000 NA
ATOM     14  C   UNL     1      -0.459  10.739  18.801  0.00  0.00    +0.000 A 
ATOM     15  H   UNL     1      -0.081  14.944  18.860  0.00  0.00    +0.000 HD
ATOM     16  H   UNL     1      -1.664  14.260  18.733  0.00  0.00    +0.000 HD
ENDBRANCH   4   8
BRANCH   1  22
ATOM     17  C   UNL     1       4.255   4.591  19.286  0.00  0.00    +0.000 A 
ATOM     18  C   UNL     1       4.558   3.217  19.345  0.00  0.00    +0.000 A 
ATOM     19  C   UNL     1       3.555   2.254  19.423  0.00  0.00    +0.000 A 
ATOM     20  C   UNL     1       2.229   2.647  19.468  0.00  0.00    +0.000 A 
ATOM     21  C   UNL     1       1.910   4.006  19.439  0.00  0.00    +0.000 A 
ATOM     22  C   UNL     1       2.901   5.013  19.330  0.00  0.00    +0.000 A 
BRANCH  17  23
ATOM     23  O   UNL     1       5.235   5.556  19.157  0.00  0.00    +0.000 OA
BRANCH  23  24
ATOM     24  C   UNL     1       6.473   5.132  18.575  0.00  0.00    +0.000 C 
BRANCH  24  25
ATOM     25  C   UNL     1       7.642   5.959  19.119  0.00  0.00    +0.000 C 
BRANCH  25  26
ATOM     26  N   UNL     1       8.078   5.460  20.426  0.00  0.00    +0.000 NA
ATOM     27  H   UNL     1       7.335   5.601  21.109  0.00  0.00    +0.000 HD
ATOM     28  H   UNL     1       8.873   6.008  20.757  0.00  0.00    +0.000 HD
ENDBRANCH  25  26
ENDBRANCH  24  25
ENDBRANCH  23  24
ENDBRANCH  17  23
ENDBRANCH   1  22
TORSDOF 6
ENDMDL
MODEL 3
REMARK VINA RESULT:      -7.7      3.725      7.819
REMARK  Name = 
REMARK  6 active torsions:
REMARK  status: ('A' for Active; 'I' for Inactive)
REMARK    1  A    between atoms: N_1  and  C_2
REMARK    2  A    between atoms: C_2  and  C_3
REMARK    3  A    between atoms: C_3  and  O_4
REMARK    4  A    between atoms: O_4  and  C_5
REMARK    5  A    between atoms: C_10  and  C_11
REMARK    6  A    between atoms: C_14  and  C_15
REMARK                            x       y       z     vdW  Elec       q    Type
REMARK                         _______ _______ _______ _____ _____    ______ ____
ROOT
ATOM      1  C   UNL     1       3.484   6.557  18.160  0.00  0.00    +0.000 A 
ATOM      2  C   UNL     1       3.041   6.130  19.419  0.00  0.00    +0.000 A 
ATOM      3  C   UNL     1       2.190   6.921  20.213  0.00  0.00    +0.000 A 
ATOM      4  C   UNL     1       1.728   8.175  19.777  0.00  0.00    +0.000 A 
ATOM      5  C   UNL     1       2.119   8.563  18.491  0.00  0.00    +0.000 A 
ATOM      6  F   UNL     1       1.707   9.733  17.977  0.00  0.00    +0.000 F 
ATOM      7  C   UNL     1       2.976   7.787  17.706  0.00  0.00    +0.000 A 
ENDROOT
BRANCH   4   8
ATOM      8  C   UNL     1       0.923   9.051  20.648  0.00  0.00    +0.000 A 
ATOM      9  C   UNL     1       1.170   9.200  22.002  0.00  0.00    +0.000 A 
ATOM     10  N   UNL     1       0.490  10.025  22.832  0.00  0.00    +0.000 NA
ATOM     11  C   UNL     1      -0.471  10.760  22.277  0.00  0.00    +0.000 A 
ATOM     12  N   UNL     1      -1.164  11.626  23.094  0.00  0.00    +0.000 N 
ATOM     13  N   UNL     1      -0.836  10.693  20.997  0.00  0.00    +0.000 NA
ATOM     14  C   UNL     1      -0.124   9.846  20.213  0.00  0.00    +0.000 A 
ATOM     15  H   UNL     1      -1.119  11.302  24.050  0.00  0.00    +0.000 HD
ATOM     16  H   UNL     1      -2.076  11.810  22.702  0.00  0.00    +0.000 HD
ENDBRANCH   4   8
BRANCH   1  22
ATOM     17  C   UNL     1       4.243   4.410  16.959  0.00  0.00    +0.000 A 
ATOM     18  C   UNL     1       5.230   3.746  16.206  0.00  0.00    +0.000 A 
ATOM     19  C   UNL     1       6.409   4.384  15.828  0.00  0.00    +0.000 A 
ATOM     20  C   UNL     1       6.613   5.708  16.174  0.00  0.00    +0.000 A 
ATOM     21  C   UNL     1       5.633   6.392  16.896  0.00  0.00    +0.000 A 
ATOM     22  C   UNL     1       4.435   5.769  17.324  0.00  0.00    +0.000 A 
BRANCH  17  23
ATOM     23  O   UNL     1       3.092   3.778  17.386  0.00  0.00    +0.000 OA
BRANCH  23  24
ATOM     24  C   UNL     1       3.246   2.442  17.881  0.00  0.00    +0.000 C 
BRANCH  24  25
ATOM     25  C   UNL     1       3.492   2.446  19.392  0.00  0.00    +0.000 C 
BRANCH  25  26
ATOM     26  N   UNL     1       4.883   2.102  19.700  0.00  0.00    +0.000 NA
ATOM     27  H   UNL     1       5.473   2.923  19.571  0.00  0.00    +0.000 HD
ATOM     28  H   UNL     1       5.221   1.405  19.037  0.00  0.00    +0.000 HD
ENDBRANCH  25  26
ENDBRANCH  24  25
ENDBRANCH  23  24
ENDBRANCH  17  23
ENDBRANCH   1  22
TORSDOF 6
ENDMDL
MODEL 4
REMARK VINA RESULT:      -7.7      0.385      1.022
REMARK  Name = 
REMARK  6 active torsions:
REMARK  status: ('A' for Active; 'I' for Inactive)
REMARK    1  A    between atoms: N_1  and  C_2
REMARK    2  A    between atoms: C_2  and  C_3
REMARK    3  A    between atoms: C_3  and  O_4
REMARK    4  A    between atoms: O_4  and  C_5
REMARK    5  A    between atoms: C_10  and  C_11
REMARK    6  A    between atoms: C_14  and  C_15
REMARK                            x       y       z     vdW  Elec       q    Type
REMARK                         _______ _______ _______ _____ _____    ______ ____
ROOT
ATOM      1  C   UNL     1       1.282   9.656  18.859  0.00  0.00    +0.000 A 
ATOM      2  C   UNL     1       1.925   9.016  17.790  0.00  0.00    +0.000 A 
ATOM      3  C   UNL     1       2.492   7.736  17.927  0.00  0.00    +0.000 A 
ATOM      4  C   UNL     1       2.432   7.026  19.140  0.00  0.00    +0.000 A 
ATOM      5  C   UNL     1       1.730   7.644  20.181  0.00  0.00    +0.000 A 
ATOM      6  F   UNL     1       1.596   7.034  21.369  0.00  0.00    +0.000 F 
ATOM      7  C   UNL     1       1.177   8.921  20.053  0.00  0.00    +0.000 A 
ENDROOT
BRANCH   4   8
ATOM      8  C   UNL     1       3.116   5.733  19.317  0.00  0.00    +0.000 A 
ATOM      9  C   UNL     1       2.443   4.557  19.605  0.00  0.00    +0.000 A 
ATOM     10  N   UNL     1       3.019   3.340  19.731  0.00  0.00    +0.000 NA
ATOM     11  C   UNL     1       4.335   3.286  19.535  0.00  0.00    +0.000 A 
ATOM     12  N   UNL     1       4.946   2.055  19.634  0.00  0.00    +0.000 N 
ATOM     13  N   UNL     1       5.110   4.342  19.286  0.00  0.00    +0.000 NA
ATOM     14  C   UNL     1       4.480   5.537  19.175  0.00  0.00    +0.000 A 
ATOM     15  H   UNL     1       4.391   1.447  20.219  0.00  0.00    +0.000 HD
ATOM     16  H   UNL     1       5.920   2.176  19.870  0.00  0.00    +0.000 HD
ENDBRANCH   4   8
BRANCH   1  22
ATOM     17  C   UNL     1      -0.636  11.334  18.499  0.00  0.00    +0.000 A 
ATOM     18  C   UNL     1      -1.046  12.676  18.380  0.00  0.00    +0.000 A 
ATOM     19  C   UNL     1      -0.137  13.726  18.489  0.00  0.00    +0.000 A 
ATOM     20  C   UNL     1       1.195  13.455  18.745  0.00  0.00    +0.000 A 
ATOM     21  C   UNL     1       1.615  12.133  18.895  0.00  0.00    +0.000 A 
ATOM     22  C   UNL     1       0.727  11.037  18.762  0.00  0.00    +0.000 A 
BRANCH  17  23
ATOM     23  O   UNL     1      -1.515  10.280  18.343  0.00  0.00    +0.000 OA
BRANCH  23  24
ATOM     24  C   UNL     1      -1.883   9.952  16.999  0.00  0.00    +0.000 C 
BRANCH  24  25
ATOM     25  C   UNL     1      -3.249  10.549  16.646  0.00  0.00    +0.000 C 
BRANCH  25  26
ATOM     26  N   UNL     1      -3.165  11.385  15.445  0.00  0.00    +0.000 NA
ATOM     27  H   UNL     1      -2.875  10.814  14.653  0.00  0.00    +0.000 HD
ATOM     28  H   UNL     1      -2.438  12.090  15.566  0.00  0.00    +0.000 HD
ENDBRANCH  25  26
ENDBRANCH  24  25
ENDBRANCH  23  24
ENDBRANCH  17  23
ENDBRANCH   1  22
TORSDOF 6
ENDMDL
MODEL 5
REMARK VINA RESULT:      -7.7      1.004      1.398
REMARK  Name = 
REMARK  6 active torsions:
REMARK  status: ('A' for Active; 'I' for Inactive)
REMARK    1  A    between atoms: N_1  and  C_2
REMARK    2  A    between atoms: C_2  and  C_3
REMARK    3  A    between atoms: C_3  and  O_4
REMARK    4  A    between atoms: O_4  and  C_5
REMARK    5  A    between atoms: C_10  and  C_11
REMARK    6  A    between atoms: C_14  and  C_15
REMARK                            x       y       z     vdW  Elec       q    Type
REMARK                         _______ _______ _______ _____ _____    ______ ____
ROOT
ATOM      1  C   UNL     1       1.349   9.581  18.954  0.00  0.00    +0.000 A 
ATOM      2  C   UNL     1       1.271   8.816  20.127  0.00  0.00    +0.000 A 
ATOM      3  C   UNL     1       1.896   7.560  20.234  0.00  0.00    +0.000 A 
ATOM      4  C   UNL     1       2.641   7.012  19.176  0.00  0.00    +0.000 A 
ATOM      5  C   UNL     1       2.770   7.811  18.034  0.00  0.00    +0.000 A 
ATOM      6  F   UNL     1       3.484   7.384  16.981  0.00  0.00    +0.000 F 
ATOM      7  C   UNL     1       2.140   9.053  17.918  0.00  0.00    +0.000 A 
ENDROOT
BRANCH   4   8
ATOM      8  C   UNL     1       3.207   5.652  19.247  0.00  0.00    +0.000 A 
ATOM      9  C   UNL     1       4.569   5.404  19.286  0.00  0.00    +0.000 A 
ATOM     10  N   UNL     1       5.135   4.180  19.397  0.00  0.00    +0.000 NA
ATOM     11  C   UNL     1       4.298   3.149  19.501  0.00  0.00    +0.000 A 
ATOM     12  N   UNL     1       4.846   1.893  19.639  0.00  0.00    +0.000 N 
ATOM     13  N   UNL     1       2.969   3.241  19.445  0.00  0.00    +0.000 NA
ATOM     14  C   UNL     1       2.457   4.491  19.327  0.00  0.00    +0.000 A 
ATOM     15  H   UNL     1       5.779   1.885  19.252  0.00  0.00    +0.000 HD
ATOM     16  H   UNL     1       4.193   1.198  19.310  0.00  0.00    +0.000 HD
ENDBRANCH   4   8
BRANCH   1  22
ATOM     17  C   UNL     1      -0.732  11.018  18.474  0.00  0.00    +0.000 A 
ATOM     18  C   UNL     1      -1.285  12.300  18.292  0.00  0.00    +0.000 A 
ATOM     19  C   UNL     1      -0.504  13.449  18.391  0.00  0.00    +0.000 A 
ATOM     20  C   UNL     1       0.841  13.339  18.697  0.00  0.00    +0.000 A 
ATOM     21  C   UNL     1       1.401  12.078  18.909  0.00  0.00    +0.000 A 
ATOM     22  C   UNL     1       0.646  10.885  18.788  0.00  0.00    +0.000 A 
BRANCH  17  23
ATOM     23  O   UNL     1      -1.481   9.866  18.330  0.00  0.00    +0.000 OA
BRANCH  23  24
ATOM     24  C   UNL     1      -2.739  10.004  17.659  0.00  0.00    +0.000 C 
BRANCH  24  25
ATOM     25  C   UNL     1      -2.564   9.882  16.142  0.00  0.00    +0.000 C 
BRANCH  25  26
ATOM     26  N   UNL     1      -3.005  11.102  15.461  0.00  0.00    +0.000 NA
ATOM     27  H   UNL     1      -3.162  11.838  16.148  0.00  0.00    +0.000 HD
ATOM     28  H   UNL     1      -3.906  10.940  15.011  0.00  0.00    +0.000 HD
ENDBRANCH  25  26
ENDBRANCH  24  25
ENDBRANCH  23  24
ENDBRANCH  17  23
ENDBRANCH   1  22
TORSDOF 6
ENDMDL
MODEL 6
REMARK VINA RESULT:      -7.6      2.673      8.406
REMARK  Name = 
REMARK  6 active torsions:
REMARK  status: ('A' for Active; 'I' for Inactive)
REMARK    1  A    between atoms: N_1  and  C_2
REMARK    2  A    between atoms: C_2  and  C_3
REMARK    3  A    between atoms: C_3  and  O_4
REMARK    4  A    between atoms: O_4  and  C_5
REMARK    5  A    between atoms: C_10  and  C_11
REMARK    6  A    between atoms: C_14  and  C_15
REMARK                            x       y       z     vdW  Elec       q    Type
REMARK                         _______ _______ _______ _____ _____    ______ ____
ROOT
ATOM      1  C   UNL     1       2.234   6.654  19.453  0.00  0.00    +0.000 A 
ATOM      2  C   UNL     1       2.374   7.298  18.215  0.00  0.00    +0.000 A 
ATOM      3  C   UNL     1       1.981   8.636  18.027  0.00  0.00    +0.000 A 
ATOM      4  C   UNL     1       1.439   9.401  19.075  0.00  0.00    +0.000 A 
ATOM      5  C   UNL     1       1.366   8.771  20.323  0.00  0.00    +0.000 A 
ATOM      6  F   UNL     1       0.887   9.430  21.391  0.00  0.00    +0.000 F 
ATOM      7  C   UNL     1       1.742   7.439  20.510  0.00  0.00    +0.000 A 
ENDROOT
BRANCH   4   8
ATOM      8  C   UNL     1       0.930  10.766  18.856  0.00  0.00    +0.000 A 
ATOM      9  C   UNL     1      -0.420  11.059  18.745  0.00  0.00    +0.000 A 
ATOM     10  N   UNL     1      -0.938  12.299  18.590  0.00  0.00    +0.000 NA
ATOM     11  C   UNL     1      -0.067  13.305  18.569  0.00  0.00    +0.000 A 
ATOM     12  N   UNL     1      -0.568  14.581  18.435  0.00  0.00    +0.000 N 
ATOM     13  N   UNL     1       1.258  13.165  18.631  0.00  0.00    +0.000 NA
ATOM     14  C   UNL     1       1.721  11.900  18.781  0.00  0.00    +0.000 A 
ATOM     15  H   UNL     1      -1.470  14.546  17.983  0.00  0.00    +0.000 HD
ATOM     16  H   UNL     1       0.136  15.184  18.037  0.00  0.00    +0.000 HD
ENDBRANCH   4   8
BRANCH   1  22
ATOM     17  C   UNL     1       3.878   4.674  19.465  0.00  0.00    +0.000 A 
ATOM     18  C   UNL     1       4.088   3.294  19.649  0.00  0.00    +0.000 A 
ATOM     19  C   UNL     1       3.045   2.440  19.999  0.00  0.00    +0.000 A 
ATOM     20  C   UNL     1       1.775   2.954  20.198  0.00  0.00    +0.000 A 
ATOM     21  C   UNL     1       1.554   4.324  20.049  0.00  0.00    +0.000 A 
ATOM     22  C   UNL     1       2.583   5.220  19.665  0.00  0.00    +0.000 A 
BRANCH  17  23
ATOM     23  O   UNL     1       4.890   5.526  19.068  0.00  0.00    +0.000 OA
BRANCH  23  24
ATOM     24  C   UNL     1       6.161   4.923  18.801  0.00  0.00    +0.000 C 
BRANCH  24  25
ATOM     25  C   UNL     1       7.304   5.872  19.174  0.00  0.00    +0.000 C 
BRANCH  25  26
ATOM     26  N   UNL     1       8.026   5.389  20.355  0.00  0.00    +0.000 NA
ATOM     27  H   UNL     1       7.459   4.694  20.839  0.00  0.00    +0.000 HD
ATOM     28  H   UNL     1       8.158   6.155  21.016  0.00  0.00    +0.000 HD
ENDBRANCH  25  26
ENDBRANCH  24  25
ENDBRANCH  23  24
ENDBRANCH  17  23
ENDBRANCH   1  22
TORSDOF 6
ENDMDL
MODEL 7
REMARK VINA RESULT:      -7.5      3.670      7.730
REMARK  Name = 
REMARK  6 active torsions:
REMARK  status: ('A' for Active; 'I' for Inactive)
REMARK    1  A    between atoms: N_1  and  C_2
REMARK    2  A    between atoms: C_2  and  C_3
REMARK    3  A    between atoms: C_3  and  O_4
REMARK    4  A    between atoms: O_4  and  C_5
REMARK    5  A    between atoms: C_10  and  C_11
REMARK    6  A    between atoms: C_14  and  C_15
REMARK                            x       y       z     vdW  Elec       q    Type
REMARK                         _______ _______ _______ _____ _____    ______ ____
ROOT
ATOM      1  C   UNL     1       2.505   7.086  18.687  0.00  0.00    +0.000 A 
ATOM      2  C   UNL     1       2.226   6.892  20.047  0.00  0.00    +0.000 A 
ATOM      3  C   UNL     1       1.560   7.867  20.813  0.00  0.00    +0.000 A 
ATOM      4  C   UNL     1       1.127   9.080  20.249  0.00  0.00    +0.000 A 
ATOM      5  C   UNL     1       1.349   9.235  18.876  0.00  0.00    +0.000 A 
ATOM      6  F   UNL     1       0.948  10.350  18.243  0.00  0.00    +0.000 F 
ATOM      7  C   UNL     1       2.022   8.276  18.116  0.00  0.00    +0.000 A 
ENDROOT
BRANCH   4   8
ATOM      8  C   UNL     1       0.525  10.146  21.070  0.00  0.00    +0.000 A 
ATOM      9  C   UNL     1       0.842  11.485  20.918  0.00  0.00    +0.000 A 
ATOM     10  N   UNL     1       0.284  12.502  21.614  0.00  0.00    +0.000 NA
ATOM     11  C   UNL     1      -0.661  12.169  22.492  0.00  0.00    +0.000 A 
ATOM     12  N   UNL     1      -1.263  13.187  23.198  0.00  0.00    +0.000 N 
ATOM     13  N   UNL     1      -1.040  10.920  22.763  0.00  0.00    +0.000 NA
ATOM     14  C   UNL     1      -0.443   9.941  22.039  0.00  0.00    +0.000 A 
ATOM     15  H   UNL     1      -0.644  13.984  23.242  0.00  0.00    +0.000 HD
ATOM     16  H   UNL     1      -1.630  12.828  24.067  0.00  0.00    +0.000 HD
ENDBRANCH   4   8
BRANCH   1  22
ATOM     17  C   UNL     1       2.983   4.707  17.827  0.00  0.00    +0.000 A 
ATOM     18  C   UNL     1       3.795   3.855  17.053  0.00  0.00    +0.000 A 
ATOM     19  C   UNL     1       4.888   4.341  16.341  0.00  0.00    +0.000 A 
ATOM     20  C   UNL     1       5.177   5.695  16.368  0.00  0.00    +0.000 A 
ATOM     21  C   UNL     1       4.367   6.559  17.105  0.00  0.00    +0.000 A 
ATOM     22  C   UNL     1       3.264   6.098  17.867  0.00  0.00    +0.000 A 
BRANCH  17  23
ATOM     23  O   UNL     1       1.926   4.234  18.580  0.00  0.00    +0.000 OA
BRANCH  23  24
ATOM     24  C   UNL     1       2.228   3.196  19.518  0.00  0.00    +0.000 C 
BRANCH  24  25
ATOM     25  C   UNL     1       1.248   3.223  20.695  0.00  0.00    +0.000 C 
BRANCH  25  26
ATOM     26  N   UNL     1       1.934   2.938  21.959  0.00  0.00    +0.000 NA
ATOM     27  H   UNL     1       1.559   3.539  22.692  0.00  0.00    +0.000 HD
ATOM     28  H   UNL     1       2.922   3.177  21.876  0.00  0.00    +0.000 HD
ENDBRANCH  25  26
ENDBRANCH  24  25
ENDBRANCH  23  24
ENDBRANCH  17  23
ENDBRANCH   1  22
TORSDOF 6
ENDMDL
MODEL 8
REMARK VINA RESULT:      -7.5      3.654      7.679
REMARK  Name = 
REMARK  6 active torsions:
REMARK  status: ('A' for Active; 'I' for Inactive)
REMARK    1  A    between atoms: N_1  and  C_2
REMARK    2  A    between atoms: C_2  and  C_3
REMARK    3  A    between atoms: C_3  and  O_4
REMARK    4  A    between atoms: O_4  and  C_5
REMARK    5  A    between atoms: C_10  and  C_11
REMARK    6  A    between atoms: C_14  and  C_15
REMARK                            x       y       z     vdW  Elec       q    Type
REMARK                         _______ _______ _______ _____ _____    ______ ____
ROOT
ATOM      1  C   UNL     1       2.533   7.144  18.625  0.00  0.00    +0.000 A 
ATOM      2  C   UNL     1       2.244   6.997  19.990  0.00  0.00    +0.000 A 
ATOM      3  C   UNL     1       1.559   7.991  20.713  0.00  0.00    +0.000 A 
ATOM      4  C   UNL     1       1.116   9.177  20.101  0.00  0.00    +0.000 A 
ATOM      5  C   UNL     1       1.348   9.284  18.725  0.00  0.00    +0.000 A 
ATOM      6  F   UNL     1       0.938  10.369  18.048  0.00  0.00    +0.000 F 
ATOM      7  C   UNL     1       2.040   8.306  18.007  0.00  0.00    +0.000 A 
ENDROOT
BRANCH   4   8
ATOM      8  C   UNL     1       0.493  10.264  20.877  0.00  0.00    +0.000 A 
ATOM      9  C   UNL     1      -0.548  10.054  21.767  0.00  0.00    +0.000 A 
ATOM     10  N   UNL     1      -1.121  11.010  22.535  0.00  0.00    +0.000 NA
ATOM     11  C   UNL     1      -0.614  12.236  22.428  0.00  0.00    +0.000 A 
ATOM     12  N   UNL     1      -1.163  13.224  23.215  0.00  0.00    +0.000 N 
ATOM     13  N   UNL     1       0.362  12.585  21.589  0.00  0.00    +0.000 NA
ATOM     14  C   UNL     1       0.896  11.588  20.841  0.00  0.00    +0.000 A 
ATOM     15  H   UNL     1      -2.110  12.976  23.462  0.00  0.00    +0.000 HD
ATOM     16  H   UNL     1      -1.009  14.126  22.788  0.00  0.00    +0.000 HD
ENDBRANCH   4   8
BRANCH   1  22
ATOM     17  C   UNL     1       2.917   4.784  17.671  0.00  0.00    +0.000 A 
ATOM     18  C   UNL     1       3.753   3.904  16.958  0.00  0.00    +0.000 A 
ATOM     19  C   UNL     1       4.975   4.322  16.439  0.00  0.00    +0.000 A 
ATOM     20  C   UNL     1       5.376   5.637  16.601  0.00  0.00    +0.000 A 
ATOM     21  C   UNL     1       4.548   6.532  17.281  0.00  0.00    +0.000 A 
ATOM     22  C   UNL     1       3.311   6.137  17.848  0.00  0.00    +0.000 A 
BRANCH  17  23
ATOM     23  O   UNL     1       1.726   4.374  18.236  0.00  0.00    +0.000 OA
BRANCH  23  24
ATOM     24  C   UNL     1       1.517   2.959  18.323  0.00  0.00    +0.000 C 
BRANCH  24  25
ATOM     25  C   UNL     1       1.264   2.534  19.773  0.00  0.00    +0.000 C 
BRANCH  25  26
ATOM     26  N   UNL     1       0.738   3.649  20.565  0.00  0.00    +0.000 NA
ATOM     27  H   UNL     1       1.198   3.667  21.474  0.00  0.00    +0.000 HD
ATOM     28  H   UNL     1      -0.254   3.500  20.754  0.00  0.00    +0.000 HD
ENDBRANCH  25  26
ENDBRANCH  24  25
ENDBRANCH  23  24
ENDBRANCH  17  23
ENDBRANCH   1  22
TORSDOF 6
ENDMDL
MODEL 9
REMARK VINA RESULT:      -7.5      2.864      8.203
REMARK  Name = 
REMARK  6 active torsions:
REMARK  status: ('A' for Active; 'I' for Inactive)
REMARK    1  A    between atoms: N_1  and  C_2
REMARK    2  A    between atoms: C_2  and  C_3
REMARK    3  A    between atoms: C_3  and  O_4
REMARK    4  A    between atoms: O_4  and  C_5
REMARK    5  A    between atoms: C_10  and  C_11
REMARK    6  A    between atoms: C_14  and  C_15
REMARK                            x       y       z     vdW  Elec       q    Type
REMARK                         _______ _______ _______ _____ _____    ______ ____
ROOT
ATOM      1  C   UNL     1       2.442   6.472  19.045  0.00  0.00    +0.000 A 
ATOM      2  C   UNL     1       2.560   7.209  17.858  0.00  0.00    +0.000 A 
ATOM      3  C   UNL     1       2.114   8.540  17.765  0.00  0.00    +0.000 A 
ATOM      4  C   UNL     1       1.538   9.205  18.862  0.00  0.00    +0.000 A 
ATOM      5  C   UNL     1       1.487   8.485  20.061  0.00  0.00    +0.000 A 
ATOM      6  F   UNL     1       0.978   9.044  21.170  0.00  0.00    +0.000 F 
ATOM      7  C   UNL     1       1.916   7.158  20.153  0.00  0.00    +0.000 A 
ENDROOT
BRANCH   4   8
ATOM      8  C   UNL     1       0.975  10.562  18.739  0.00  0.00    +0.000 A 
ATOM      9  C   UNL     1      -0.386  10.809  18.670  0.00  0.00    +0.000 A 
ATOM     10  N   UNL     1      -0.953  12.036  18.603  0.00  0.00    +0.000 NA
ATOM     11  C   UNL     1      -0.119  13.074  18.632  0.00  0.00    +0.000 A 
ATOM     12  N   UNL     1      -0.670  14.336  18.588  0.00  0.00    +0.000 N 
ATOM     13  N   UNL     1       1.210  12.980  18.662  0.00  0.00    +0.000 NA
ATOM     14  C   UNL     1       1.723  11.727  18.724  0.00  0.00    +0.000 A 
ATOM     15  H   UNL     1      -1.579  14.296  18.150  0.00  0.00    +0.000 HD
ATOM     16  H   UNL     1       0.003  14.989  18.217  0.00  0.00    +0.000 HD
ENDBRANCH   4   8
BRANCH   1  22
ATOM     17  C   UNL     1       4.185   4.601  19.337  0.00  0.00    +0.000 A 
ATOM     18  C   UNL     1       4.464   3.222  19.380  0.00  0.00    +0.000 A 
ATOM     19  C   UNL     1       3.459   2.271  19.223  0.00  0.00    +0.000 A 
ATOM     20  C   UNL     1       2.149   2.682  19.044  0.00  0.00    +0.000 A 
ATOM     21  C   UNL     1       1.848   4.045  19.027  0.00  0.00    +0.000 A 
ATOM     22  C   UNL     1       2.848   5.042  19.155  0.00  0.00    +0.000 A 
BRANCH  17  23
ATOM     23  O   UNL     1       5.177   5.557  19.441  0.00  0.00    +0.000 OA
BRANCH  23  24
ATOM     24  C   UNL     1       6.319   5.383  18.594  0.00  0.00    +0.000 C 
BRANCH  24  25
ATOM     25  C   UNL     1       6.111   6.083  17.248  0.00  0.00    +0.000 C 
BRANCH  25  26
ATOM     26  N   UNL     1       7.391   6.331  16.579  0.00  0.00    +0.000 NA
ATOM     27  H   UNL     1       7.811   5.443  16.309  0.00  0.00    +0.000 HD
ATOM     28  H   UNL     1       8.044   6.763  17.233  0.00  0.00    +0.000 HD
ENDBRANCH  25  26
ENDBRANCH  24  25
ENDBRANCH  23  24
ENDBRANCH  17  23
ENDBRANCH   1  22
TORSDOF 6
ENDMDL
