MODEL 1
REMARK VINA RESULT:      -7.4      0.000      0.000
REMARK  Name = 
REMARK  3 active torsions:
REMARK  status: ('A' for Active; 'I' for Inactive)
REMARK    1  A    between atoms: C_2  and  C_14
REMARK    2  A    between atoms: N_3  and  S_4
REMARK    3  A    between atoms: S_4  and  C_7
REMARK                            x       y       z     vdW  Elec       q    Type
REMARK                         _______ _______ _______ _____ _____    ______ ____
ROOT
ATOM      1  O   UNL     1       2.536   4.733  19.275  0.00  0.00    +0.000 OA
ATOM      2  C   UNL     1       3.100   5.806  19.430  0.00  0.00    +0.000 C 
ATOM      3  N   UNL     1       4.489   5.932  19.414  0.00  0.00    +0.000 N 
ATOM      4  H   UNL     1       4.956   6.834  19.422  0.00  0.00    +0.000 HD
ENDROOT
BRANCH   2   5
ATOM      5  C   UNL     1       2.297   7.034  19.672  0.00  0.00    +0.000 A 
ATOM      6  C   UNL     1       1.642   7.085  20.920  0.00  0.00    +0.000 A 
ATOM      7  C   UNL     1       0.854   8.179  21.279  0.00  0.00    +0.000 A 
ATOM      8  C   UNL     1       0.709   9.238  20.392  0.00  0.00    +0.000 A 
ATOM      9 CL   UNL     1      -0.277  10.580  20.819  0.00  0.00    +0.000 Cl
ATOM     10  C   UNL     1       1.350   9.214  19.155  0.00  0.00    +0.000 A 
ATOM     11  C   UNL     1       2.146   8.116  18.793  0.00  0.00    +0.000 A 
ATOM     12 CL   UNL     1       2.847   8.169  17.213  0.00  0.00    +0.000 Cl
ENDBRANCH   2   5
BRANCH   3  13
ATOM     13  S   UNL     1       5.547   4.655  19.269  0.00  0.00    +0.000 S 
ATOM     14  O   UNL     1       6.787   5.106  19.866  0.00  0.00    +0.000 OA
ATOM     15  O   UNL     1       4.885   3.461  19.743  0.00  0.00    +0.000 OA
BRANCH  13  16
ATOM     16  C   UNL     1       5.838   4.515  17.523  0.00  0.00    +0.000 A 
ATOM     17  C   UNL     1       4.797   4.111  16.679  0.00  0.00    +0.000 A 
ATOM     18  C   UNL     1       5.030   4.007  15.304  0.00  0.00    +0.000 A 
ATOM     19  C   UNL     1       6.289   4.318  14.786  0.00  0.00    +0.000 A 
ATOM     20 CL   UNL     1       6.568   4.194  13.093  0.00  0.00    +0.000 Cl
ATOM     21  C   UNL     1       7.322   4.730  15.628  0.00  0.00    +0.000 A 
ATOM     22  C   UNL     1       7.099   4.829  17.003  0.00  0.00    +0.000 A 
ENDBRANCH  13  16
ENDBRANCH   3  13
TORSDOF 3
ENDMDL
MODEL 2
REMARK VINA RESULT:      -7.3      1.323      1.758
REMARK  Name = 
REMARK  3 active torsions:
REMARK  status: ('A' for Active; 'I' for Inactive)
REMARK    1  A    between atoms: C_2  and  C_14
REMARK    2  A    between atoms: N_3  and  S_4
REMARK    3  A    between atoms: S_4  and  C_7
REMARK                            x       y       z     vdW  Elec       q    Type
REMARK                         _______ _______ _______ _____ _____    ______ ____
ROOT
ATOM      1  O   UNL     1       2.493   5.325  18.043  0.00  0.00    +0.000 OA
ATOM      2  C   UNL     1       3.095   6.255  18.560  0.00  0.00    +0.000 C 
ATOM      3  N   UNL     1       4.420   6.150  18.980  0.00  0.00    +0.000 N 
ATOM      4  H   UNL     1       4.958   6.951  19.298  0.00  0.00    +0.000 HD
ENDROOT
BRANCH   2   5
ATOM      5  C   UNL     1       2.399   7.551  18.783  0.00  0.00    +0.000 A 
ATOM      6  C   UNL     1       2.561   8.501  17.754  0.00  0.00    +0.000 A 
ATOM      7  C   UNL     1       1.964   9.761  17.832  0.00  0.00    +0.000 A 
ATOM      8  C   UNL     1       1.197  10.086  18.943  0.00  0.00    +0.000 A 
ATOM      9 CL   UNL     1       0.475  11.643  19.056  0.00  0.00    +0.000 Cl
ATOM     10  C   UNL     1       1.018   9.162  19.971  0.00  0.00    +0.000 A 
ATOM     11  C   UNL     1       1.614   7.894  19.893  0.00  0.00    +0.000 A 
ATOM     12 CL   UNL     1       1.370   6.851  21.250  0.00  0.00    +0.000 Cl
ENDBRANCH   2   5
BRANCH   3  13
ATOM     13  S   UNL     1       5.318   4.750  18.914  0.00  0.00    +0.000 S 
ATOM     14  O   UNL     1       6.526   5.025  19.664  0.00  0.00    +0.000 OA
ATOM     15  O   UNL     1       4.459   3.643  19.268  0.00  0.00    +0.000 OA
BRANCH  13  16
ATOM     16  C   UNL     1       5.793   4.606  17.210  0.00  0.00    +0.000 A 
ATOM     17  C   UNL     1       4.923   3.995  16.299  0.00  0.00    +0.000 A 
ATOM     18  C   UNL     1       5.299   3.890  14.956  0.00  0.00    +0.000 A 
ATOM     19  C   UNL     1       6.528   4.402  14.535  0.00  0.00    +0.000 A 
ATOM     20 CL   UNL     1       6.983   4.274  12.881  0.00  0.00    +0.000 Cl
ATOM     21  C   UNL     1       7.389   5.020  15.443  0.00  0.00    +0.000 A 
ATOM     22  C   UNL     1       7.023   5.123  16.786  0.00  0.00    +0.000 A 
ENDBRANCH  13  16
ENDBRANCH   3  13
TORSDOF 3
ENDMDL
MODEL 3
REMARK VINA RESULT:      -7.3      1.334      2.054
REMARK  Name = 
REMARK  3 active torsions:
REMARK  status: ('A' for Active; 'I' for Inactive)
REMARK    1  A    between atoms: C_2  and  C_14
REMARK    2  A    between atoms: N_3  and  S_4
REMARK    3  A    between atoms: S_4  and  C_7
REMARK                            x       y       z     vdW  Elec       q    Type
REMARK                         _______ _______ _______ _____ _____    ______ ____
ROOT
ATOM      1  O   UNL     1       2.402   5.280  18.045  0.00  0.00    +0.000 OA
ATOM      2  C   UNL     1       3.025   6.211  18.533  0.00  0.00    +0.000 C 
ATOM      3  N   UNL     1       4.365   6.103  18.907  0.00  0.00    +0.000 N 
ATOM      4  H   UNL     1       4.916   6.905  19.200  0.00  0.00    +0.000 HD
ENDROOT
BRANCH   2   5
ATOM      5  C   UNL     1       2.343   7.511  18.771  0.00  0.00    +0.000 A 
ATOM      6  C   UNL     1       2.472   8.453  17.730  0.00  0.00    +0.000 A 
ATOM      7  C   UNL     1       1.883   9.716  17.819  0.00  0.00    +0.000 A 
ATOM      8  C   UNL     1       1.156  10.053  18.955  0.00  0.00    +0.000 A 
ATOM      9 CL   UNL     1       0.445  11.613  19.081  0.00  0.00    +0.000 Cl
ATOM     10  C   UNL     1       1.010   9.136  19.995  0.00  0.00    +0.000 A 
ATOM     11  C   UNL     1       1.599   7.866  19.906  0.00  0.00    +0.000 A 
ATOM     12 CL   UNL     1       1.399   6.833  21.278  0.00  0.00    +0.000 Cl
ENDBRANCH   2   5
BRANCH   3  13
ATOM     13  S   UNL     1       5.254   4.699  18.821  0.00  0.00    +0.000 S 
ATOM     14  O   UNL     1       6.447   4.945  19.603  0.00  0.00    +0.000 OA
ATOM     15  O   UNL     1       4.380   3.589  19.124  0.00  0.00    +0.000 OA
BRANCH  13  16
ATOM     16  C   UNL     1       5.765   4.601  17.123  0.00  0.00    +0.000 A 
ATOM     17  C   UNL     1       7.063   4.986  16.768  0.00  0.00    +0.000 A 
ATOM     18  C   UNL     1       7.462   4.901  15.431  0.00  0.00    +0.000 A 
ATOM     19  C   UNL     1       6.570   4.426  14.467  0.00  0.00    +0.000 A 
ATOM     20 CL   UNL     1       7.068   4.320  12.823  0.00  0.00    +0.000 Cl
ATOM     21  C   UNL     1       5.279   4.034  14.824  0.00  0.00    +0.000 A 
ATOM     22  C   UNL     1       4.872   4.122  16.157  0.00  0.00    +0.000 A 
ENDBRANCH  13  16
ENDBRANCH   3  13
TORSDOF 3
ENDMDL
MODEL 4
REMARK VINA RESULT:      -7.2      0.814      1.335
REMARK  Name = 
REMARK  3 active torsions:
REMARK  status: ('A' for Active; 'I' for Inactive)
REMARK    1  A    between atoms: C_2  and  C_14
REMARK    2  A    between atoms: N_3  and  S_4
REMARK    3  A    between atoms: S_4  and  C_7
REMARK                            x       y       z     vdW  Elec       q    Type
REMARK                         _______ _______ _______ _____ _____    ______ ____
ROOT
ATOM      1  O   UNL     1       2.720   4.868  20.591  0.00  0.00    +0.000 OA
ATOM      2  C   UNL     1       2.910   5.712  19.729  0.00  0.00    +0.000 C 
ATOM      3  N   UNL     1       3.789   5.513  18.664  0.00  0.00    +0.000 N 
ATOM      4  H   UNL     1       3.859   6.160  17.885  0.00  0.00    +0.000 HD
ENDROOT
BRANCH   2   5
ATOM      5  C   UNL     1       2.207   7.020  19.809  0.00  0.00    +0.000 A 
ATOM      6  C   UNL     1       1.512   7.253  21.013  0.00  0.00    +0.000 A 
ATOM      7  C   UNL     1       0.807   8.440  21.224  0.00  0.00    +0.000 A 
ATOM      8  C   UNL     1       0.788   9.410  20.230  0.00  0.00    +0.000 A 
ATOM      9 CL   UNL     1      -0.094  10.865  20.475  0.00  0.00    +0.000 Cl
ATOM     10  C   UNL     1       1.472   9.205  19.033  0.00  0.00    +0.000 A 
ATOM     11  C   UNL     1       2.184   8.015  18.820  0.00  0.00    +0.000 A 
ATOM     12 CL   UNL     1       2.946   7.847  17.277  0.00  0.00    +0.000 Cl
ENDBRANCH   2   5
BRANCH   3  13
ATOM     13  S   UNL     1       4.743   4.162  18.474  0.00  0.00    +0.000 S 
ATOM     14  O   UNL     1       5.752   4.249  19.508  0.00  0.00    +0.000 OA
ATOM     15  O   UNL     1       3.879   3.008  18.372  0.00  0.00    +0.000 OA
BRANCH  13  16
ATOM     16  C   UNL     1       5.571   4.418  16.925  0.00  0.00    +0.000 A 
ATOM     17  C   UNL     1       6.918   4.799  16.915  0.00  0.00    +0.000 A 
ATOM     18  C   UNL     1       7.568   4.993  15.692  0.00  0.00    +0.000 A 
ATOM     19  C   UNL     1       6.873   4.796  14.497  0.00  0.00    +0.000 A 
ATOM     20 CL   UNL     1       7.679   5.032  12.995  0.00  0.00    +0.000 Cl
ATOM     21  C   UNL     1       5.534   4.407  14.508  0.00  0.00    +0.000 A 
ATOM     22  C   UNL     1       4.877   4.217  15.726  0.00  0.00    +0.000 A 
ENDBRANCH  13  16
ENDBRANCH   3  13
TORSDOF 3
ENDMDL
MODEL 5
REMARK VINA RESULT:      -7.1      1.735      7.105
REMARK  Name = 
REMARK  3 active torsions:
REMARK  status: ('A' for Active; 'I' for Inactive)
REMARK    1  A    between atoms: C_2  and  C_14
REMARK    2  A    between atoms: N_3  and  S_4
REMARK    3  A    between atoms: S_4  and  C_7
REMARK                            x       y       z     vdW  Elec       q    Type
REMARK                         _______ _______ _______ _____ _____    ______ ____
ROOT
ATOM      1  O   UNL     1       4.157   2.968  17.778  0.00  0.00    +0.000 OA
ATOM      2  C   UNL     1       4.423   4.119  17.464  0.00  0.00    +0.000 C 
ATOM      3  N   UNL     1       3.841   5.222  18.089  0.00  0.00    +0.000 N 
ATOM      4  H   UNL     1       4.147   6.174  17.914  0.00  0.00    +0.000 HD
ENDROOT
BRANCH   2   5
ATOM      5  C   UNL     1       5.382   4.379  16.357  0.00  0.00    +0.000 A 
ATOM      6  C   UNL     1       4.857   4.216  15.059  0.00  0.00    +0.000 A 
ATOM      7  C   UNL     1       5.647   4.427  13.927  0.00  0.00    +0.000 A 
ATOM      8  C   UNL     1       6.975   4.802  14.081  0.00  0.00    +0.000 A 
ATOM      9 CL   UNL     1       7.960   5.044  12.692  0.00  0.00    +0.000 Cl
ATOM     10  C   UNL     1       7.516   4.975  15.354  0.00  0.00    +0.000 A 
ATOM     11  C   UNL     1       6.724   4.767  16.493  0.00  0.00    +0.000 A 
ATOM     12 CL   UNL     1       7.515   4.954  18.019  0.00  0.00    +0.000 Cl
ENDBRANCH   2   5
BRANCH   3  13
ATOM     13  S   UNL     1       2.667   5.123  19.265  0.00  0.00    +0.000 S 
ATOM     14  O   UNL     1       1.580   4.374  18.670  0.00  0.00    +0.000 OA
ATOM     15  O   UNL     1       3.291   4.681  20.492  0.00  0.00    +0.000 OA
BRANCH  13  16
ATOM     16  C   UNL     1       2.094   6.792  19.462  0.00  0.00    +0.000 A 
ATOM     17  C   UNL     1       1.608   7.214  20.705  0.00  0.00    +0.000 A 
ATOM     18  C   UNL     1       1.164   8.531  20.857  0.00  0.00    +0.000 A 
ATOM     19  C   UNL     1       1.219   9.413  19.775  0.00  0.00    +0.000 A 
ATOM     20 CL   UNL     1       0.675  11.034  19.970  0.00  0.00    +0.000 Cl
ATOM     21  C   UNL     1       1.713   8.993  18.540  0.00  0.00    +0.000 A 
ATOM     22  C   UNL     1       2.153   7.678  18.380  0.00  0.00    +0.000 A 
ENDBRANCH  13  16
ENDBRANCH   3  13
TORSDOF 3
ENDMDL
MODEL 6
REMARK VINA RESULT:      -7.1      1.715      7.131
REMARK  Name = 
REMARK  3 active torsions:
REMARK  status: ('A' for Active; 'I' for Inactive)
REMARK    1  A    between atoms: C_2  and  C_14
REMARK    2  A    between atoms: N_3  and  S_4
REMARK    3  A    between atoms: S_4  and  C_7
REMARK                            x       y       z     vdW  Elec       q    Type
REMARK                         _______ _______ _______ _____ _____    ______ ____
ROOT
ATOM      1  O   UNL     1       4.681   3.424  18.226  0.00  0.00    +0.000 OA
ATOM      2  C   UNL     1       4.659   4.467  17.590  0.00  0.00    +0.000 C 
ATOM      3  N   UNL     1       3.833   5.537  17.931  0.00  0.00    +0.000 N 
ATOM      4  H   UNL     1       3.900   6.445  17.479  0.00  0.00    +0.000 HD
ENDROOT
BRANCH   2   5
ATOM      5  C   UNL     1       5.521   4.615  16.387  0.00  0.00    +0.000 A 
ATOM      6  C   UNL     1       4.965   4.123  15.188  0.00  0.00    +0.000 A 
ATOM      7  C   UNL     1       5.665   4.196  13.982  0.00  0.00    +0.000 A 
ATOM      8  C   UNL     1       6.933   4.763  13.961  0.00  0.00    +0.000 A 
ATOM      9 CL   UNL     1       7.809   4.838  12.483  0.00  0.00    +0.000 Cl
ATOM     10  C   UNL     1       7.502   5.261  15.132  0.00  0.00    +0.000 A 
ATOM     11  C   UNL     1       6.800   5.191  16.344  0.00  0.00    +0.000 A 
ATOM     12 CL   UNL     1       7.626   5.788  17.741  0.00  0.00    +0.000 Cl
ENDBRANCH   2   5
BRANCH   3  13
ATOM     13  S   UNL     1       2.725   5.510  19.172  0.00  0.00    +0.000 S 
ATOM     14  O   UNL     1       1.633   4.683  18.703  0.00  0.00    +0.000 OA
ATOM     15  O   UNL     1       3.424   5.195  20.397  0.00  0.00    +0.000 OA
BRANCH  13  16
ATOM     16  C   UNL     1       2.110   7.174  19.255  0.00  0.00    +0.000 A 
ATOM     17  C   UNL     1       2.147   7.982  18.113  0.00  0.00    +0.000 A 
ATOM     18  C   UNL     1       1.656   9.290  18.182  0.00  0.00    +0.000 A 
ATOM     19  C   UNL     1       1.126   9.772  19.380  0.00  0.00    +0.000 A 
ATOM     20 CL   UNL     1       0.519  11.380  19.458  0.00  0.00    +0.000 Cl
ATOM     21  C   UNL     1       1.080   8.961  20.515  0.00  0.00    +0.000 A 
ATOM     22  C   UNL     1       1.574   7.656  20.455  0.00  0.00    +0.000 A 
ENDBRANCH  13  16
ENDBRANCH   3  13
TORSDOF 3
ENDMDL
MODEL 7
REMARK VINA RESULT:      -7.0      2.345      6.863
REMARK  Name = 
REMARK  3 active torsions:
REMARK  status: ('A' for Active; 'I' for Inactive)
REMARK    1  A    between atoms: C_2  and  C_14
REMARK    2  A    between atoms: N_3  and  S_4
REMARK    3  A    between atoms: S_4  and  C_7
REMARK                            x       y       z     vdW  Elec       q    Type
REMARK                         _______ _______ _______ _____ _____    ______ ____
ROOT
ATOM      1  O   UNL     1       3.237   3.770  16.674  0.00  0.00    +0.000 OA
ATOM      2  C   UNL     1       4.433   3.661  16.898  0.00  0.00    +0.000 C 
ATOM      3  N   UNL     1       4.928   3.079  18.066  0.00  0.00    +0.000 N 
ATOM      4  H   UNL     1       5.915   2.880  18.201  0.00  0.00    +0.000 HD
ENDROOT
BRANCH   2   5
ATOM      5  C   UNL     1       5.419   4.185  15.916  0.00  0.00    +0.000 A 
ATOM      6  C   UNL     1       5.355   3.601  14.634  0.00  0.00    +0.000 A 
ATOM      7  C   UNL     1       6.221   3.998  13.614  0.00  0.00    +0.000 A 
ATOM      8  C   UNL     1       7.166   4.985  13.864  0.00  0.00    +0.000 A 
ATOM      9 CL   UNL     1       8.251   5.463  12.619  0.00  0.00    +0.000 Cl
ATOM     10  C   UNL     1       7.246   5.581  15.122  0.00  0.00    +0.000 A 
ATOM     11  C   UNL     1       6.374   5.186  16.148  0.00  0.00    +0.000 A 
ATOM     12 CL   UNL     1       6.601   5.954  17.680  0.00  0.00    +0.000 Cl
ENDBRANCH   2   5
BRANCH   3  13
ATOM     13  S   UNL     1       3.978   2.542  19.322  0.00  0.00    +0.000 S 
ATOM     14  O   UNL     1       3.027   1.626  18.728  0.00  0.00    +0.000 OA
ATOM     15  O   UNL     1       4.846   2.118  20.397  0.00  0.00    +0.000 OA
BRANCH  13  16
ATOM     16  C   UNL     1       3.063   3.975  19.832  0.00  0.00    +0.000 A 
ATOM     17  C   UNL     1       3.638   5.245  19.701  0.00  0.00    +0.000 A 
ATOM     18  C   UNL     1       2.911   6.371  20.099  0.00  0.00    +0.000 A 
ATOM     19  C   UNL     1       1.621   6.221  20.611  0.00  0.00    +0.000 A 
ATOM     20 CL   UNL     1       0.729   7.612  21.094  0.00  0.00    +0.000 Cl
ATOM     21  C   UNL     1       1.046   4.956  20.732  0.00  0.00    +0.000 A 
ATOM     22  C   UNL     1       1.768   3.826  20.342  0.00  0.00    +0.000 A 
ENDBRANCH  13  16
ENDBRANCH   3  13
TORSDOF 3
ENDMDL
MODEL 8
REMARK VINA RESULT:      -6.9      2.714      3.684
REMARK  Name = 
REMARK  3 active torsions:
REMARK  status: ('A' for Active; 'I' for Inactive)
REMARK    1  A    between atoms: C_2  and  C_14
REMARK    2  A    between atoms: N_3  and  S_4
REMARK    3  A    between atoms: S_4  and  C_7
REMARK                            x       y       z     vdW  Elec       q    Type
REMARK                         _______ _______ _______ _____ _____    ______ ____
ROOT
ATOM      1  O   UNL     1       3.894   6.519  17.338  0.00  0.00    +0.000 OA
ATOM      2  C   UNL     1       4.396   5.768  18.161  0.00  0.00    +0.000 C 
ATOM      3  N   UNL     1       5.767   5.514  18.207  0.00  0.00    +0.000 N 
ATOM      4  H   UNL     1       6.200   4.988  18.961  0.00  0.00    +0.000 HD
ENDROOT
BRANCH   2   5
ATOM      5  C   UNL     1       3.530   5.068  19.147  0.00  0.00    +0.000 A 
ATOM      6  C   UNL     1       3.754   3.681  19.263  0.00  0.00    +0.000 A 
ATOM      7  C   UNL     1       3.012   2.899  20.150  0.00  0.00    +0.000 A 
ATOM      8  C   UNL     1       2.033   3.497  20.933  0.00  0.00    +0.000 A 
ATOM      9 CL   UNL     1       1.101   2.537  22.013  0.00  0.00    +0.000 Cl
ATOM     10  C   UNL     1       1.796   4.867  20.841  0.00  0.00    +0.000 A 
ATOM     11  C   UNL     1       2.543   5.656  19.952  0.00  0.00    +0.000 A 
ATOM     12 CL   UNL     1       2.124   7.332  19.881  0.00  0.00    +0.000 Cl
ENDBRANCH   2   5
BRANCH   3  13
ATOM     13  S   UNL     1       6.871   6.117  17.117  0.00  0.00    +0.000 S 
ATOM     14  O   UNL     1       6.441   7.470  16.835  0.00  0.00    +0.000 OA
ATOM     15  O   UNL     1       8.199   5.848  17.621  0.00  0.00    +0.000 OA
BRANCH  13  16
ATOM     16  C   UNL     1       6.598   5.172  15.639  0.00  0.00    +0.000 A 
ATOM     17  C   UNL     1       5.616   4.175  15.628  0.00  0.00    +0.000 A 
ATOM     18  C   UNL     1       5.400   3.438  14.459  0.00  0.00    +0.000 A 
ATOM     19  C   UNL     1       6.156   3.708  13.317  0.00  0.00    +0.000 A 
ATOM     20 CL   UNL     1       5.884   2.801  11.880  0.00  0.00    +0.000 Cl
ATOM     21  C   UNL     1       7.128   4.709  13.327  0.00  0.00    +0.000 A 
ATOM     22  C   UNL     1       7.353   5.445  14.492  0.00  0.00    +0.000 A 
ENDBRANCH  13  16
ENDBRANCH   3  13
TORSDOF 3
ENDMDL
MODEL 9
REMARK VINA RESULT:      -6.8      2.298      6.839
REMARK  Name = 
REMARK  3 active torsions:
REMARK  status: ('A' for Active; 'I' for Inactive)
REMARK    1  A    between atoms: C_2  and  C_14
REMARK    2  A    between atoms: N_3  and  S_4
REMARK    3  A    between atoms: S_4  and  C_7
REMARK                            x       y       z     vdW  Elec       q    Type
REMARK                         _______ _______ _______ _____ _____    ______ ____
ROOT
ATOM      1  O   UNL     1       3.335   3.542  16.547  0.00  0.00    +0.000 OA
ATOM      2  C   UNL     1       4.520   3.582  16.845  0.00  0.00    +0.000 C 
ATOM      3  N   UNL     1       4.995   3.162  18.087  0.00  0.00    +0.000 N 
ATOM      4  H   UNL     1       5.987   3.082  18.294  0.00  0.00    +0.000 HD
ENDROOT
BRANCH   2   5
ATOM      5  C   UNL     1       5.508   4.118  15.871  0.00  0.00    +0.000 A 
ATOM      6  C   UNL     1       5.334   3.683  14.541  0.00  0.00    +0.000 A 
ATOM      7  C   UNL     1       6.190   4.107  13.523  0.00  0.00    +0.000 A 
ATOM      8  C   UNL     1       7.234   4.972  13.824  0.00  0.00    +0.000 A 
ATOM      9 CL   UNL     1       8.305   5.483  12.579  0.00  0.00    +0.000 Cl
ATOM     10  C   UNL     1       7.424   5.420  15.130  0.00  0.00    +0.000 A 
ATOM     11  C   UNL     1       6.563   4.998  16.155  0.00  0.00    +0.000 A 
ATOM     12 CL   UNL     1       6.927   5.572  17.744  0.00  0.00    +0.000 Cl
ENDBRANCH   2   5
BRANCH   3  13
ATOM     13  S   UNL     1       4.027   2.641  19.337  0.00  0.00    +0.000 S 
ATOM     14  O   UNL     1       3.079   1.725  18.739  0.00  0.00    +0.000 OA
ATOM     15  O   UNL     1       4.879   2.224  20.427  0.00  0.00    +0.000 OA
BRANCH  13  16
ATOM     16  C   UNL     1       3.112   4.084  19.821  0.00  0.00    +0.000 A 
ATOM     17  C   UNL     1       1.892   3.936  20.491  0.00  0.00    +0.000 A 
ATOM     18  C   UNL     1       1.178   5.075  20.875  0.00  0.00    +0.000 A 
ATOM     19  C   UNL     1       1.691   6.344  20.599  0.00  0.00    +0.000 A 
ATOM     20 CL   UNL     1       0.811   7.743  21.079  0.00  0.00    +0.000 Cl
ATOM     21  C   UNL     1       2.913   6.489  19.940  0.00  0.00    +0.000 A 
ATOM     22  C   UNL     1       3.628   5.356  19.548  0.00  0.00    +0.000 A 
ENDBRANCH  13  16
ENDBRANCH   3  13
TORSDOF 3
ENDMDL
