MODEL 1
REMARK VINA RESULT:      -8.2      0.000      0.000
REMARK  Name = 
REMARK  8 active torsions:
REMARK  status: ('A' for Active; 'I' for Inactive)
REMARK    1  A    between atoms: C_1  and  C_2
REMARK    2  A    between atoms: C_2  and  C_3
REMARK    3  A    between atoms: C_3  and  S_4
REMARK    4  A    between atoms: C_3  and  C_14
REMARK    5  A    between atoms: S_4  and  C_5
REMARK    6  A    between atoms: N_16  and  C_17
REMARK    7  A    between atoms: C_20  and  N_21
REMARK    8  A    between atoms: C_22  and  C_23
REMARK                            x       y       z     vdW  Elec       q    Type
REMARK                         _______ _______ _______ _____ _____    ______ ____
ROOT
ATOM      1  C   UNL     1       2.266   4.873  19.408  0.00  0.00    +0.000 C 
ATOM      2  O   UNL     1       1.269   4.781  18.682  0.00  0.00    +0.000 OA
ATOM      3  N   UNL     1       2.801   6.078  19.825  0.00  0.00    +0.000 N 
ATOM      4  H   UNL     1       3.759   6.055  20.163  0.00  0.00    +0.000 HD
ENDROOT
BRANCH   3   5
ATOM      5  C   UNL     1       2.267   7.350  19.497  0.00  0.00    +0.000 A 
ATOM      6  C   UNL     1       2.490   7.950  18.259  0.00  0.00    +0.000 A 
ATOM      7  C   UNL     1       1.955   9.200  17.951  0.00  0.00    +0.000 A 
ATOM      8  C   UNL     1       1.156   9.884  18.863  0.00  0.00    +0.000 A 
ATOM      9  C   UNL     1       0.938   9.299  20.117  0.00  0.00    +0.000 A 
ATOM     10  C   UNL     1       1.484   8.035  20.430  0.00  0.00    +0.000 A 
BRANCH   8  11
ATOM     11  N   UNL     1       0.536  11.117  18.547  0.00  0.00    +0.000 N 
ATOM     12  C   UNL     1       0.970  12.375  18.952  0.00  0.00    +0.000 C 
ATOM     13  C   UNL     1       0.163  13.509  18.379  0.00  0.00    +0.000 C 
ATOM     14  O   UNL     1       1.901  12.631  19.706  0.00  0.00    +0.000 OA
ATOM     15  H   UNL     1      -0.263  11.072  17.931  0.00  0.00    +0.000 HD
ENDBRANCH   8  11
ENDBRANCH   3   5
BRANCH   1  16
ATOM     16  C   UNL     1       2.886   3.568  19.934  0.00  0.00    +0.000 C 
BRANCH  16  18
ATOM     17  C   UNL     1       1.381   2.668  21.881  0.00  0.00    +0.000 C 
ATOM     18  C   UNL     1       1.723   2.661  20.404  0.00  0.00    +0.000 C 
ENDBRANCH  16  18
BRANCH  16  19
ATOM     19  S   UNL     1       4.098   2.767  18.833  0.00  0.00    +0.000 S 
BRANCH  19  20
ATOM     20  C   UNL     1       5.228   4.028  18.551  0.00  0.00    +0.000 A 
ATOM     21  N   UNL     1       6.284   4.291  19.278  0.00  0.00    +0.000 NA
ATOM     22  C   UNL     1       6.803   5.438  18.717  0.00  0.00    +0.000 A 
ATOM     23  C   UNL     1       7.914   6.204  19.100  0.00  0.00    +0.000 A 
ATOM     24  C   UNL     1       8.190   7.383  18.394  0.00  0.00    +0.000 A 
ATOM     25  C   UNL     1       7.384   7.785  17.325  0.00  0.00    +0.000 A 
ATOM     26  C   UNL     1       6.294   7.016  16.904  0.00  0.00    +0.000 A 
ATOM     27  C   UNL     1       6.042   5.848  17.624  0.00  0.00    +0.000 A 
ATOM     28  N   UNL     1       5.085   4.876  17.496  0.00  0.00    +0.000 N 
ATOM     29  H   UNL     1       4.370   4.821  16.787  0.00  0.00    +0.000 HD
ENDBRANCH  19  20
ENDBRANCH  16  19
ENDBRANCH   1  16
TORSDOF 6
ENDMDL
MODEL 2
REMARK VINA RESULT:      -8.2      2.173      4.873
REMARK  Name = 
REMARK  8 active torsions:
REMARK  status: ('A' for Active; 'I' for Inactive)
REMARK    1  A    between atoms: C_1  and  C_2
REMARK    2  A    between atoms: C_2  and  C_3
REMARK    3  A    between atoms: C_3  and  S_4
REMARK    4  A    between atoms: C_3  and  C_14
REMARK    5  A    between atoms: S_4  and  C_5
REMARK    6  A    between atoms: N_16  and  C_17
REMARK    7  A    between atoms: C_20  and  N_21
REMARK    8  A    between atoms: C_22  and  C_23
REMARK                            x       y       z     vdW  Elec       q    Type
REMARK                         _______ _______ _______ _____ _____    ______ ____
ROOT
ATOM      1  C   UNL     1       4.840   6.304  17.783  0.00  0.00    +0.000 C 
ATOM      2  O   UNL     1       5.179   6.146  18.962  0.00  0.00    +0.000 OA
ATOM      3  N   UNL     1       3.710   7.002  17.398  0.00  0.00    +0.000 N 
ATOM      4  H   UNL     1       3.370   6.829  16.457  0.00  0.00    +0.000 HD
ENDROOT
BRANCH   3   5
ATOM      5  C   UNL     1       2.817   7.641  18.295  0.00  0.00    +0.000 A 
ATOM      6  C   UNL     1       2.227   8.870  18.004  0.00  0.00    +0.000 A 
ATOM      7  C   UNL     1       1.349   9.482  18.896  0.00  0.00    +0.000 A 
ATOM      8  C   UNL     1       1.008   8.875  20.102  0.00  0.00    +0.000 A 
ATOM      9  C   UNL     1       1.607   7.648  20.412  0.00  0.00    +0.000 A 
ATOM     10  C   UNL     1       2.501   7.030  19.510  0.00  0.00    +0.000 A 
BRANCH   8  11
ATOM     11  N   UNL     1       0.059   9.438  20.988  0.00  0.00    +0.000 N 
ATOM     12  C   UNL     1       0.289   9.786  22.315  0.00  0.00    +0.000 C 
ATOM     13  C   UNL     1      -0.885  10.453  22.980  0.00  0.00    +0.000 C 
ATOM     14  O   UNL     1       1.310   9.597  22.965  0.00  0.00    +0.000 OA
ATOM     15  H   UNL     1      -0.849   9.647  20.598  0.00  0.00    +0.000 HD
ENDBRANCH   8  11
ENDBRANCH   3   5
BRANCH   1  16
ATOM     16  C   UNL     1       5.777   5.757  16.694  0.00  0.00    +0.000 C 
BRANCH  16  18
ATOM     17  C   UNL     1       7.585   7.544  17.329  0.00  0.00    +0.000 C 
ATOM     18  C   UNL     1       7.227   6.086  17.125  0.00  0.00    +0.000 C 
ENDBRANCH  16  18
BRANCH  16  19
ATOM     19  S   UNL     1       5.489   4.027  16.196  0.00  0.00    +0.000 S 
BRANCH  19  20
ATOM     20  C   UNL     1       4.264   3.528  17.290  0.00  0.00    +0.000 A 
ATOM     21  N   UNL     1       2.982   3.471  17.035  0.00  0.00    +0.000 NA
ATOM     22  C   UNL     1       2.413   3.118  18.239  0.00  0.00    +0.000 A 
ATOM     23  C   UNL     1       1.064   2.945  18.581  0.00  0.00    +0.000 A 
ATOM     24  C   UNL     1       0.743   2.651  19.913  0.00  0.00    +0.000 A 
ATOM     25  C   UNL     1       1.742   2.524  20.882  0.00  0.00    +0.000 A 
ATOM     26  C   UNL     1       3.096   2.657  20.554  0.00  0.00    +0.000 A 
ATOM     27  C   UNL     1       3.387   2.949  19.222  0.00  0.00    +0.000 A 
ATOM     28  N   UNL     1       4.571   3.142  18.558  0.00  0.00    +0.000 N 
ATOM     29  H   UNL     1       5.499   3.066  18.944  0.00  0.00    +0.000 HD
ENDBRANCH  19  20
ENDBRANCH  16  19
ENDBRANCH   1  16
TORSDOF 6
ENDMDL
MODEL 3
REMARK VINA RESULT:      -8.1      0.975      1.770
REMARK  Name = 
REMARK  8 active torsions:
REMARK  status: ('A' for Active; 'I' for Inactive)
REMARK    1  A    between atoms: C_1  and  C_2
REMARK    2  A    between atoms: C_2  and  C_3
REMARK    3  A    between atoms: C_3  and  S_4
REMARK    4  A    between atoms: C_3  and  C_14
REMARK    5  A    between atoms: S_4  and  C_5
REMARK    6  A    between atoms: N_16  and  C_17
REMARK    7  A    between atoms: C_20  and  N_21
REMARK    8  A    between atoms: C_22  and  C_23
REMARK                            x       y       z     vdW  Elec       q    Type
REMARK                         _______ _______ _______ _____ _____    ______ ____
ROOT
ATOM      1  C   UNL     1       2.174   4.716  19.734  0.00  0.00    +0.000 C 
ATOM      2  O   UNL     1       1.008   4.606  19.335  0.00  0.00    +0.000 OA
ATOM      3  N   UNL     1       2.837   5.925  19.837  0.00  0.00    +0.000 N 
ATOM      4  H   UNL     1       3.850   5.882  19.891  0.00  0.00    +0.000 HD
ENDROOT
BRANCH   3   5
ATOM      5  C   UNL     1       2.264   7.184  19.524  0.00  0.00    +0.000 A 
ATOM      6  C   UNL     1       1.549   7.927  20.461  0.00  0.00    +0.000 A 
ATOM      7  C   UNL     1       0.995   9.164  20.138  0.00  0.00    +0.000 A 
ATOM      8  C   UNL     1       1.159   9.716  18.870  0.00  0.00    +0.000 A 
ATOM      9  C   UNL     1       1.862   8.971  17.915  0.00  0.00    +0.000 A 
ATOM     10  C   UNL     1       2.419   7.716  18.242  0.00  0.00    +0.000 A 
BRANCH   8  11
ATOM     11  N   UNL     1       0.675  11.004  18.540  0.00  0.00    +0.000 N 
ATOM     12  C   UNL     1      -0.662  11.385  18.491  0.00  0.00    +0.000 C 
ATOM     13  C   UNL     1      -0.866  12.848  18.204  0.00  0.00    +0.000 C 
ATOM     14  O   UNL     1      -1.644  10.668  18.643  0.00  0.00    +0.000 OA
ATOM     15  H   UNL     1       1.372  11.716  18.374  0.00  0.00    +0.000 HD
ENDBRANCH   8  11
ENDBRANCH   3   5
BRANCH   1  16
ATOM     16  C   UNL     1       2.885   3.441  20.214  0.00  0.00    +0.000 C 
BRANCH  16  18
ATOM     17  C   UNL     1       1.312   2.460  22.067  0.00  0.00    +0.000 C 
ATOM     18  C   UNL     1       1.789   2.428  20.629  0.00  0.00    +0.000 C 
ENDBRANCH  16  18
BRANCH  16  19
ATOM     19  S   UNL     1       4.168   2.781  19.100  0.00  0.00    +0.000 S 
BRANCH  19  20
ATOM     20  C   UNL     1       5.100   4.178  18.744  0.00  0.00    +0.000 A 
ATOM     21  N   UNL     1       4.901   5.002  17.747  0.00  0.00    +0.000 NA
ATOM     22  C   UNL     1       5.954   5.888  17.825  0.00  0.00    +0.000 A 
ATOM     23  C   UNL     1       6.285   6.968  16.994  0.00  0.00    +0.000 A 
ATOM     24  C   UNL     1       7.465   7.677  17.256  0.00  0.00    +0.000 A 
ATOM     25  C   UNL     1       8.293   7.325  18.325  0.00  0.00    +0.000 A 
ATOM     26  C   UNL     1       7.961   6.274  19.187  0.00  0.00    +0.000 A 
ATOM     27  C   UNL     1       6.782   5.585  18.905  0.00  0.00    +0.000 A 
ATOM     28  N   UNL     1       6.161   4.531  19.520  0.00  0.00    +0.000 N 
ATOM     29  H   UNL     1       6.457   4.062  20.363  0.00  0.00    +0.000 HD
ENDBRANCH  19  20
ENDBRANCH  16  19
ENDBRANCH   1  16
TORSDOF 6
ENDMDL
MODEL 4
REMARK VINA RESULT:      -8.0      0.936      1.407
REMARK  Name = 
REMARK  8 active torsions:
REMARK  status: ('A' for Active; 'I' for Inactive)
REMARK    1  A    between atoms: C_1  and  C_2
REMARK    2  A    between atoms: C_2  and  C_3
REMARK    3  A    between atoms: C_3  and  S_4
REMARK    4  A    between atoms: C_3  and  C_14
REMARK    5  A    between atoms: S_4  and  C_5
REMARK    6  A    between atoms: N_16  and  C_17
REMARK    7  A    between atoms: C_20  and  N_21
REMARK    8  A    between atoms: C_22  and  C_23
REMARK                            x       y       z     vdW  Elec       q    Type
REMARK                         _______ _______ _______ _____ _____    ______ ____
ROOT
ATOM      1  C   UNL     1       2.221   5.187  19.270  0.00  0.00    +0.000 C 
ATOM      2  O   UNL     1       1.818   5.241  18.102  0.00  0.00    +0.000 OA
ATOM      3  N   UNL     1       2.303   6.287  20.105  0.00  0.00    +0.000 N 
ATOM      4  H   UNL     1       2.903   6.193  20.918  0.00  0.00    +0.000 HD
ENDROOT
BRANCH   3   5
ATOM      5  C   UNL     1       1.917   7.601  19.740  0.00  0.00    +0.000 A 
ATOM      6  C   UNL     1       1.271   8.458  20.628  0.00  0.00    +0.000 A 
ATOM      7  C   UNL     1       0.901   9.749  20.254  0.00  0.00    +0.000 A 
ATOM      8  C   UNL     1       1.188  10.239  18.983  0.00  0.00    +0.000 A 
ATOM      9  C   UNL     1       1.822   9.381  18.075  0.00  0.00    +0.000 A 
ATOM     10  C   UNL     1       2.192   8.072  18.454  0.00  0.00    +0.000 A 
BRANCH   8  11
ATOM     11  N   UNL     1       0.895  11.570  18.604  0.00  0.00    +0.000 N 
ATOM     12  C   UNL     1      -0.373  12.141  18.546  0.00  0.00    +0.000 C 
ATOM     13  C   UNL     1      -0.363  13.607  18.202  0.00  0.00    +0.000 C 
ATOM     14  O   UNL     1      -1.447  11.582  18.731  0.00  0.00    +0.000 OA
ATOM     15  H   UNL     1       1.687  12.165  18.407  0.00  0.00    +0.000 HD
ENDBRANCH   8  11
ENDBRANCH   3   5
BRANCH   1  16
ATOM     16  C   UNL     1       2.570   3.802  19.838  0.00  0.00    +0.000 C 
BRANCH  16  18
ATOM     17  C   UNL     1       0.706   2.204  18.923  0.00  0.00    +0.000 C 
ATOM     18  C   UNL     1       1.238   3.046  20.065  0.00  0.00    +0.000 C 
ENDBRANCH  16  18
BRANCH  16  19
ATOM     19  S   UNL     1       3.845   2.870  18.926  0.00  0.00    +0.000 S 
BRANCH  19  20
ATOM     20  C   UNL     1       5.034   4.070  18.627  0.00  0.00    +0.000 A 
ATOM     21  N   UNL     1       6.119   4.271  19.330  0.00  0.00    +0.000 NA
ATOM     22  C   UNL     1       6.687   5.392  18.766  0.00  0.00    +0.000 A 
ATOM     23  C   UNL     1       7.845   6.095  19.129  0.00  0.00    +0.000 A 
ATOM     24  C   UNL     1       8.168   7.263  18.425  0.00  0.00    +0.000 A 
ATOM     25  C   UNL     1       7.361   7.717  17.378  0.00  0.00    +0.000 A 
ATOM     26  C   UNL     1       6.222   7.012  16.978  0.00  0.00    +0.000 A 
ATOM     27  C   UNL     1       5.923   5.853  17.694  0.00  0.00    +0.000 A 
ATOM     28  N   UNL     1       4.913   4.935  17.583  0.00  0.00    +0.000 N 
ATOM     29  H   UNL     1       4.180   4.924  16.890  0.00  0.00    +0.000 HD
ENDBRANCH  19  20
ENDBRANCH  16  19
ENDBRANCH   1  16
TORSDOF 6
ENDMDL
MODEL 5
REMARK VINA RESULT:      -8.0      1.453      2.032
REMARK  Name = 
REMARK  8 active torsions:
REMARK  status: ('A' for Active; 'I' for Inactive)
REMARK    1  A    between atoms: C_1  and  C_2
REMARK    2  A    between atoms: C_2  and  C_3
REMARK    3  A    between atoms: C_3  and  S_4
REMARK    4  A    between atoms: C_3  and  C_14
REMARK    5  A    between atoms: S_4  and  C_5
REMARK    6  A    between atoms: N_16  and  C_17
REMARK    7  A    between atoms: C_20  and  N_21
REMARK    8  A    between atoms: C_22  and  C_23
REMARK                            x       y       z     vdW  Elec       q    Type
REMARK                         _______ _______ _______ _____ _____    ______ ____
ROOT
ATOM      1  C   UNL     1       2.417   5.129  19.823  0.00  0.00    +0.000 C 
ATOM      2  O   UNL     1       1.548   4.897  18.974  0.00  0.00    +0.000 OA
ATOM      3  N   UNL     1       2.748   6.401  20.253  0.00  0.00    +0.000 N 
ATOM      4  H   UNL     1       3.646   6.502  20.716  0.00  0.00    +0.000 HD
ENDROOT
BRANCH   3   5
ATOM      5  C   UNL     1       2.123   7.590  19.798  0.00  0.00    +0.000 A 
ATOM      6  C   UNL     1       2.325   8.088  18.513  0.00  0.00    +0.000 A 
ATOM      7  C   UNL     1       1.700   9.257  18.080  0.00  0.00    +0.000 A 
ATOM      8  C   UNL     1       0.830   9.957  18.912  0.00  0.00    +0.000 A 
ATOM      9  C   UNL     1       0.632   9.475  20.212  0.00  0.00    +0.000 A 
ATOM     10  C   UNL     1       1.269   8.293  20.650  0.00  0.00    +0.000 A 
BRANCH   8  11
ATOM     11  N   UNL     1       0.123  11.100  18.471  0.00  0.00    +0.000 N 
ATOM     12  C   UNL     1       0.423  12.420  18.795  0.00  0.00    +0.000 C 
ATOM     13  C   UNL     1      -0.449  13.429  18.099  0.00  0.00    +0.000 C 
ATOM     14  O   UNL     1       1.287  12.815  19.569  0.00  0.00    +0.000 OA
ATOM     15  H   UNL     1      -0.636  10.937  17.825  0.00  0.00    +0.000 HD
ENDBRANCH   8  11
ENDBRANCH   3   5
BRANCH   1  16
ATOM     16  C   UNL     1       3.103   3.924  20.486  0.00  0.00    +0.000 C 
BRANCH  16  18
ATOM     17  C   UNL     1       1.252   2.444  21.604  0.00  0.00    +0.000 C 
ATOM     18  C   UNL     1       2.275   3.554  21.741  0.00  0.00    +0.000 C 
ENDBRANCH  16  18
BRANCH  16  19
ATOM     19  S   UNL     1       3.500   2.530  19.380  0.00  0.00    +0.000 S 
BRANCH  19  20
ATOM     20  C   UNL     1       4.384   3.296  18.125  0.00  0.00    +0.000 A 
ATOM     21  N   UNL     1       3.967   3.494  16.901  0.00  0.00    +0.000 NA
ATOM     22  C   UNL     1       5.055   4.042  16.257  0.00  0.00    +0.000 A 
ATOM     23  C   UNL     1       5.209   4.425  14.916  0.00  0.00    +0.000 A 
ATOM     24  C   UNL     1       6.460   4.896  14.494  0.00  0.00    +0.000 A 
ATOM     25  C   UNL     1       7.531   4.991  15.387  0.00  0.00    +0.000 A 
ATOM     26  C   UNL     1       7.387   4.648  16.735  0.00  0.00    +0.000 A 
ATOM     27  C   UNL     1       6.133   4.183  17.129  0.00  0.00    +0.000 A 
ATOM     28  N   UNL     1       5.642   3.769  18.339  0.00  0.00    +0.000 N 
ATOM     29  H   UNL     1       6.133   3.762  19.220  0.00  0.00    +0.000 HD
ENDBRANCH  19  20
ENDBRANCH  16  19
ENDBRANCH   1  16
TORSDOF 6
ENDMDL
MODEL 6
REMARK VINA RESULT:      -7.9      1.844      2.341
REMARK  Name = 
REMARK  8 active torsions:
REMARK  status: ('A' for Active; 'I' for Inactive)
REMARK    1  A    between atoms: C_1  and  C_2
REMARK    2  A    between atoms: C_2  and  C_3
REMARK    3  A    between atoms: C_3  and  S_4
REMARK    4  A    between atoms: C_3  and  C_14
REMARK    5  A    between atoms: S_4  and  C_5
REMARK    6  A    between atoms: N_16  and  C_17
REMARK    7  A    between atoms: C_20  and  N_21
REMARK    8  A    between atoms: C_22  and  C_23
REMARK                            x       y       z     vdW  Elec       q    Type
REMARK                         _______ _______ _______ _____ _____    ______ ____
ROOT
ATOM      1  C   UNL     1       2.535   4.950  19.867  0.00  0.00    +0.000 C 
ATOM      2  O   UNL     1       1.632   4.682  19.064  0.00  0.00    +0.000 OA
ATOM      3  N   UNL     1       2.875   6.240  20.234  0.00  0.00    +0.000 N 
ATOM      4  H   UNL     1       3.790   6.363  20.655  0.00  0.00    +0.000 HD
ENDROOT
BRANCH   3   5
ATOM      5  C   UNL     1       2.224   7.407  19.760  0.00  0.00    +0.000 A 
ATOM      6  C   UNL     1       2.312   7.818  18.432  0.00  0.00    +0.000 A 
ATOM      7  C   UNL     1       1.662   8.967  17.982  0.00  0.00    +0.000 A 
ATOM      8  C   UNL     1       0.881   9.734  18.842  0.00  0.00    +0.000 A 
ATOM      9  C   UNL     1       0.798   9.340  20.184  0.00  0.00    +0.000 A 
ATOM     10  C   UNL     1       1.460   8.179  20.639  0.00  0.00    +0.000 A 
BRANCH   8  11
ATOM     11  N   UNL     1       0.148  10.858  18.393  0.00  0.00    +0.000 N 
ATOM     12  C   UNL     1      -1.219  10.892  18.136  0.00  0.00    +0.000 C 
ATOM     13  C   UNL     1      -1.733  12.256  17.764  0.00  0.00    +0.000 C 
ATOM     14  O   UNL     1      -2.004   9.952  18.174  0.00  0.00    +0.000 OA
ATOM     15  H   UNL     1       0.664  11.722  18.302  0.00  0.00    +0.000 HD
ENDBRANCH   8  11
ENDBRANCH   3   5
BRANCH   1  16
ATOM     16  C   UNL     1       3.256   3.775  20.546  0.00  0.00    +0.000 C 
BRANCH  16  18
ATOM     17  C   UNL     1       1.199   2.505  21.559  0.00  0.00    +0.000 C 
ATOM     18  C   UNL     1       2.420   3.375  21.786  0.00  0.00    +0.000 C 
ENDBRANCH  16  18
BRANCH  16  19
ATOM     19  S   UNL     1       3.728   2.396  19.452  0.00  0.00    +0.000 S 
BRANCH  19  20
ATOM     20  C   UNL     1       4.536   3.203  18.170  0.00  0.00    +0.000 A 
ATOM     21  N   UNL     1       4.097   3.330  16.944  0.00  0.00    +0.000 NA
ATOM     22  C   UNL     1       5.130   3.954  16.278  0.00  0.00    +0.000 A 
ATOM     23  C   UNL     1       5.243   4.313  14.927  0.00  0.00    +0.000 A 
ATOM     24  C   UNL     1       6.445   4.881  14.484  0.00  0.00    +0.000 A 
ATOM     25  C   UNL     1       7.507   5.095  15.366  0.00  0.00    +0.000 A 
ATOM     26  C   UNL     1       7.401   4.777  16.724  0.00  0.00    +0.000 A 
ATOM     27  C   UNL     1       6.195   4.214  17.139  0.00  0.00    +0.000 A 
ATOM     28  N   UNL     1       5.748   3.791  18.363  0.00  0.00    +0.000 N 
ATOM     29  H   UNL     1       6.241   3.851  19.241  0.00  0.00    +0.000 HD
ENDBRANCH  19  20
ENDBRANCH  16  19
ENDBRANCH   1  16
TORSDOF 6
ENDMDL
MODEL 7
REMARK VINA RESULT:      -7.9      0.326      1.186
REMARK  Name = 
REMARK  8 active torsions:
REMARK  status: ('A' for Active; 'I' for Inactive)
REMARK    1  A    between atoms: C_1  and  C_2
REMARK    2  A    between atoms: C_2  and  C_3
REMARK    3  A    between atoms: C_3  and  S_4
REMARK    4  A    between atoms: C_3  and  C_14
REMARK    5  A    between atoms: S_4  and  C_5
REMARK    6  A    between atoms: N_16  and  C_17
REMARK    7  A    between atoms: C_20  and  N_21
REMARK    8  A    between atoms: C_22  and  C_23
REMARK                            x       y       z     vdW  Elec       q    Type
REMARK                         _______ _______ _______ _____ _____    ______ ____
ROOT
ATOM      1  C   UNL     1       2.314   4.845  19.592  0.00  0.00    +0.000 C 
ATOM      2  O   UNL     1       1.434   4.740  18.728  0.00  0.00    +0.000 OA
ATOM      3  N   UNL     1       2.705   6.052  20.144  0.00  0.00    +0.000 N 
ATOM      4  H   UNL     1       3.606   6.064  20.611  0.00  0.00    +0.000 HD
ENDROOT
BRANCH   3   5
ATOM      5  C   UNL     1       2.137   7.308  19.811  0.00  0.00    +0.000 A 
ATOM      6  C   UNL     1       2.322   7.898  18.563  0.00  0.00    +0.000 A 
ATOM      7  C   UNL     1       1.754   9.132  18.252  0.00  0.00    +0.000 A 
ATOM      8  C   UNL     1       0.958   9.810  19.171  0.00  0.00    +0.000 A 
ATOM      9  C   UNL     1       0.778   9.234  20.435  0.00  0.00    +0.000 A 
ATOM     10  C   UNL     1       1.358   7.986  20.752  0.00  0.00    +0.000 A 
BRANCH   8  11
ATOM     11  N   UNL     1       0.306  11.025  18.853  0.00  0.00    +0.000 N 
ATOM     12  C   UNL     1       0.897  12.284  18.820  0.00  0.00    +0.000 C 
ATOM     13  C   UNL     1      -0.026  13.376  18.353  0.00  0.00    +0.000 C 
ATOM     14  O   UNL     1       2.047  12.571  19.132  0.00  0.00    +0.000 OA
ATOM     15  H   UNL     1      -0.664  10.955  18.580  0.00  0.00    +0.000 HD
ENDBRANCH   8  11
ENDBRANCH   3   5
BRANCH   1  16
ATOM     16  C   UNL     1       2.942   3.550  20.129  0.00  0.00    +0.000 C 
BRANCH  16  18
ATOM     17  C   UNL     1       1.330   2.384  21.835  0.00  0.00    +0.000 C 
ATOM     18  C   UNL     1       1.788   2.554  20.400  0.00  0.00    +0.000 C 
ENDBRANCH  16  18
BRANCH  16  19
ATOM     19  S   UNL     1       4.332   2.880  19.158  0.00  0.00    +0.000 S 
BRANCH  19  20
ATOM     20  C   UNL     1       5.239   4.290  18.794  0.00  0.00    +0.000 A 
ATOM     21  N   UNL     1       5.001   5.127  17.816  0.00  0.00    +0.000 NA
ATOM     22  C   UNL     1       6.047   6.021  17.874  0.00  0.00    +0.000 A 
ATOM     23  C   UNL     1       6.342   7.117  17.049  0.00  0.00    +0.000 A 
ATOM     24  C   UNL     1       7.524   7.832  17.282  0.00  0.00    +0.000 A 
ATOM     25  C   UNL     1       8.390   7.472  18.319  0.00  0.00    +0.000 A 
ATOM     26  C   UNL     1       8.096   6.405  19.175  0.00  0.00    +0.000 A 
ATOM     27  C   UNL     1       6.914   5.710  18.921  0.00  0.00    +0.000 A 
ATOM     28  N   UNL     1       6.322   4.641  19.540  0.00  0.00    +0.000 N 
ATOM     29  H   UNL     1       6.650   4.163  20.365  0.00  0.00    +0.000 HD
ENDBRANCH  19  20
ENDBRANCH  16  19
ENDBRANCH   1  16
TORSDOF 6
ENDMDL
MODEL 8
REMARK VINA RESULT:      -7.8      1.956      4.610
REMARK  Name = 
REMARK  8 active torsions:
REMARK  status: ('A' for Active; 'I' for Inactive)
REMARK    1  A    between atoms: C_1  and  C_2
REMARK    2  A    between atoms: C_2  and  C_3
REMARK    3  A    between atoms: C_3  and  S_4
REMARK    4  A    between atoms: C_3  and  C_14
REMARK    5  A    between atoms: S_4  and  C_5
REMARK    6  A    between atoms: N_16  and  C_17
REMARK    7  A    between atoms: C_20  and  N_21
REMARK    8  A    between atoms: C_22  and  C_23
REMARK                            x       y       z     vdW  Elec       q    Type
REMARK                         _______ _______ _______ _____ _____    ______ ____
ROOT
ATOM      1  C   UNL     1       4.635   6.388  17.758  0.00  0.00    +0.000 C 
ATOM      2  O   UNL     1       5.040   6.391  18.927  0.00  0.00    +0.000 OA
ATOM      3  N   UNL     1       3.475   7.020  17.348  0.00  0.00    +0.000 N 
ATOM      4  H   UNL     1       3.087   6.721  16.458  0.00  0.00    +0.000 HD
ENDROOT
BRANCH   3   5
ATOM      5  C   UNL     1       2.622   7.765  18.201  0.00  0.00    +0.000 A 
ATOM      6  C   UNL     1       2.337   7.359  19.503  0.00  0.00    +0.000 A 
ATOM      7  C   UNL     1       1.499   8.105  20.330  0.00  0.00    +0.000 A 
ATOM      8  C   UNL     1       0.935   9.300  19.891  0.00  0.00    +0.000 A 
ATOM      9  C   UNL     1       1.201   9.710  18.579  0.00  0.00    +0.000 A 
ATOM     10  C   UNL     1       2.046   8.952  17.741  0.00  0.00    +0.000 A 
BRANCH   8  11
ATOM     11  N   UNL     1       0.145  10.115  20.736  0.00  0.00    +0.000 N 
ATOM     12  C   UNL     1       0.517  11.351  21.257  0.00  0.00    +0.000 C 
ATOM     13  C   UNL     1      -0.571  12.029  22.046  0.00  0.00    +0.000 C 
ATOM     14  O   UNL     1       1.604  11.906  21.146  0.00  0.00    +0.000 OA
ATOM     15  H   UNL     1      -0.789   9.785  20.933  0.00  0.00    +0.000 HD
ENDBRANCH   8  11
ENDBRANCH   3   5
BRANCH   1  16
ATOM     16  C   UNL     1       5.520   5.710  16.700  0.00  0.00    +0.000 C 
BRANCH  16  18
ATOM     17  C   UNL     1       7.738   4.660  17.620  0.00  0.00    +0.000 C 
ATOM     18  C   UNL     1       6.992   5.891  17.143  0.00  0.00    +0.000 C 
ENDBRANCH  16  18
BRANCH  16  19
ATOM     19  S   UNL     1       5.050   4.007  16.247  0.00  0.00    +0.000 S 
BRANCH  19  20
ATOM     20  C   UNL     1       3.987   3.568  17.521  0.00  0.00    +0.000 A 
ATOM     21  N   UNL     1       2.682   3.660  17.500  0.00  0.00    +0.000 NA
ATOM     22  C   UNL     1       2.296   3.291  18.770  0.00  0.00    +0.000 A 
ATOM     23  C   UNL     1       1.016   3.236  19.342  0.00  0.00    +0.000 A 
ATOM     24  C   UNL     1       0.902   2.892  20.696  0.00  0.00    +0.000 A 
ATOM     25  C   UNL     1       2.034   2.600  21.461  0.00  0.00    +0.000 A 
ATOM     26  C   UNL     1       3.316   2.614  20.900  0.00  0.00    +0.000 A 
ATOM     27  C   UNL     1       3.401   2.960  19.552  0.00  0.00    +0.000 A 
ATOM     28  N   UNL     1       4.465   3.072  18.695  0.00  0.00    +0.000 N 
ATOM     29  H   UNL     1       5.432   2.876  18.903  0.00  0.00    +0.000 HD
ENDBRANCH  19  20
ENDBRANCH  16  19
ENDBRANCH   1  16
TORSDOF 6
ENDMDL
MODEL 9
REMARK VINA RESULT:      -7.8      1.738      2.423
REMARK  Name = 
REMARK  8 active torsions:
REMARK  status: ('A' for Active; 'I' for Inactive)
REMARK    1  A    between atoms: C_1  and  C_2
REMARK    2  A    between atoms: C_2  and  C_3
REMARK    3  A    between atoms: C_3  and  S_4
REMARK    4  A    between atoms: C_3  and  C_14
REMARK    5  A    between atoms: S_4  and  C_5
REMARK    6  A    between atoms: N_16  and  C_17
REMARK    7  A    between atoms: C_20  and  N_21
REMARK    8  A    between atoms: C_22  and  C_23
REMARK                            x       y       z     vdW  Elec       q    Type
REMARK                         _______ _______ _______ _____ _____    ______ ____
ROOT
ATOM      1  C   UNL     1       2.457   4.967  19.916  0.00  0.00    +0.000 C 
ATOM      2  O   UNL     1       1.581   4.755  19.069  0.00  0.00    +0.000 OA
ATOM      3  N   UNL     1       2.808   6.231  20.355  0.00  0.00    +0.000 N 
ATOM      4  H   UNL     1       3.709   6.316  20.815  0.00  0.00    +0.000 HD
ENDROOT
BRANCH   3   5
ATOM      5  C   UNL     1       2.199   7.432  19.911  0.00  0.00    +0.000 A 
ATOM      6  C   UNL     1       1.451   8.243  20.762  0.00  0.00    +0.000 A 
ATOM      7  C   UNL     1       0.862   9.423  20.311  0.00  0.00    +0.000 A 
ATOM      8  C   UNL     1       1.021   9.848  18.995  0.00  0.00    +0.000 A 
ATOM      9  C   UNL     1       1.758   9.033  18.125  0.00  0.00    +0.000 A 
ATOM     10  C   UNL     1       2.350   7.836  18.582  0.00  0.00    +0.000 A 
BRANCH   8  11
ATOM     11  N   UNL     1       0.501  11.079  18.532  0.00  0.00    +0.000 N 
ATOM     12  C   UNL     1      -0.843  11.442  18.513  0.00  0.00    +0.000 C 
ATOM     13  C   UNL     1      -1.084  12.854  18.054  0.00  0.00    +0.000 C 
ATOM     14  O   UNL     1      -1.803  10.743  18.813  0.00  0.00    +0.000 OA
ATOM     15  H   UNL     1       1.177  11.769  18.236  0.00  0.00    +0.000 HD
ENDBRANCH   8  11
ENDBRANCH   3   5
BRANCH   1  16
ATOM     16  C   UNL     1       3.127   3.747  20.567  0.00  0.00    +0.000 C 
BRANCH  16  18
ATOM     17  C   UNL     1       1.217   2.273  21.590  0.00  0.00    +0.000 C 
ATOM     18  C   UNL     1       2.268   3.347  21.792  0.00  0.00    +0.000 C 
ENDBRANCH  16  18
BRANCH  16  19
ATOM     19  S   UNL     1       3.554   2.380  19.439  0.00  0.00    +0.000 S 
BRANCH  19  20
ATOM     20  C   UNL     1       4.402   3.189  18.185  0.00  0.00    +0.000 A 
ATOM     21  N   UNL     1       3.965   3.395  16.969  0.00  0.00    +0.000 NA
ATOM     22  C   UNL     1       5.030   3.981  16.321  0.00  0.00    +0.000 A 
ATOM     23  C   UNL     1       5.157   4.389  14.985  0.00  0.00    +0.000 A 
ATOM     24  C   UNL     1       6.389   4.900  14.555  0.00  0.00    +0.000 A 
ATOM     25  C   UNL     1       7.468   5.010  15.437  0.00  0.00    +0.000 A 
ATOM     26  C   UNL     1       7.351   4.642  16.781  0.00  0.00    +0.000 A 
ATOM     27  C   UNL     1       6.114   4.138  17.183  0.00  0.00    +0.000 A 
ATOM     28  N   UNL     1       5.649   3.692  18.392  0.00  0.00    +0.000 N 
ATOM     29  H   UNL     1       6.151   3.685  19.267  0.00  0.00    +0.000 HD
ENDBRANCH  19  20
ENDBRANCH  16  19
ENDBRANCH   1  16
TORSDOF 6
ENDMDL
