MODEL 1
REMARK VINA RESULT:      -8.7      0.000      0.000
REMARK  Name = 
REMARK  10 active torsions:
REMARK  status: ('A' for Active; 'I' for Inactive)
REMARK    1  A    between atoms: C_1  and  O_2
REMARK    2  A    between atoms: O_2  and  C_3
REMARK    3  A    between atoms: C_6  and  S_7
REMARK    4  A    between atoms: S_7  and  N_10
REMARK    5  A    between atoms: C_17  and  N_18
REMARK    6  A    between atoms: C_19  and  C_21
REMARK    7  A    between atoms: C_21  and  O_22
REMARK    8  A    between atoms: O_22  and  C_23
REMARK    9  A    between atoms: C_23  and  C_25
REMARK   10  A    between atoms: C_27  and  C_28
REMARK                            x       y       z     vdW  Elec       q    Type
REMARK                         _______ _______ _______ _____ _____    ______ ____
ROOT
ATOM      1  C   UNL     1       6.990   5.158  15.303  0.00  0.00    +0.000 A 
ATOM      2  C   UNL     1       6.312   3.949  15.076  0.00  0.00    +0.000 A 
ATOM      3  C   UNL     1       5.441   3.434  16.035  0.00  0.00    +0.000 A 
ATOM      4  C   UNL     1       5.200   4.153  17.205  0.00  0.00    +0.000 A 
ATOM      5  C   UNL     1       5.775   5.406  17.386  0.00  0.00    +0.000 A 
ATOM      6  C   UNL     1       6.707   5.907  16.467  0.00  0.00    +0.000 A 
ENDROOT
BRANCH   6   7
ATOM      7  N   UNL     1       7.349   7.157  16.698  0.00  0.00    +0.000 N 
ATOM      8  C   UNL     1       7.946   7.527  17.901  0.00  0.00    +0.000 C 
ATOM      9  O   UNL     1       8.181   6.759  18.837  0.00  0.00    +0.000 OA
ATOM     10  H   UNL     1       7.445   7.752  15.883  0.00  0.00    +0.000 HD
BRANCH   8  11
ATOM     11  C   UNL     1       8.355   9.000  18.008  0.00  0.00    +0.000 C 
BRANCH  11  12
ATOM     12  O   UNL     1       8.771   9.340  19.342  0.00  0.00    +0.000 OA
BRANCH  12  13
ATOM     13  C   UNL     1       9.407  10.539  19.431  0.00  0.00    +0.000 C 
ATOM     14  O   UNL     1       9.780  11.062  20.472  0.00  0.00    +0.000 OA
BRANCH  13  15
ATOM     15  C   UNL     1       9.589  11.186  18.098  0.00  0.00    +0.000 C 
ATOM     16  C   UNL     1       8.709  12.355  17.698  0.00  0.00    +0.000 C 
ATOM     17  C   UNL     1      10.161  12.593  18.012  0.00  0.00    +0.000 C 
ATOM     18  C   UNL     1      11.102  12.983  16.923  0.00  0.00    +0.000 C 
ENDBRANCH  13  15
ENDBRANCH  12  13
ENDBRANCH  11  12
ENDBRANCH   8  11
ENDBRANCH   6   7
BRANCH   4  19
ATOM     19  S   UNL     1       4.143   3.415  18.422  0.00  0.00    +0.000 S 
ATOM     20  O   UNL     1       3.637   2.205  17.820  0.00  0.00    +0.000 OA
ATOM     21  O   UNL     1       4.899   3.375  19.655  0.00  0.00    +0.000 OA
BRANCH  19  22
ATOM     22  N   UNL     1       2.821   4.478  18.639  0.00  0.00    +0.000 NA
ATOM     23  C   UNL     1       2.757   5.260  19.921  0.00  0.00    +0.000 C 
ATOM     24  C   UNL     1       2.222   4.407  21.083  0.00  0.00    +0.000 C 
ATOM     25  O   UNL     1       0.967   3.783  20.768  0.00  0.00    +0.000 OA
ATOM     26  C   UNL     1       1.054   2.994  19.572  0.00  0.00    +0.000 C 
ATOM     27  C   UNL     1       1.481   3.860  18.385  0.00  0.00    +0.000 C 
ENDBRANCH  19  22
ENDBRANCH   4  19
BRANCH   1  29
ATOM     28  C   UNL     1       7.805   5.202  13.081  0.00  0.00    +0.000 C 
ATOM     29  O   UNL     1       7.945   5.646  14.437  0.00  0.00    +0.000 OA
ENDBRANCH   1  29
TORSDOF 8
ENDMDL
MODEL 2
REMARK VINA RESULT:      -8.6      1.618      2.261
REMARK  Name = 
REMARK  10 active torsions:
REMARK  status: ('A' for Active; 'I' for Inactive)
REMARK    1  A    between atoms: C_1  and  O_2
REMARK    2  A    between atoms: O_2  and  C_3
REMARK    3  A    between atoms: C_6  and  S_7
REMARK    4  A    between atoms: S_7  and  N_10
REMARK    5  A    between atoms: C_17  and  N_18
REMARK    6  A    between atoms: C_19  and  C_21
REMARK    7  A    between atoms: C_21  and  O_22
REMARK    8  A    between atoms: O_22  and  C_23
REMARK    9  A    between atoms: C_23  and  C_25
REMARK   10  A    between atoms: C_27  and  C_28
REMARK                            x       y       z     vdW  Elec       q    Type
REMARK                         _______ _______ _______ _____ _____    ______ ____
ROOT
ATOM      1  C   UNL     1       6.547   5.274  15.588  0.00  0.00    +0.000 A 
ATOM      2  C   UNL     1       5.759   4.128  15.385  0.00  0.00    +0.000 A 
ATOM      3  C   UNL     1       4.582   3.941  16.108  0.00  0.00    +0.000 A 
ATOM      4  C   UNL     1       4.156   4.924  16.999  0.00  0.00    +0.000 A 
ATOM      5  C   UNL     1       4.866   6.113  17.119  0.00  0.00    +0.000 A 
ATOM      6  C   UNL     1       6.087   6.289  16.456  0.00  0.00    +0.000 A 
ENDROOT
BRANCH   6   7
ATOM      7  N   UNL     1       6.847   7.480  16.644  0.00  0.00    +0.000 N 
ATOM      8  C   UNL     1       7.670   7.726  17.740  0.00  0.00    +0.000 C 
ATOM      9  O   UNL     1       8.010   6.879  18.570  0.00  0.00    +0.000 OA
ATOM     10  H   UNL     1       6.840   8.126  15.863  0.00  0.00    +0.000 HD
BRANCH   8  11
ATOM     11  C   UNL     1       8.194   9.160  17.862  0.00  0.00    +0.000 C 
BRANCH  11  12
ATOM     12  O   UNL     1       8.944   9.350  19.074  0.00  0.00    +0.000 OA
BRANCH  12  13
ATOM     13  C   UNL     1       9.592  10.545  19.138  0.00  0.00    +0.000 C 
ATOM     14  O   UNL     1       9.979  11.188  18.172  0.00  0.00    +0.000 OA
BRANCH  13  15
ATOM     15  C   UNL     1       9.816  10.995  20.543  0.00  0.00    +0.000 C 
ATOM     16  C   UNL     1      10.403  12.367  20.813  0.00  0.00    +0.000 C 
ATOM     17  C   UNL     1       8.956  12.105  21.127  0.00  0.00    +0.000 C 
ATOM     18  C   UNL     1       8.498  12.069  22.546  0.00  0.00    +0.000 C 
ENDBRANCH  13  15
ENDBRANCH  12  13
ENDBRANCH  11  12
ENDBRANCH   8  11
ENDBRANCH   6   7
BRANCH   4  19
ATOM     19  S   UNL     1       2.692   4.600  17.946  0.00  0.00    +0.000 S 
ATOM     20  O   UNL     1       2.086   5.888  18.184  0.00  0.00    +0.000 OA
ATOM     21  O   UNL     1       1.974   3.554  17.250  0.00  0.00    +0.000 OA
BRANCH  19  22
ATOM     22  N   UNL     1       3.206   3.984  19.456  0.00  0.00    +0.000 NA
ATOM     23  C   UNL     1       3.197   2.492  19.641  0.00  0.00    +0.000 C 
ATOM     24  C   UNL     1       1.786   1.963  19.940  0.00  0.00    +0.000 C 
ATOM     25  O   UNL     1       1.169   2.647  21.043  0.00  0.00    +0.000 OA
ATOM     26  C   UNL     1       1.134   4.067  20.833  0.00  0.00    +0.000 C 
ATOM     27  C   UNL     1       2.548   4.619  20.642  0.00  0.00    +0.000 C 
ENDBRANCH  19  22
ENDBRANCH   4  19
BRANCH   1  29
ATOM     28  C   UNL     1       7.781   5.207  13.569  0.00  0.00    +0.000 C 
ATOM     29  O   UNL     1       7.773   5.446  14.983  0.00  0.00    +0.000 OA
ENDBRANCH   1  29
TORSDOF 8
ENDMDL
MODEL 3
REMARK VINA RESULT:      -8.5      1.081      1.321
REMARK  Name = 
REMARK  10 active torsions:
REMARK  status: ('A' for Active; 'I' for Inactive)
REMARK    1  A    between atoms: C_1  and  O_2
REMARK    2  A    between atoms: O_2  and  C_3
REMARK    3  A    between atoms: C_6  and  S_7
REMARK    4  A    between atoms: S_7  and  N_10
REMARK    5  A    between atoms: C_17  and  N_18
REMARK    6  A    between atoms: C_19  and  C_21
REMARK    7  A    between atoms: C_21  and  O_22
REMARK    8  A    between atoms: O_22  and  C_23
REMARK    9  A    between atoms: C_23  and  C_25
REMARK   10  A    between atoms: C_27  and  C_28
REMARK                            x       y       z     vdW  Elec       q    Type
REMARK                         _______ _______ _______ _____ _____    ______ ____
ROOT
ATOM      1  C   UNL     1       6.569   5.204  15.495  0.00  0.00    +0.000 A 
ATOM      2  C   UNL     1       5.835   4.031  15.251  0.00  0.00    +0.000 A 
ATOM      3  C   UNL     1       4.710   3.727  16.017  0.00  0.00    +0.000 A 
ATOM      4  C   UNL     1       4.280   4.621  16.996  0.00  0.00    +0.000 A 
ATOM      5  C   UNL     1       4.930   5.838  17.165  0.00  0.00    +0.000 A 
ATOM      6  C   UNL     1       6.102   6.130  16.455  0.00  0.00    +0.000 A 
ENDROOT
BRANCH   6   7
ATOM      7  N   UNL     1       6.804   7.347  16.690  0.00  0.00    +0.000 N 
ATOM      8  C   UNL     1       7.648   7.575  17.774  0.00  0.00    +0.000 C 
ATOM      9  O   UNL     1       8.058   6.702  18.543  0.00  0.00    +0.000 OA
ATOM     10  H   UNL     1       6.739   8.034  15.948  0.00  0.00    +0.000 HD
BRANCH   8  11
ATOM     11  C   UNL     1       8.101   9.026  17.963  0.00  0.00    +0.000 C 
BRANCH  11  12
ATOM     12  O   UNL     1       8.940   9.174  19.121  0.00  0.00    +0.000 OA
BRANCH  12  13
ATOM     13  C   UNL     1       9.329  10.456  19.359  0.00  0.00    +0.000 C 
ATOM     14  O   UNL     1       9.530  10.936  20.465  0.00  0.00    +0.000 OA
BRANCH  13  15
ATOM     15  C   UNL     1       9.465  11.250  18.102  0.00  0.00    +0.000 C 
ATOM     16  C   UNL     1       8.718  12.562  17.952  0.00  0.00    +0.000 C 
ATOM     17  C   UNL     1      10.213  12.575  18.122  0.00  0.00    +0.000 C 
ATOM     18  C   UNL     1      11.086  12.991  16.988  0.00  0.00    +0.000 C 
ENDBRANCH  13  15
ENDBRANCH  12  13
ENDBRANCH  11  12
ENDBRANCH   8  11
ENDBRANCH   6   7
BRANCH   4  19
ATOM     19  S   UNL     1       2.890   4.147  17.990  0.00  0.00    +0.000 S 
ATOM     20  O   UNL     1       1.826   5.056  17.634  0.00  0.00    +0.000 OA
ATOM     21  O   UNL     1       2.735   2.718  17.828  0.00  0.00    +0.000 OA
BRANCH  19  22
ATOM     22  N   UNL     1       3.315   4.460  19.617  0.00  0.00    +0.000 NA
ATOM     23  C   UNL     1       3.829   3.310  20.437  0.00  0.00    +0.000 C 
ATOM     24  C   UNL     1       2.686   2.412  20.940  0.00  0.00    +0.000 C 
ATOM     25  O   UNL     1       1.672   3.158  21.632  0.00  0.00    +0.000 OA
ATOM     26  C   UNL     1       1.149   4.221  20.820  0.00  0.00    +0.000 C 
ATOM     27  C   UNL     1       2.265   5.181  20.404  0.00  0.00    +0.000 C 
ENDBRANCH  19  22
ENDBRANCH   4  19
BRANCH   1  29
ATOM     28  C   UNL     1       7.764   5.137  13.453  0.00  0.00    +0.000 C 
ATOM     29  O   UNL     1       7.749   5.489  14.843  0.00  0.00    +0.000 OA
ENDBRANCH   1  29
TORSDOF 8
ENDMDL
MODEL 4
REMARK VINA RESULT:      -8.4      1.580      2.016
REMARK  Name = 
REMARK  10 active torsions:
REMARK  status: ('A' for Active; 'I' for Inactive)
REMARK    1  A    between atoms: C_1  and  O_2
REMARK    2  A    between atoms: O_2  and  C_3
REMARK    3  A    between atoms: C_6  and  S_7
REMARK    4  A    between atoms: S_7  and  N_10
REMARK    5  A    between atoms: C_17  and  N_18
REMARK    6  A    between atoms: C_19  and  C_21
REMARK    7  A    between atoms: C_21  and  O_22
REMARK    8  A    between atoms: O_22  and  C_23
REMARK    9  A    between atoms: C_23  and  C_25
REMARK   10  A    between atoms: C_27  and  C_28
REMARK                            x       y       z     vdW  Elec       q    Type
REMARK                         _______ _______ _______ _____ _____    ______ ____
ROOT
ATOM      1  C   UNL     1       6.549   5.431  15.628  0.00  0.00    +0.000 A 
ATOM      2  C   UNL     1       5.636   4.411  15.312  0.00  0.00    +0.000 A 
ATOM      3  C   UNL     1       4.466   4.253  16.055  0.00  0.00    +0.000 A 
ATOM      4  C   UNL     1       4.175   5.149  17.082  0.00  0.00    +0.000 A 
ATOM      5  C   UNL     1       5.014   6.230  17.325  0.00  0.00    +0.000 A 
ATOM      6  C   UNL     1       6.228   6.365  16.638  0.00  0.00    +0.000 A 
ENDROOT
BRANCH   6   7
ATOM      7  N   UNL     1       7.118   7.434  16.946  0.00  0.00    +0.000 N 
ATOM      8  C   UNL     1       7.911   7.496  18.088  0.00  0.00    +0.000 C 
ATOM      9  O   UNL     1       8.105   6.556  18.864  0.00  0.00    +0.000 OA
ATOM     10  H   UNL     1       7.227   8.130  16.217  0.00  0.00    +0.000 HD
BRANCH   8  11
ATOM     11  C   UNL     1       8.601   8.840  18.340  0.00  0.00    +0.000 C 
BRANCH  11  12
ATOM     12  O   UNL     1       7.899   9.924  17.707  0.00  0.00    +0.000 OA
BRANCH  12  13
ATOM     13  C   UNL     1       8.547  11.119  17.784  0.00  0.00    +0.000 C 
ATOM     14  O   UNL     1       8.099  12.188  17.395  0.00  0.00    +0.000 OA
BRANCH  13  15
ATOM     15  C   UNL     1       9.908  10.989  18.382  0.00  0.00    +0.000 C 
ATOM     16  C   UNL     1      11.074  11.751  17.782  0.00  0.00    +0.000 C 
ATOM     17  C   UNL     1      10.525  12.167  19.119  0.00  0.00    +0.000 C 
ATOM     18  C   UNL     1      11.342  11.972  20.351  0.00  0.00    +0.000 C 
ENDBRANCH  13  15
ENDBRANCH  12  13
ENDBRANCH  11  12
ENDBRANCH   8  11
ENDBRANCH   6   7
BRANCH   4  19
ATOM     19  S   UNL     1       2.712   4.855  18.041  0.00  0.00    +0.000 S 
ATOM     20  O   UNL     1       2.192   6.161  18.371  0.00  0.00    +0.000 OA
ATOM     21  O   UNL     1       1.918   3.901  17.299  0.00  0.00    +0.000 OA
BRANCH  19  22
ATOM     22  N   UNL     1       3.216   4.116  19.498  0.00  0.00    +0.000 NA
ATOM     23  C   UNL     1       3.307   2.616  19.525  0.00  0.00    +0.000 C 
ATOM     24  C   UNL     1       1.926   1.964  19.707  0.00  0.00    +0.000 C 
ATOM     25  O   UNL     1       1.225   2.483  20.848  0.00  0.00    +0.000 OA
ATOM     26  C   UNL     1       1.096   3.911  20.787  0.00  0.00    +0.000 C 
ATOM     27  C   UNL     1       2.473   4.574  20.715  0.00  0.00    +0.000 C 
ENDBRANCH  19  22
ENDBRANCH   4  19
BRANCH   1  29
ATOM     28  C   UNL     1       7.755   5.237  13.600  0.00  0.00    +0.000 C 
ATOM     29  O   UNL     1       7.769   5.553  14.998  0.00  0.00    +0.000 OA
ENDBRANCH   1  29
TORSDOF 8
ENDMDL
MODEL 5
REMARK VINA RESULT:      -8.2      1.477      2.072
REMARK  Name = 
REMARK  10 active torsions:
REMARK  status: ('A' for Active; 'I' for Inactive)
REMARK    1  A    between atoms: C_1  and  O_2
REMARK    2  A    between atoms: O_2  and  C_3
REMARK    3  A    between atoms: C_6  and  S_7
REMARK    4  A    between atoms: S_7  and  N_10
REMARK    5  A    between atoms: C_17  and  N_18
REMARK    6  A    between atoms: C_19  and  C_21
REMARK    7  A    between atoms: C_21  and  O_22
REMARK    8  A    between atoms: O_22  and  C_23
REMARK    9  A    between atoms: C_23  and  C_25
REMARK   10  A    between atoms: C_27  and  C_28
REMARK                            x       y       z     vdW  Elec       q    Type
REMARK                         _______ _______ _______ _____ _____    ______ ____
ROOT
ATOM      1  C   UNL     1       6.743   5.037  15.305  0.00  0.00    +0.000 A 
ATOM      2  C   UNL     1       6.112   3.807  15.052  0.00  0.00    +0.000 A 
ATOM      3  C   UNL     1       5.023   3.398  15.821  0.00  0.00    +0.000 A 
ATOM      4  C   UNL     1       4.523   4.241  16.812  0.00  0.00    +0.000 A 
ATOM      5  C   UNL     1       5.065   5.509  16.990  0.00  0.00    +0.000 A 
ATOM      6  C   UNL     1       6.203   5.908  16.277  0.00  0.00    +0.000 A 
ENDROOT
BRANCH   6   7
ATOM      7  N   UNL     1       6.799   7.180  16.521  0.00  0.00    +0.000 N 
ATOM      8  C   UNL     1       7.597   7.479  17.622  0.00  0.00    +0.000 C 
ATOM      9  O   UNL     1       8.059   6.646  18.405  0.00  0.00    +0.000 OA
ATOM     10  H   UNL     1       6.694   7.857  15.775  0.00  0.00    +0.000 HD
BRANCH   8  11
ATOM     11  C   UNL     1       7.925   8.963  17.814  0.00  0.00    +0.000 C 
BRANCH  11  12
ATOM     12  O   UNL     1       8.763   9.177  18.963  0.00  0.00    +0.000 OA
BRANCH  12  13
ATOM     13  C   UNL     1       9.327  10.415  19.010  0.00  0.00    +0.000 C 
ATOM     14  O   UNL     1       9.531  11.132  18.041  0.00  0.00    +0.000 OA
BRANCH  13  15
ATOM     15  C   UNL     1       9.706  10.814  20.397  0.00  0.00    +0.000 C 
ATOM     16  C   UNL     1      10.570  12.041  20.622  0.00  0.00    +0.000 C 
ATOM     17  C   UNL     1       9.117  12.076  21.009  0.00  0.00    +0.000 C 
ATOM     18  C   UNL     1       8.733  12.135  22.449  0.00  0.00    +0.000 C 
ENDBRANCH  13  15
ENDBRANCH  12  13
ENDBRANCH  11  12
ENDBRANCH   8  11
ENDBRANCH   6   7
BRANCH   4  19
ATOM     19  S   UNL     1       3.185   3.639  17.808  0.00  0.00    +0.000 S 
ATOM     20  O   UNL     1       2.049   4.467  17.480  0.00  0.00    +0.000 OA
ATOM     21  O   UNL     1       3.142   2.205  17.617  0.00  0.00    +0.000 OA
BRANCH  19  22
ATOM     22  N   UNL     1       3.601   3.951  19.437  0.00  0.00    +0.000 NA
ATOM     23  C   UNL     1       2.880   3.175  20.503  0.00  0.00    +0.000 C 
ATOM     24  C   UNL     1       1.482   3.750  20.781  0.00  0.00    +0.000 C 
ATOM     25  O   UNL     1       1.520   5.157  21.070  0.00  0.00    +0.000 OA
ATOM     26  C   UNL     1       2.162   5.897  20.021  0.00  0.00    +0.000 C 
ATOM     27  C   UNL     1       3.594   5.401  19.811  0.00  0.00    +0.000 C 
ENDBRANCH  19  22
ENDBRANCH   4  19
BRANCH   1  29
ATOM     28  C   UNL     1       7.830   5.319  13.222  0.00  0.00    +0.000 C 
ATOM     29  O   UNL     1       7.890   5.430  14.650  0.00  0.00    +0.000 OA
ENDBRANCH   1  29
TORSDOF 8
ENDMDL
MODEL 6
REMARK VINA RESULT:      -8.2      1.420      2.027
REMARK  Name = 
REMARK  10 active torsions:
REMARK  status: ('A' for Active; 'I' for Inactive)
REMARK    1  A    between atoms: C_1  and  O_2
REMARK    2  A    between atoms: O_2  and  C_3
REMARK    3  A    between atoms: C_6  and  S_7
REMARK    4  A    between atoms: S_7  and  N_10
REMARK    5  A    between atoms: C_17  and  N_18
REMARK    6  A    between atoms: C_19  and  C_21
REMARK    7  A    between atoms: C_21  and  O_22
REMARK    8  A    between atoms: O_22  and  C_23
REMARK    9  A    between atoms: C_23  and  C_25
REMARK   10  A    between atoms: C_27  and  C_28
REMARK                            x       y       z     vdW  Elec       q    Type
REMARK                         _______ _______ _______ _____ _____    ______ ____
ROOT
ATOM      1  C   UNL     1       6.810   5.272  15.762  0.00  0.00    +0.000 A 
ATOM      2  C   UNL     1       6.135   4.041  15.715  0.00  0.00    +0.000 A 
ATOM      3  C   UNL     1       5.341   3.626  16.783  0.00  0.00    +0.000 A 
ATOM      4  C   UNL     1       5.173   4.465  17.884  0.00  0.00    +0.000 A 
ATOM      5  C   UNL     1       5.741   5.733  17.889  0.00  0.00    +0.000 A 
ATOM      6  C   UNL     1       6.599   6.139  16.858  0.00  0.00    +0.000 A 
ENDROOT
BRANCH   6   7
ATOM      7  N   UNL     1       7.238   7.412  16.908  0.00  0.00    +0.000 N 
ATOM      8  C   UNL     1       8.013   7.864  17.973  0.00  0.00    +0.000 C 
ATOM      9  O   UNL     1       8.416   7.158  18.901  0.00  0.00    +0.000 OA
ATOM     10  H   UNL     1       7.184   7.957  16.056  0.00  0.00    +0.000 HD
BRANCH   8  11
ATOM     11  C   UNL     1       8.395   9.347  17.927  0.00  0.00    +0.000 C 
BRANCH  11  12
ATOM     12  O   UNL     1       9.285   9.700  19.000  0.00  0.00    +0.000 OA
BRANCH  12  13
ATOM     13  C   UNL     1       9.345  11.036  19.248  0.00  0.00    +0.000 C 
ATOM     14  O   UNL     1       9.192  11.914  18.411  0.00  0.00    +0.000 OA
BRANCH  13  15
ATOM     15  C   UNL     1       9.650  11.335  20.678  0.00  0.00    +0.000 C 
ATOM     16  C   UNL     1      10.100  12.727  21.081  0.00  0.00    +0.000 C 
ATOM     17  C   UNL     1       8.729  12.248  21.473  0.00  0.00    +0.000 C 
ATOM     18  C   UNL     1       8.417  11.981  22.906  0.00  0.00    +0.000 C 
ENDBRANCH  13  15
ENDBRANCH  12  13
ENDBRANCH  11  12
ENDBRANCH   8  11
ENDBRANCH   6   7
BRANCH   4  19
ATOM     19  S   UNL     1       4.215   3.855  19.246  0.00  0.00    +0.000 S 
ATOM     20  O   UNL     1       4.947   2.724  19.764  0.00  0.00    +0.000 OA
ATOM     21  O   UNL     1       3.914   4.996  20.082  0.00  0.00    +0.000 OA
BRANCH  19  22
ATOM     22  N   UNL     1       2.748   3.266  18.594  0.00  0.00    +0.000 NA
ATOM     23  C   UNL     1       1.589   4.221  18.509  0.00  0.00    +0.000 C 
ATOM     24  C   UNL     1       0.885   4.386  19.865  0.00  0.00    +0.000 C 
ATOM     25  O   UNL     1       0.505   3.124  20.439  0.00  0.00    +0.000 OA
ATOM     26  C   UNL     1       1.628   2.240  20.566  0.00  0.00    +0.000 C 
ATOM     27  C   UNL     1       2.270   1.983  19.201  0.00  0.00    +0.000 C 
ENDBRANCH  19  22
ENDBRANCH   4  19
BRANCH   1  29
ATOM     28  C   UNL     1       7.492   5.050  13.507  0.00  0.00    +0.000 C 
ATOM     29  O   UNL     1       7.694   5.671  14.783  0.00  0.00    +0.000 OA
ENDBRANCH   1  29
TORSDOF 8
ENDMDL
MODEL 7
REMARK VINA RESULT:      -8.0      1.237      1.757
REMARK  Name = 
REMARK  10 active torsions:
REMARK  status: ('A' for Active; 'I' for Inactive)
REMARK    1  A    between atoms: C_1  and  O_2
REMARK    2  A    between atoms: O_2  and  C_3
REMARK    3  A    between atoms: C_6  and  S_7
REMARK    4  A    between atoms: S_7  and  N_10
REMARK    5  A    between atoms: C_17  and  N_18
REMARK    6  A    between atoms: C_19  and  C_21
REMARK    7  A    between atoms: C_21  and  O_22
REMARK    8  A    between atoms: O_22  and  C_23
REMARK    9  A    between atoms: C_23  and  C_25
REMARK   10  A    between atoms: C_27  and  C_28
REMARK                            x       y       z     vdW  Elec       q    Type
REMARK                         _______ _______ _______ _____ _____    ______ ____
ROOT
ATOM      1  C   UNL     1       6.858   5.065  15.326  0.00  0.00    +0.000 A 
ATOM      2  C   UNL     1       5.956   4.046  14.973  0.00  0.00    +0.000 A 
ATOM      3  C   UNL     1       5.109   3.489  15.930  0.00  0.00    +0.000 A 
ATOM      4  C   UNL     1       5.119   3.983  17.233  0.00  0.00    +0.000 A 
ATOM      5  C   UNL     1       5.922   5.069  17.562  0.00  0.00    +0.000 A 
ATOM      6  C   UNL     1       6.831   5.596  16.635  0.00  0.00    +0.000 A 
ENDROOT
BRANCH   6   7
ATOM      7  N   UNL     1       7.705   6.659  17.004  0.00  0.00    +0.000 N 
ATOM      8  C   UNL     1       7.284   7.926  17.399  0.00  0.00    +0.000 C 
ATOM      9  O   UNL     1       6.121   8.226  17.681  0.00  0.00    +0.000 OA
ATOM     10  H   UNL     1       8.686   6.411  17.065  0.00  0.00    +0.000 HD
BRANCH   8  11
ATOM     11  C   UNL     1       8.388   8.983  17.510  0.00  0.00    +0.000 C 
BRANCH  11  12
ATOM     12  O   UNL     1       8.650   9.335  18.879  0.00  0.00    +0.000 OA
BRANCH  12  13
ATOM     13  C   UNL     1       9.337  10.501  19.025  0.00  0.00    +0.000 C 
ATOM     14  O   UNL     1       9.700  11.222  18.107  0.00  0.00    +0.000 OA
BRANCH  13  15
ATOM     15  C   UNL     1       9.633  10.810  20.454  0.00  0.00    +0.000 C 
ATOM     16  C   UNL     1      10.427  12.053  20.811  0.00  0.00    +0.000 C 
ATOM     17  C   UNL     1       8.957  11.994  21.128  0.00  0.00    +0.000 C 
ATOM     18  C   UNL     1       8.506  11.927  22.548  0.00  0.00    +0.000 C 
ENDBRANCH  13  15
ENDBRANCH  12  13
ENDBRANCH  11  12
ENDBRANCH   8  11
ENDBRANCH   6   7
BRANCH   4  19
ATOM     19  S   UNL     1       4.075   3.186  18.425  0.00  0.00    +0.000 S 
ATOM     20  O   UNL     1       3.537   2.024  17.759  0.00  0.00    +0.000 OA
ATOM     21  O   UNL     1       4.856   3.057  19.636  0.00  0.00    +0.000 OA
BRANCH  19  22
ATOM     22  N   UNL     1       2.775   4.253  18.736  0.00  0.00    +0.000 NA
ATOM     23  C   UNL     1       2.713   4.900  20.092  0.00  0.00    +0.000 C 
ATOM     24  C   UNL     1       2.144   3.945  21.153  0.00  0.00    +0.000 C 
ATOM     25  O   UNL     1       0.879   3.386  20.763  0.00  0.00    +0.000 OA
ATOM     26  C   UNL     1       0.962   2.724  19.492  0.00  0.00    +0.000 C 
ATOM     27  C   UNL     1       1.425   3.697  18.405  0.00  0.00    +0.000 C 
ENDBRANCH  19  22
ENDBRANCH   4  19
BRANCH   1  29
ATOM     28  C   UNL     1       7.694   5.046  13.112  0.00  0.00    +0.000 C 
ATOM     29  O   UNL     1       7.792   5.565  14.445  0.00  0.00    +0.000 OA
ENDBRANCH   1  29
TORSDOF 8
ENDMDL
MODEL 8
REMARK VINA RESULT:      -7.8      5.807      8.494
REMARK  Name = 
REMARK  10 active torsions:
REMARK  status: ('A' for Active; 'I' for Inactive)
REMARK    1  A    between atoms: C_1  and  O_2
REMARK    2  A    between atoms: O_2  and  C_3
REMARK    3  A    between atoms: C_6  and  S_7
REMARK    4  A    between atoms: S_7  and  N_10
REMARK    5  A    between atoms: C_17  and  N_18
REMARK    6  A    between atoms: C_19  and  C_21
REMARK    7  A    between atoms: C_21  and  O_22
REMARK    8  A    between atoms: O_22  and  C_23
REMARK    9  A    between atoms: C_23  and  C_25
REMARK   10  A    between atoms: C_27  and  C_28
REMARK                            x       y       z     vdW  Elec       q    Type
REMARK                         _______ _______ _______ _____ _____    ______ ____
ROOT
ATOM      1  C   UNL     1       1.301   9.585  19.064  0.00  0.00    +0.000 A 
ATOM      2  C   UNL     1       1.601   9.117  17.773  0.00  0.00    +0.000 A 
ATOM      3  C   UNL     1       2.220   7.881  17.594  0.00  0.00    +0.000 A 
ATOM      4  C   UNL     1       2.493   7.079  18.700  0.00  0.00    +0.000 A 
ATOM      5  C   UNL     1       2.093   7.480  19.970  0.00  0.00    +0.000 A 
ATOM      6  C   UNL     1       1.535   8.748  20.179  0.00  0.00    +0.000 A 
ENDROOT
BRANCH   6   7
ATOM      7  N   UNL     1       1.199   9.182  21.493  0.00  0.00    +0.000 N 
ATOM      8  C   UNL     1      -0.005   8.900  22.133  0.00  0.00    +0.000 C 
ATOM      9  O   UNL     1      -0.836   8.077  21.741  0.00  0.00    +0.000 OA
ATOM     10  H   UNL     1       1.946   9.640  22.003  0.00  0.00    +0.000 HD
BRANCH   8  11
ATOM     11  C   UNL     1      -0.256   9.668  23.435  0.00  0.00    +0.000 C 
BRANCH  11  12
ATOM     12  O   UNL     1      -1.421  10.505  23.342  0.00  0.00    +0.000 OA
BRANCH  12  13
ATOM     13  C   UNL     1      -1.172  11.738  22.821  0.00  0.00    +0.000 C 
ATOM     14  O   UNL     1      -0.114  12.088  22.318  0.00  0.00    +0.000 OA
BRANCH  13  15
ATOM     15  C   UNL     1      -2.342  12.656  22.951  0.00  0.00    +0.000 C 
ATOM     16  C   UNL     1      -2.410  13.917  22.111  0.00  0.00    +0.000 C 
ATOM     17  C   UNL     1      -3.340  12.774  21.809  0.00  0.00    +0.000 C 
ATOM     18  C   UNL     1      -4.802  12.917  22.067  0.00  0.00    +0.000 C 
ENDBRANCH  13  15
ENDBRANCH  12  13
ENDBRANCH  11  12
ENDBRANCH   8  11
ENDBRANCH   6   7
BRANCH   4  19
ATOM     19  S   UNL     1       3.348   5.551  18.419  0.00  0.00    +0.000 S 
ATOM     20  O   UNL     1       4.133   5.756  17.226  0.00  0.00    +0.000 OA
ATOM     21  O   UNL     1       3.976   5.193  19.673  0.00  0.00    +0.000 OA
BRANCH  19  22
ATOM     22  N   UNL     1       2.158   4.376  18.061  0.00  0.00    +0.000 NA
ATOM     23  C   UNL     1       1.389   3.789  19.211  0.00  0.00    +0.000 C 
ATOM     24  C   UNL     1       2.196   2.704  19.943  0.00  0.00    +0.000 C 
ATOM     25  O   UNL     1       2.685   1.693  19.048  0.00  0.00    +0.000 OA
ATOM     26  C   UNL     1       3.464   2.259  17.984  0.00  0.00    +0.000 C 
ATOM     27  C   UNL     1       2.633   3.262  17.181  0.00  0.00    +0.000 C 
ENDBRANCH  19  22
ENDBRANCH   4  19
BRANCH   1  29
ATOM     28  C   UNL     1      -0.520  11.069  18.775  0.00  0.00    +0.000 C 
ATOM     29  O   UNL     1       0.797  10.846  19.297  0.00  0.00    +0.000 OA
ENDBRANCH   1  29
TORSDOF 8
ENDMDL
MODEL 9
REMARK VINA RESULT:      -7.7      6.128      8.783
REMARK  Name = 
REMARK  10 active torsions:
REMARK  status: ('A' for Active; 'I' for Inactive)
REMARK    1  A    between atoms: C_1  and  O_2
REMARK    2  A    between atoms: O_2  and  C_3
REMARK    3  A    between atoms: C_6  and  S_7
REMARK    4  A    between atoms: S_7  and  N_10
REMARK    5  A    between atoms: C_17  and  N_18
REMARK    6  A    between atoms: C_19  and  C_21
REMARK    7  A    between atoms: C_21  and  O_22
REMARK    8  A    between atoms: O_22  and  C_23
REMARK    9  A    between atoms: C_23  and  C_25
REMARK   10  A    between atoms: C_27  and  C_28
REMARK                            x       y       z     vdW  Elec       q    Type
REMARK                         _______ _______ _______ _____ _____    ______ ____
ROOT
ATOM      1  C   UNL     1       1.358   9.470  18.898  0.00  0.00    +0.000 A 
ATOM      2  C   UNL     1       1.820   8.706  17.812  0.00  0.00    +0.000 A 
ATOM      3  C   UNL     1       2.393   7.453  18.020  0.00  0.00    +0.000 A 
ATOM      4  C   UNL     1       2.459   6.930  19.311  0.00  0.00    +0.000 A 
ATOM      5  C   UNL     1       1.899   7.626  20.376  0.00  0.00    +0.000 A 
ATOM      6  C   UNL     1       1.383   8.916  20.198  0.00  0.00    +0.000 A 
ENDROOT
BRANCH   6   7
ATOM      7  N   UNL     1       0.881   9.653  21.308  0.00  0.00    +0.000 N 
ATOM      8  C   UNL     1      -0.257   9.310  22.034  0.00  0.00    +0.000 C 
ATOM      9  O   UNL     1      -0.848   8.231  21.948  0.00  0.00    +0.000 OA
ATOM     10  H   UNL     1       1.469  10.416  21.624  0.00  0.00    +0.000 HD
BRANCH   8  11
ATOM     11  C   UNL     1      -0.755  10.370  23.022  0.00  0.00    +0.000 C 
BRANCH  11  12
ATOM     12  O   UNL     1      -0.807  11.674  22.420  0.00  0.00    +0.000 OA
BRANCH  12  13
ATOM     13  C   UNL     1      -1.463  12.601  23.170  0.00  0.00    +0.000 C 
ATOM     14  O   UNL     1      -0.933  13.530  23.762  0.00  0.00    +0.000 OA
BRANCH  13  15
ATOM     15  C   UNL     1      -2.933  12.350  23.224  0.00  0.00    +0.000 C 
ATOM     16  C   UNL     1      -3.830  13.277  24.022  0.00  0.00    +0.000 C 
ATOM     17  C   UNL     1      -3.889  13.301  22.518  0.00  0.00    +0.000 C 
ATOM     18  C   UNL     1      -5.104  12.801  21.814  0.00  0.00    +0.000 C 
ENDBRANCH  13  15
ENDBRANCH  12  13
ENDBRANCH  11  12
ENDBRANCH   8  11
ENDBRANCH   6   7
BRANCH   4  19
ATOM     19  S   UNL     1       3.266   5.365  19.526  0.00  0.00    +0.000 S 
ATOM     20  O   UNL     1       4.681   5.642  19.457  0.00  0.00    +0.000 OA
ATOM     21  O   UNL     1       2.681   4.758  20.702  0.00  0.00    +0.000 OA
BRANCH  19  22
ATOM     22  N   UNL     1       2.858   4.408  18.169  0.00  0.00    +0.000 NA
ATOM     23  C   UNL     1       1.476   3.819  18.121  0.00  0.00    +0.000 C 
ATOM     24  C   UNL     1       1.359   2.565  19.003  0.00  0.00    +0.000 C 
ATOM     25  O   UNL     1       2.371   1.591  18.703  0.00  0.00    +0.000 OA
ATOM     26  C   UNL     1       3.690   2.150  18.805  0.00  0.00    +0.000 C 
ATOM     27  C   UNL     1       3.850   3.333  17.848  0.00  0.00    +0.000 C 
ENDBRANCH  19  22
ENDBRANCH   4  19
BRANCH   1  29
ATOM     28  C   UNL     1      -0.508  10.857  18.458  0.00  0.00    +0.000 C 
ATOM     29  O   UNL     1       0.892  10.758  18.752  0.00  0.00    +0.000 OA
ENDBRANCH   1  29
TORSDOF 8
ENDMDL
