MODEL 1
REMARK VINA RESULT:      -8.1      0.000      0.000
REMARK  Name = 
REMARK  10 active torsions:
REMARK  status: ('A' for Active; 'I' for Inactive)
REMARK    1  A    between atoms: C_1  and  C_2
REMARK    2  A    between atoms: C_6  and  C_7
REMARK    3  A    between atoms: N_9  and  C_10
REMARK    4  A    between atoms: N_9  and  C_11
REMARK    5  A    between atoms: C_11  and  C_12
REMARK    6  A    between atoms: C_12  and  S_13
REMARK    7  A    between atoms: S_13  and  C_14
REMARK    8  A    between atoms: C_19  and  C_20
REMARK    9  A    between atoms: C_28  and  C_29
REMARK   10  A    between atoms: C_29  and  N_30
REMARK                            x       y       z     vdW  Elec       q    Type
REMARK                         _______ _______ _______ _____ _____    ______ ____
ROOT
ATOM      1  C   UNL     1       2.318   2.718  21.667  0.00  0.00    +0.000 C 
ATOM      2  C   UNL     1       2.605   3.862  20.716  0.00  0.00    +0.000 A 
ATOM      3  N   UNL     1       1.893   4.936  20.893  0.00  0.00    +0.000 NA
ATOM      4  C   UNL     1       2.101   5.971  20.042  0.00  0.00    +0.000 A 
ATOM      5  N   UNL     1       1.531   7.163  20.046  0.00  0.00    +0.000 NA
ATOM      6  C   UNL     1       2.089   7.879  19.007  0.00  0.00    +0.000 A 
ATOM      7  C   UNL     1       2.974   7.062  18.323  0.00  0.00    +0.000 A 
ATOM      8  N   UNL     1       3.012   5.868  19.004  0.00  0.00    +0.000 N 
ATOM      9  C   UNL     1       3.800   4.722  18.802  0.00  0.00    +0.000 A 
ATOM     10  C   UNL     1       3.665   3.669  19.646  0.00  0.00    +0.000 A 
ENDROOT
BRANCH   9  11
ATOM     11  C   UNL     1       4.774   4.684  17.688  0.00  0.00    +0.000 A 
ATOM     12  C   UNL     1       4.324   4.263  16.426  0.00  0.00    +0.000 A 
ATOM     13  C   UNL     1       5.185   4.275  15.327  0.00  0.00    +0.000 A 
ATOM     14  C   UNL     1       6.502   4.700  15.484  0.00  0.00    +0.000 A 
ATOM     15 CL   UNL     1       7.551   4.747  14.122  0.00  0.00    +0.000 Cl
ATOM     16  C   UNL     1       6.977   5.091  16.734  0.00  0.00    +0.000 A 
ATOM     17  C   UNL     1       6.115   5.080  17.834  0.00  0.00    +0.000 A 
ATOM     18 CL   UNL     1       6.755   5.559  19.367  0.00  0.00    +0.000 Cl
ENDBRANCH   9  11
BRANCH   6  19
ATOM     19  C   UNL     1       1.762   9.268  18.623  0.00  0.00    +0.000 C 
ATOM     20  O   UNL     1       2.070   9.670  17.497  0.00  0.00    +0.000 OA
ATOM     21  N   UNL     1       1.138  10.140  19.536  0.00  0.00    +0.000 N 
ATOM     22  C   UNL     1       0.860   9.834  20.936  0.00  0.00    +0.000 C 
BRANCH  21  23
ATOM     23  C   UNL     1       0.727  11.478  19.070  0.00  0.00    +0.000 C 
BRANCH  23  24
ATOM     24  C   UNL     1       0.443  12.450  20.204  0.00  0.00    +0.000 C 
BRANCH  24  25
ATOM     25  S   UNL     1       1.687  13.720  20.359  0.00  0.00    +0.000 S 
ATOM     26  C   UNL     1       2.441  13.838  18.755  0.00  0.00    +0.000 C 
ATOM     27  O   UNL     1       1.013  14.976  20.630  0.00  0.00    +0.000 OA
ATOM     28  O   UNL     1       2.698  13.214  21.269  0.00  0.00    +0.000 OA
ENDBRANCH  24  25
ENDBRANCH  23  24
ENDBRANCH  21  23
ENDBRANCH   6  19
BRANCH  10  29
ATOM     29  C   UNL     1       4.530   2.436  19.660  0.00  0.00    +0.000 C 
BRANCH  29  30
ATOM     30  N   UNL     1       4.044   1.398  18.762  0.00  0.00    +0.000 NA
ATOM     31  H   UNL     1       3.715   0.598  19.299  0.00  0.00    +0.000 HD
ATOM     32  H   UNL     1       4.827   1.044  18.210  0.00  0.00    +0.000 HD
ENDBRANCH  29  30
ENDBRANCH  10  29
TORSDOF 7
ENDMDL
MODEL 2
REMARK VINA RESULT:      -8.0      0.565      1.031
REMARK  Name = 
REMARK  10 active torsions:
REMARK  status: ('A' for Active; 'I' for Inactive)
REMARK    1  A    between atoms: C_1  and  C_2
REMARK    2  A    between atoms: C_6  and  C_7
REMARK    3  A    between atoms: N_9  and  C_10
REMARK    4  A    between atoms: N_9  and  C_11
REMARK    5  A    between atoms: C_11  and  C_12
REMARK    6  A    between atoms: C_12  and  S_13
REMARK    7  A    between atoms: S_13  and  C_14
REMARK    8  A    between atoms: C_19  and  C_20
REMARK    9  A    between atoms: C_28  and  C_29
REMARK   10  A    between atoms: C_29  and  N_30
REMARK                            x       y       z     vdW  Elec       q    Type
REMARK                         _______ _______ _______ _____ _____    ______ ____
ROOT
ATOM      1  C   UNL     1       2.309   2.617  21.616  0.00  0.00    +0.000 C 
ATOM      2  C   UNL     1       2.594   3.790  20.702  0.00  0.00    +0.000 A 
ATOM      3  N   UNL     1       1.885   4.860  20.916  0.00  0.00    +0.000 NA
ATOM      4  C   UNL     1       2.092   5.922  20.099  0.00  0.00    +0.000 A 
ATOM      5  N   UNL     1       1.524   7.114  20.144  0.00  0.00    +0.000 NA
ATOM      6  C   UNL     1       2.079   7.863  19.127  0.00  0.00    +0.000 A 
ATOM      7  C   UNL     1       2.960   7.066  18.413  0.00  0.00    +0.000 A 
ATOM      8  N   UNL     1       2.999   5.850  19.054  0.00  0.00    +0.000 N 
ATOM      9  C   UNL     1       3.783   4.710  18.812  0.00  0.00    +0.000 A 
ATOM     10  C   UNL     1       3.649   3.631  19.622  0.00  0.00    +0.000 A 
ENDROOT
BRANCH   9  11
ATOM     11  C   UNL     1       4.753   4.706  17.694  0.00  0.00    +0.000 A 
ATOM     12  C   UNL     1       4.306   4.293  16.428  0.00  0.00    +0.000 A 
ATOM     13  C   UNL     1       5.161   4.338  15.325  0.00  0.00    +0.000 A 
ATOM     14  C   UNL     1       6.470   4.787  15.482  0.00  0.00    +0.000 A 
ATOM     15 CL   UNL     1       7.511   4.873  14.116  0.00  0.00    +0.000 Cl
ATOM     16  C   UNL     1       6.942   5.170  16.736  0.00  0.00    +0.000 A 
ATOM     17  C   UNL     1       6.087   5.128  17.839  0.00  0.00    +0.000 A 
ATOM     18 CL   UNL     1       6.723   5.598  19.376  0.00  0.00    +0.000 Cl
ENDBRANCH   9  11
BRANCH   6  19
ATOM     19  C   UNL     1       1.753   9.263  18.789  0.00  0.00    +0.000 C 
ATOM     20  O   UNL     1       2.053   9.700  17.673  0.00  0.00    +0.000 OA
ATOM     21  N   UNL     1       1.140  10.108  19.735  0.00  0.00    +0.000 N 
ATOM     22  C   UNL     1       0.873   9.759  21.126  0.00  0.00    +0.000 C 
BRANCH  21  23
ATOM     23  C   UNL     1       0.729  11.462  19.314  0.00  0.00    +0.000 C 
BRANCH  23  24
ATOM     24  C   UNL     1       1.667  12.554  19.802  0.00  0.00    +0.000 C 
BRANCH  24  25
ATOM     25  S   UNL     1       0.829  13.829  20.728  0.00  0.00    +0.000 S 
ATOM     26  C   UNL     1      -0.733  13.122  21.191  0.00  0.00    +0.000 C 
ATOM     27  O   UNL     1       1.586  14.074  21.940  0.00  0.00    +0.000 OA
ATOM     28  O   UNL     1       0.549  14.910  19.801  0.00  0.00    +0.000 OA
ENDBRANCH  24  25
ENDBRANCH  23  24
ENDBRANCH  21  23
ENDBRANCH   6  19
BRANCH  10  29
ATOM     29  C   UNL     1       4.512   2.396  19.592  0.00  0.00    +0.000 C 
BRANCH  29  30
ATOM     30  N   UNL     1       4.017   1.386  18.668  0.00  0.00    +0.000 NA
ATOM     31  H   UNL     1       4.770   0.752  18.406  0.00  0.00    +0.000 HD
ATOM     32  H   UNL     1       3.737   1.841  17.798  0.00  0.00    +0.000 HD
ENDBRANCH  29  30
ENDBRANCH  10  29
TORSDOF 7
ENDMDL
MODEL 3
REMARK VINA RESULT:      -8.0      0.914      1.074
REMARK  Name = 
REMARK  10 active torsions:
REMARK  status: ('A' for Active; 'I' for Inactive)
REMARK    1  A    between atoms: C_1  and  C_2
REMARK    2  A    between atoms: C_6  and  C_7
REMARK    3  A    between atoms: N_9  and  C_10
REMARK    4  A    between atoms: N_9  and  C_11
REMARK    5  A    between atoms: C_11  and  C_12
REMARK    6  A    between atoms: C_12  and  S_13
REMARK    7  A    between atoms: S_13  and  C_14
REMARK    8  A    between atoms: C_19  and  C_20
REMARK    9  A    between atoms: C_28  and  C_29
REMARK   10  A    between atoms: C_29  and  N_30
REMARK                            x       y       z     vdW  Elec       q    Type
REMARK                         _______ _______ _______ _____ _____    ______ ____
ROOT
ATOM      1  C   UNL     1       2.310   2.676  21.640  0.00  0.00    +0.000 C 
ATOM      2  C   UNL     1       2.599   3.832  20.705  0.00  0.00    +0.000 A 
ATOM      3  N   UNL     1       1.887   4.905  20.896  0.00  0.00    +0.000 NA
ATOM      4  C   UNL     1       2.097   5.951  20.059  0.00  0.00    +0.000 A 
ATOM      5  N   UNL     1       1.527   7.143  20.079  0.00  0.00    +0.000 NA
ATOM      6  C   UNL     1       2.087   7.873  19.051  0.00  0.00    +0.000 A 
ATOM      7  C   UNL     1       2.972   7.065  18.356  0.00  0.00    +0.000 A 
ATOM      8  N   UNL     1       3.009   5.861  19.020  0.00  0.00    +0.000 N 
ATOM      9  C   UNL     1       3.796   4.718  18.804  0.00  0.00    +0.000 A 
ATOM     10  C   UNL     1       3.659   3.654  19.633  0.00  0.00    +0.000 A 
ENDROOT
BRANCH   9  11
ATOM     11  C   UNL     1       4.771   4.694  17.691  0.00  0.00    +0.000 A 
ATOM     12  C   UNL     1       4.324   4.281  16.424  0.00  0.00    +0.000 A 
ATOM     13  C   UNL     1       5.186   4.308  15.326  0.00  0.00    +0.000 A 
ATOM     14  C   UNL     1       6.501   4.738  15.488  0.00  0.00    +0.000 A 
ATOM     15 CL   UNL     1       7.550   4.802  14.127  0.00  0.00    +0.000 Cl
ATOM     16  C   UNL     1       6.972   5.120  16.742  0.00  0.00    +0.000 A 
ATOM     17  C   UNL     1       6.110   5.096  17.841  0.00  0.00    +0.000 A 
ATOM     18 CL   UNL     1       6.746   5.564  19.379  0.00  0.00    +0.000 Cl
ENDBRANCH   9  11
BRANCH   6  19
ATOM     19  C   UNL     1       1.761   9.267  18.685  0.00  0.00    +0.000 C 
ATOM     20  O   UNL     1       2.082   9.688  17.570  0.00  0.00    +0.000 OA
ATOM     21  N   UNL     1       1.124  10.122  19.605  0.00  0.00    +0.000 N 
ATOM     22  C   UNL     1       0.829   9.793  20.996  0.00  0.00    +0.000 C 
BRANCH  21  23
ATOM     23  C   UNL     1       0.715  11.468  19.155  0.00  0.00    +0.000 C 
BRANCH  23  24
ATOM     24  C   UNL     1       1.549  12.584  19.763  0.00  0.00    +0.000 C 
BRANCH  24  25
ATOM     25  S   UNL     1       1.226  14.176  19.024  0.00  0.00    +0.000 S 
ATOM     26  C   UNL     1       1.225  15.329  20.375  0.00  0.00    +0.000 C 
ATOM     27  O   UNL     1       2.341  14.502  18.157  0.00  0.00    +0.000 OA
ATOM     28  O   UNL     1      -0.127  14.132  18.501  0.00  0.00    +0.000 OA
ENDBRANCH  24  25
ENDBRANCH  23  24
ENDBRANCH  21  23
ENDBRANCH   6  19
BRANCH  10  29
ATOM     29  C   UNL     1       4.524   2.419  19.631  0.00  0.00    +0.000 C 
BRANCH  29  30
ATOM     30  N   UNL     1       4.036   1.393  18.722  0.00  0.00    +0.000 NA
ATOM     31  H   UNL     1       4.815   0.842  18.366  0.00  0.00    +0.000 HD
ATOM     32  H   UNL     1       3.630   1.843  17.899  0.00  0.00    +0.000 HD
ENDBRANCH  29  30
ENDBRANCH  10  29
TORSDOF 7
ENDMDL
MODEL 4
REMARK VINA RESULT:      -7.8      1.408      1.665
REMARK  Name = 
REMARK  10 active torsions:
REMARK  status: ('A' for Active; 'I' for Inactive)
REMARK    1  A    between atoms: C_1  and  C_2
REMARK    2  A    between atoms: C_6  and  C_7
REMARK    3  A    between atoms: N_9  and  C_10
REMARK    4  A    between atoms: N_9  and  C_11
REMARK    5  A    between atoms: C_11  and  C_12
REMARK    6  A    between atoms: C_12  and  S_13
REMARK    7  A    between atoms: S_13  and  C_14
REMARK    8  A    between atoms: C_19  and  C_20
REMARK    9  A    between atoms: C_28  and  C_29
REMARK   10  A    between atoms: C_29  and  N_30
REMARK                            x       y       z     vdW  Elec       q    Type
REMARK                         _______ _______ _______ _____ _____    ______ ____
ROOT
ATOM      1  C   UNL     1       2.331   2.098  21.656  0.00  0.00    +0.000 C 
ATOM      2  C   UNL     1       2.570   3.348  20.834  0.00  0.00    +0.000 A 
ATOM      3  N   UNL     1       1.844   4.381  21.151  0.00  0.00    +0.000 NA
ATOM      4  C   UNL     1       2.009   5.510  20.419  0.00  0.00    +0.000 A 
ATOM      5  N   UNL     1       1.418   6.681  20.574  0.00  0.00    +0.000 NA
ATOM      6  C   UNL     1       1.934   7.522  19.609  0.00  0.00    +0.000 A 
ATOM      7  C   UNL     1       2.814   6.807  18.813  0.00  0.00    +0.000 A 
ATOM      8  N   UNL     1       2.893   5.544  19.352  0.00  0.00    +0.000 N 
ATOM      9  C   UNL     1       3.695   4.446  19.001  0.00  0.00    +0.000 A 
ATOM     10  C   UNL     1       3.603   3.301  19.722  0.00  0.00    +0.000 A 
ENDROOT
BRANCH   9  11
ATOM     11  C   UNL     1       4.638   4.554  17.865  0.00  0.00    +0.000 A 
ATOM     12  C   UNL     1       4.189   4.174  16.589  0.00  0.00    +0.000 A 
ATOM     13  C   UNL     1       5.015   4.324  15.474  0.00  0.00    +0.000 A 
ATOM     14  C   UNL     1       6.297   4.846  15.627  0.00  0.00    +0.000 A 
ATOM     15 CL   UNL     1       7.301   5.060  14.247  0.00  0.00    +0.000 Cl
ATOM     16  C   UNL     1       6.773   5.199  16.888  0.00  0.00    +0.000 A 
ATOM     17  C   UNL     1       5.946   5.052  18.005  0.00  0.00    +0.000 A 
ATOM     18 CL   UNL     1       6.587   5.488  19.550  0.00  0.00    +0.000 Cl
ENDBRANCH   9  11
BRANCH   6  19
ATOM     19  C   UNL     1       1.571   8.938  19.394  0.00  0.00    +0.000 C 
ATOM     20  O   UNL     1       1.647   9.414  18.257  0.00  0.00    +0.000 OA
ATOM     21  N   UNL     1       1.176   9.752  20.474  0.00  0.00    +0.000 N 
ATOM     22  C   UNL     1       1.188   9.353  21.878  0.00  0.00    +0.000 C 
BRANCH  21  23
ATOM     23  C   UNL     1       0.712  11.125  20.193  0.00  0.00    +0.000 C 
BRANCH  23  24
ATOM     24  C   UNL     1      -0.684  11.409  20.725  0.00  0.00    +0.000 C 
BRANCH  24  25
ATOM     25  S   UNL     1      -1.611  12.525  19.687  0.00  0.00    +0.000 S 
ATOM     26  C   UNL     1      -1.494  11.849  18.049  0.00  0.00    +0.000 C 
ATOM     27  O   UNL     1      -3.001  12.468  20.097  0.00  0.00    +0.000 OA
ATOM     28  O   UNL     1      -0.895  13.788  19.679  0.00  0.00    +0.000 OA
ENDBRANCH  24  25
ENDBRANCH  23  24
ENDBRANCH  21  23
ENDBRANCH   6  19
BRANCH  10  29
ATOM     29  C   UNL     1       4.490   2.093  19.573  0.00  0.00    +0.000 C 
BRANCH  29  30
ATOM     30  N   UNL     1       4.006   1.160  18.566  0.00  0.00    +0.000 NA
ATOM     31  H   UNL     1       4.709   0.447  18.382  0.00  0.00    +0.000 HD
ATOM     32  H   UNL     1       3.892   1.657  17.680  0.00  0.00    +0.000 HD
ENDBRANCH  29  30
ENDBRANCH  10  29
TORSDOF 7
ENDMDL
MODEL 5
REMARK VINA RESULT:      -7.5      1.657      2.141
REMARK  Name = 
REMARK  10 active torsions:
REMARK  status: ('A' for Active; 'I' for Inactive)
REMARK    1  A    between atoms: C_1  and  C_2
REMARK    2  A    between atoms: C_6  and  C_7
REMARK    3  A    between atoms: N_9  and  C_10
REMARK    4  A    between atoms: N_9  and  C_11
REMARK    5  A    between atoms: C_11  and  C_12
REMARK    6  A    between atoms: C_12  and  S_13
REMARK    7  A    between atoms: S_13  and  C_14
REMARK    8  A    between atoms: C_19  and  C_20
REMARK    9  A    between atoms: C_28  and  C_29
REMARK   10  A    between atoms: C_29  and  N_30
REMARK                            x       y       z     vdW  Elec       q    Type
REMARK                         _______ _______ _______ _____ _____    ______ ____
ROOT
ATOM      1  C   UNL     1       2.270   2.627  21.581  0.00  0.00    +0.000 C 
ATOM      2  C   UNL     1       2.571   3.798  20.669  0.00  0.00    +0.000 A 
ATOM      3  N   UNL     1       1.872   4.874  20.882  0.00  0.00    +0.000 NA
ATOM      4  C   UNL     1       2.092   5.935  20.066  0.00  0.00    +0.000 A 
ATOM      5  N   UNL     1       1.537   7.133  20.110  0.00  0.00    +0.000 NA
ATOM      6  C   UNL     1       2.103   7.876  19.095  0.00  0.00    +0.000 A 
ATOM      7  C   UNL     1       2.979   7.072  18.384  0.00  0.00    +0.000 A 
ATOM      8  N   UNL     1       3.002   5.855  19.024  0.00  0.00    +0.000 N 
ATOM      9  C   UNL     1       3.776   4.707  18.784  0.00  0.00    +0.000 A 
ATOM     10  C   UNL     1       3.628   3.628  19.593  0.00  0.00    +0.000 A 
ENDROOT
BRANCH   9  11
ATOM     11  C   UNL     1       4.750   4.694  17.670  0.00  0.00    +0.000 A 
ATOM     12  C   UNL     1       4.308   4.268  16.406  0.00  0.00    +0.000 A 
ATOM     13  C   UNL     1       5.167   4.304  15.306  0.00  0.00    +0.000 A 
ATOM     14  C   UNL     1       6.475   4.756  15.464  0.00  0.00    +0.000 A 
ATOM     15 CL   UNL     1       7.521   4.831  14.101  0.00  0.00    +0.000 Cl
ATOM     16  C   UNL     1       6.942   5.152  16.715  0.00  0.00    +0.000 A 
ATOM     17  C   UNL     1       6.082   5.119  17.816  0.00  0.00    +0.000 A 
ATOM     18 CL   UNL     1       6.713   5.605  19.350  0.00  0.00    +0.000 Cl
ENDBRANCH   9  11
BRANCH   6  19
ATOM     19  C   UNL     1       1.793   9.280  18.757  0.00  0.00    +0.000 C 
ATOM     20  O   UNL     1       2.185   9.742  17.681  0.00  0.00    +0.000 OA
ATOM     21  N   UNL     1       1.090  10.100  19.662  0.00  0.00    +0.000 N 
ATOM     22  C   UNL     1       0.704   9.721  21.017  0.00  0.00    +0.000 C 
BRANCH  21  23
ATOM     23  C   UNL     1       0.702  11.458  19.233  0.00  0.00    +0.000 C 
BRANCH  23  24
ATOM     24  C   UNL     1      -0.287  11.465  18.078  0.00  0.00    +0.000 C 
BRANCH  24  25
ATOM     25  S   UNL     1      -1.948  11.051  18.582  0.00  0.00    +0.000 S 
ATOM     26  C   UNL     1      -2.986  11.541  17.227  0.00  0.00    +0.000 C 
ATOM     27  O   UNL     1      -2.031   9.609  18.710  0.00  0.00    +0.000 OA
ATOM     28  O   UNL     1      -2.277  11.912  19.703  0.00  0.00    +0.000 OA
ENDBRANCH  24  25
ENDBRANCH  23  24
ENDBRANCH  21  23
ENDBRANCH   6  19
BRANCH  10  29
ATOM     29  C   UNL     1       4.479   2.385  19.565  0.00  0.00    +0.000 C 
BRANCH  29  30
ATOM     30  N   UNL     1       3.992   1.391  18.619  0.00  0.00    +0.000 NA
ATOM     31  H   UNL     1       3.318   0.777  19.073  0.00  0.00    +0.000 HD
ATOM     32  H   UNL     1       4.766   0.783  18.349  0.00  0.00    +0.000 HD
ENDBRANCH  29  30
ENDBRANCH  10  29
TORSDOF 7
ENDMDL
MODEL 6
REMARK VINA RESULT:      -7.4      2.000      2.415
REMARK  Name = 
REMARK  10 active torsions:
REMARK  status: ('A' for Active; 'I' for Inactive)
REMARK    1  A    between atoms: C_1  and  C_2
REMARK    2  A    between atoms: C_6  and  C_7
REMARK    3  A    between atoms: N_9  and  C_10
REMARK    4  A    between atoms: N_9  and  C_11
REMARK    5  A    between atoms: C_11  and  C_12
REMARK    6  A    between atoms: C_12  and  S_13
REMARK    7  A    between atoms: S_13  and  C_14
REMARK    8  A    between atoms: C_19  and  C_20
REMARK    9  A    between atoms: C_28  and  C_29
REMARK   10  A    between atoms: C_29  and  N_30
REMARK                            x       y       z     vdW  Elec       q    Type
REMARK                         _______ _______ _______ _____ _____    ______ ____
ROOT
ATOM      1  C   UNL     1       2.339   2.443  21.828  0.00  0.00    +0.000 C 
ATOM      2  C   UNL     1       2.551   3.670  20.966  0.00  0.00    +0.000 A 
ATOM      3  N   UNL     1       1.821   4.705  21.265  0.00  0.00    +0.000 NA
ATOM      4  C   UNL     1       1.962   5.814  20.497  0.00  0.00    +0.000 A 
ATOM      5  N   UNL     1       1.363   6.984  20.628  0.00  0.00    +0.000 NA
ATOM      6  C   UNL     1       1.853   7.800  19.630  0.00  0.00    +0.000 A 
ATOM      7  C   UNL     1       2.726   7.070  18.840  0.00  0.00    +0.000 A 
ATOM      8  N   UNL     1       2.826   5.824  19.414  0.00  0.00    +0.000 N 
ATOM      9  C   UNL     1       3.632   4.723  19.081  0.00  0.00    +0.000 A 
ATOM     10  C   UNL     1       3.564   3.600  19.837  0.00  0.00    +0.000 A 
ENDROOT
BRANCH   9  11
ATOM     11  C   UNL     1       4.553   4.806  17.925  0.00  0.00    +0.000 A 
ATOM     12  C   UNL     1       5.791   5.445  18.106  0.00  0.00    +0.000 A 
ATOM     13  C   UNL     1       6.724   5.489  17.068  0.00  0.00    +0.000 A 
ATOM     14  C   UNL     1       6.423   4.902  15.842  0.00  0.00    +0.000 A 
ATOM     15 CL   UNL     1       7.587   4.928  14.576  0.00  0.00    +0.000 Cl
ATOM     16  C   UNL     1       5.188   4.292  15.631  0.00  0.00    +0.000 A 
ATOM     17  C   UNL     1       4.255   4.246  16.670  0.00  0.00    +0.000 A 
ATOM     18 CL   UNL     1       2.731   3.492  16.356  0.00  0.00    +0.000 Cl
ENDBRANCH   9  11
BRANCH   6  19
ATOM     19  C   UNL     1       1.473   9.206  19.380  0.00  0.00    +0.000 C 
ATOM     20  O   UNL     1       1.741   9.718  18.289  0.00  0.00    +0.000 OA
ATOM     21  N   UNL     1       0.845   9.971  20.382  0.00  0.00    +0.000 N 
ATOM     22  C   UNL     1       0.610   9.532  21.754  0.00  0.00    +0.000 C 
BRANCH  21  23
ATOM     23  C   UNL     1       0.380  11.331  20.047  0.00  0.00    +0.000 C 
BRANCH  23  24
ATOM     24  C   UNL     1      -1.122  11.508  20.198  0.00  0.00    +0.000 C 
BRANCH  24  25
ATOM     25  S   UNL     1      -1.960  11.706  18.635  0.00  0.00    +0.000 S 
ATOM     26  C   UNL     1      -1.833  10.127  17.830  0.00  0.00    +0.000 C 
ATOM     27  O   UNL     1      -3.362  11.958  18.907  0.00  0.00    +0.000 OA
ATOM     28  O   UNL     1      -1.179  12.646  17.853  0.00  0.00    +0.000 OA
ENDBRANCH  24  25
ENDBRANCH  23  24
ENDBRANCH  21  23
ENDBRANCH   6  19
BRANCH  10  29
ATOM     29  C   UNL     1       4.460   2.395  19.707  0.00  0.00    +0.000 C 
BRANCH  29  30
ATOM     30  N   UNL     1       3.947   1.411  18.765  0.00  0.00    +0.000 NA
ATOM     31  H   UNL     1       4.431   0.524  18.888  0.00  0.00    +0.000 HD
ATOM     32  H   UNL     1       4.177   1.710  17.815  0.00  0.00    +0.000 HD
ENDBRANCH  29  30
ENDBRANCH  10  29
TORSDOF 7
ENDMDL
MODEL 7
REMARK VINA RESULT:      -7.3      1.714      2.097
REMARK  Name = 
REMARK  10 active torsions:
REMARK  status: ('A' for Active; 'I' for Inactive)
REMARK    1  A    between atoms: C_1  and  C_2
REMARK    2  A    between atoms: C_6  and  C_7
REMARK    3  A    between atoms: N_9  and  C_10
REMARK    4  A    between atoms: N_9  and  C_11
REMARK    5  A    between atoms: C_11  and  C_12
REMARK    6  A    between atoms: C_12  and  S_13
REMARK    7  A    between atoms: S_13  and  C_14
REMARK    8  A    between atoms: C_19  and  C_20
REMARK    9  A    between atoms: C_28  and  C_29
REMARK   10  A    between atoms: C_29  and  N_30
REMARK                            x       y       z     vdW  Elec       q    Type
REMARK                         _______ _______ _______ _____ _____    ______ ____
ROOT
ATOM      1  C   UNL     1       2.349   2.354  21.811  0.00  0.00    +0.000 C 
ATOM      2  C   UNL     1       2.552   3.593  20.965  0.00  0.00    +0.000 A 
ATOM      3  N   UNL     1       1.813   4.618  21.276  0.00  0.00    +0.000 NA
ATOM      4  C   UNL     1       1.946   5.737  20.522  0.00  0.00    +0.000 A 
ATOM      5  N   UNL     1       1.337   6.901  20.667  0.00  0.00    +0.000 NA
ATOM      6  C   UNL     1       1.822   7.734  19.680  0.00  0.00    +0.000 A 
ATOM      7  C   UNL     1       2.702   7.021  18.882  0.00  0.00    +0.000 A 
ATOM      8  N   UNL     1       2.812   5.769  19.441  0.00  0.00    +0.000 N 
ATOM      9  C   UNL     1       3.627   4.678  19.095  0.00  0.00    +0.000 A 
ATOM     10  C   UNL     1       3.567   3.545  19.837  0.00  0.00    +0.000 A 
ENDROOT
BRANCH   9  11
ATOM     11  C   UNL     1       4.549   4.784  17.942  0.00  0.00    +0.000 A 
ATOM     12  C   UNL     1       5.780   5.435  18.132  0.00  0.00    +0.000 A 
ATOM     13  C   UNL     1       6.714   5.499  17.096  0.00  0.00    +0.000 A 
ATOM     14  C   UNL     1       6.421   4.922  15.863  0.00  0.00    +0.000 A 
ATOM     15 CL   UNL     1       7.587   4.975  14.600  0.00  0.00    +0.000 Cl
ATOM     16  C   UNL     1       5.194   4.301  15.644  0.00  0.00    +0.000 A 
ATOM     17  C   UNL     1       4.259   4.234  16.680  0.00  0.00    +0.000 A 
ATOM     18 CL   UNL     1       2.744   3.467  16.355  0.00  0.00    +0.000 Cl
ENDBRANCH   9  11
BRANCH   6  19
ATOM     19  C   UNL     1       1.430   9.139  19.447  0.00  0.00    +0.000 C 
ATOM     20  O   UNL     1       1.480   9.597  18.301  0.00  0.00    +0.000 OA
ATOM     21  N   UNL     1       1.038   9.964  20.519  0.00  0.00    +0.000 N 
ATOM     22  C   UNL     1       1.080   9.590  21.929  0.00  0.00    +0.000 C 
BRANCH  21  23
ATOM     23  C   UNL     1       0.545  11.324  20.223  0.00  0.00    +0.000 C 
BRANCH  23  24
ATOM     24  C   UNL     1      -0.835  11.602  20.796  0.00  0.00    +0.000 C 
BRANCH  24  25
ATOM     25  S   UNL     1      -0.805  12.760  22.153  0.00  0.00    +0.000 S 
ATOM     26  C   UNL     1      -2.136  13.892  21.832  0.00  0.00    +0.000 C 
ATOM     27  O   UNL     1      -1.117  12.035  23.369  0.00  0.00    +0.000 OA
ATOM     28  O   UNL     1       0.430  13.514  22.039  0.00  0.00    +0.000 OA
ENDBRANCH  24  25
ENDBRANCH  23  24
ENDBRANCH  21  23
ENDBRANCH   6  19
BRANCH  10  29
ATOM     29  C   UNL     1       4.474   2.350  19.693  0.00  0.00    +0.000 C 
BRANCH  29  30
ATOM     30  N   UNL     1       3.949   1.355  18.769  0.00  0.00    +0.000 NA
ATOM     31  H   UNL     1       2.936   1.429  18.713  0.00  0.00    +0.000 HD
ATOM     32  H   UNL     1       4.127   0.423  19.149  0.00  0.00    +0.000 HD
ENDBRANCH  29  30
ENDBRANCH  10  29
TORSDOF 7
ENDMDL
MODEL 8
REMARK VINA RESULT:      -7.1      1.353      1.635
REMARK  Name = 
REMARK  10 active torsions:
REMARK  status: ('A' for Active; 'I' for Inactive)
REMARK    1  A    between atoms: C_1  and  C_2
REMARK    2  A    between atoms: C_6  and  C_7
REMARK    3  A    between atoms: N_9  and  C_10
REMARK    4  A    between atoms: N_9  and  C_11
REMARK    5  A    between atoms: C_11  and  C_12
REMARK    6  A    between atoms: C_12  and  S_13
REMARK    7  A    between atoms: S_13  and  C_14
REMARK    8  A    between atoms: C_19  and  C_20
REMARK    9  A    between atoms: C_28  and  C_29
REMARK   10  A    between atoms: C_29  and  N_30
REMARK                            x       y       z     vdW  Elec       q    Type
REMARK                         _______ _______ _______ _____ _____    ______ ____
ROOT
ATOM      1  C   UNL     1       2.333   2.414  21.821  0.00  0.00    +0.000 C 
ATOM      2  C   UNL     1       2.543   3.639  20.956  0.00  0.00    +0.000 A 
ATOM      3  N   UNL     1       1.799   4.668  21.242  0.00  0.00    +0.000 NA
ATOM      4  C   UNL     1       1.938   5.774  20.470  0.00  0.00    +0.000 A 
ATOM      5  N   UNL     1       1.325   6.938  20.588  0.00  0.00    +0.000 NA
ATOM      6  C   UNL     1       1.818   7.755  19.592  0.00  0.00    +0.000 A 
ATOM      7  C   UNL     1       2.707   7.030  18.815  0.00  0.00    +0.000 A 
ATOM      8  N   UNL     1       2.814   5.788  19.396  0.00  0.00    +0.000 N 
ATOM      9  C   UNL     1       3.635   4.693  19.078  0.00  0.00    +0.000 A 
ATOM     10  C   UNL     1       3.569   3.573  19.839  0.00  0.00    +0.000 A 
ENDROOT
BRANCH   9  11
ATOM     11  C   UNL     1       4.568   4.781  17.932  0.00  0.00    +0.000 A 
ATOM     12  C   UNL     1       5.800   5.427  18.126  0.00  0.00    +0.000 A 
ATOM     13  C   UNL     1       6.744   5.474  17.099  0.00  0.00    +0.000 A 
ATOM     14  C   UNL     1       6.460   4.885  15.870  0.00  0.00    +0.000 A 
ATOM     15 CL   UNL     1       7.638   4.916  14.617  0.00  0.00    +0.000 Cl
ATOM     16  C   UNL     1       5.231   4.267  15.646  0.00  0.00    +0.000 A 
ATOM     17  C   UNL     1       4.287   4.217  16.675  0.00  0.00    +0.000 A 
ATOM     18 CL   UNL     1       2.771   3.455  16.345  0.00  0.00    +0.000 Cl
ENDBRANCH   9  11
BRANCH   6  19
ATOM     19  C   UNL     1       1.427   9.155  19.331  0.00  0.00    +0.000 C 
ATOM     20  O   UNL     1       1.495   9.595  18.179  0.00  0.00    +0.000 OA
ATOM     21  N   UNL     1       1.015   9.996  20.383  0.00  0.00    +0.000 N 
ATOM     22  C   UNL     1       1.034   9.643  21.799  0.00  0.00    +0.000 C 
BRANCH  21  23
ATOM     23  C   UNL     1       0.523  11.349  20.057  0.00  0.00    +0.000 C 
BRANCH  23  24
ATOM     24  C   UNL     1       1.372  12.458  20.659  0.00  0.00    +0.000 C 
BRANCH  24  25
ATOM     25  S   UNL     1       2.069  13.546  19.429  0.00  0.00    +0.000 S 
ATOM     26  C   UNL     1       0.752  14.651  18.979  0.00  0.00    +0.000 C 
ATOM     27  O   UNL     1       3.112  14.329  20.063  0.00  0.00    +0.000 OA
ATOM     28  O   UNL     1       2.361  12.734  18.262  0.00  0.00    +0.000 OA
ENDBRANCH  24  25
ENDBRANCH  23  24
ENDBRANCH  21  23
ENDBRANCH   6  19
BRANCH  10  29
ATOM     29  C   UNL     1       4.479   2.377  19.725  0.00  0.00    +0.000 C 
BRANCH  29  30
ATOM     30  N   UNL     1       3.985   1.383  18.783  0.00  0.00    +0.000 NA
ATOM     31  H   UNL     1       4.683   1.208  18.062  0.00  0.00    +0.000 HD
ATOM     32  H   UNL     1       3.179   1.766  18.287  0.00  0.00    +0.000 HD
ENDBRANCH  29  30
ENDBRANCH  10  29
TORSDOF 7
ENDMDL
MODEL 9
REMARK VINA RESULT:      -6.9      1.531      1.782
REMARK  Name = 
REMARK  10 active torsions:
REMARK  status: ('A' for Active; 'I' for Inactive)
REMARK    1  A    between atoms: C_1  and  C_2
REMARK    2  A    between atoms: C_6  and  C_7
REMARK    3  A    between atoms: N_9  and  C_10
REMARK    4  A    between atoms: N_9  and  C_11
REMARK    5  A    between atoms: C_11  and  C_12
REMARK    6  A    between atoms: C_12  and  S_13
REMARK    7  A    between atoms: S_13  and  C_14
REMARK    8  A    between atoms: C_19  and  C_20
REMARK    9  A    between atoms: C_28  and  C_29
REMARK   10  A    between atoms: C_29  and  N_30
REMARK                            x       y       z     vdW  Elec       q    Type
REMARK                         _______ _______ _______ _____ _____    ______ ____
ROOT
ATOM      1  C   UNL     1       2.381   1.731  21.671  0.00  0.00    +0.000 C 
ATOM      2  C   UNL     1       2.604   3.039  20.941  0.00  0.00    +0.000 A 
ATOM      3  N   UNL     1       1.896   4.048  21.358  0.00  0.00    +0.000 NA
ATOM      4  C   UNL     1       2.046   5.229  20.709  0.00  0.00    +0.000 A 
ATOM      5  N   UNL     1       1.469   6.388  20.972  0.00  0.00    +0.000 NA
ATOM      6  C   UNL     1       1.960   7.298  20.058  0.00  0.00    +0.000 A 
ATOM      7  C   UNL     1       2.809   6.641  19.182  0.00  0.00    +0.000 A 
ATOM      8  N   UNL     1       2.896   5.340  19.620  0.00  0.00    +0.000 N 
ATOM      9  C   UNL     1       3.678   4.268  19.161  0.00  0.00    +0.000 A 
ATOM     10  C   UNL     1       3.600   3.072  19.796  0.00  0.00    +0.000 A 
ENDROOT
BRANCH   9  11
ATOM     11  C   UNL     1       4.585   4.458  18.007  0.00  0.00    +0.000 A 
ATOM     12  C   UNL     1       4.117   4.112  16.729  0.00  0.00    +0.000 A 
ATOM     13  C   UNL     1       4.907   4.337  15.600  0.00  0.00    +0.000 A 
ATOM     14  C   UNL     1       6.172   4.903  15.742  0.00  0.00    +0.000 A 
ATOM     15 CL   UNL     1       7.129   5.211  14.347  0.00  0.00    +0.000 Cl
ATOM     16  C   UNL     1       6.668   5.224  17.004  0.00  0.00    +0.000 A 
ATOM     17  C   UNL     1       5.877   5.000  18.134  0.00  0.00    +0.000 A 
ATOM     18 CL   UNL     1       6.542   5.400  19.679  0.00  0.00    +0.000 Cl
ENDBRANCH   9  11
BRANCH   6  19
ATOM     19  C   UNL     1       1.601   8.727  19.963  0.00  0.00    +0.000 C 
ATOM     20  O   UNL     1       1.309   9.345  20.992  0.00  0.00    +0.000 OA
ATOM     21  N   UNL     1       1.554   9.377  18.715  0.00  0.00    +0.000 N 
ATOM     22  C   UNL     1       1.730   8.726  17.420  0.00  0.00    +0.000 C 
BRANCH  21  23
ATOM     23  C   UNL     1       1.304  10.831  18.681  0.00  0.00    +0.000 C 
BRANCH  23  24
ATOM     24  C   UNL     1      -0.173  11.187  18.628  0.00  0.00    +0.000 C 
BRANCH  24  25
ATOM     25  S   UNL     1      -0.531  12.782  19.342  0.00  0.00    +0.000 S 
ATOM     26  C   UNL     1       0.377  12.828  20.868  0.00  0.00    +0.000 C 
ATOM     27  O   UNL     1       0.015  13.799  18.465  0.00  0.00    +0.000 OA
ATOM     28  O   UNL     1      -1.941  12.784  19.687  0.00  0.00    +0.000 OA
ENDBRANCH  24  25
ENDBRANCH  23  24
ENDBRANCH  21  23
ENDBRANCH   6  19
BRANCH  10  29
ATOM     29  C   UNL     1       4.474   1.874  19.526  0.00  0.00    +0.000 C 
BRANCH  29  30
ATOM     30  N   UNL     1       3.908   0.979  18.527  0.00  0.00    +0.000 NA
ATOM     31  H   UNL     1       3.186   1.461  17.995  0.00  0.00    +0.000 HD
ATOM     32  H   UNL     1       3.424   0.215  19.001  0.00  0.00    +0.000 HD
ENDBRANCH  29  30
ENDBRANCH  10  29
TORSDOF 7
ENDMDL
