MODEL 1
REMARK VINA RESULT:      -6.8      0.000      0.000
REMARK  Name = 
REMARK  4 active torsions:
REMARK  status: ('A' for Active; 'I' for Inactive)
REMARK    1  A    between atoms: C_1  and  C_2
REMARK    2  A    between atoms: C_3  and  C_4
REMARK    3  A    between atoms: N_5  and  C_6
REMARK    4  A    between atoms: C_14  and  C_15
REMARK                            x       y       z     vdW  Elec       q    Type
REMARK                         _______ _______ _______ _____ _____    ______ ____
ROOT
ATOM      1  C   UNL     1       5.871   4.011  15.680  0.00  0.00    +0.000 C 
ATOM      2  C   UNL     1       4.854   4.287  16.736  0.00  0.00    +0.000 A 
ATOM      3  C   UNL     1       4.294   3.384  17.634  0.00  0.00    +0.000 A 
ATOM      4  C   UNL     1       4.521   1.906  17.656  0.00  0.00    +0.000 C 
ATOM      5  N   UNL     1       3.386   4.080  18.460  0.00  0.00    +0.000 N 
ATOM      6  C   UNL     1       3.361   5.420  18.030  0.00  0.00    +0.000 A 
ATOM      7  N   UNL     1       2.649   6.446  18.570  0.00  0.00    +0.000 NA
ATOM      8  C   UNL     1       2.861   7.627  17.952  0.00  0.00    +0.000 A 
ATOM      9  N   UNL     1       3.661   7.835  16.890  0.00  0.00    +0.000 NA
ATOM     10  C   UNL     1       4.360   6.819  16.383  0.00  0.00    +0.000 A 
ATOM     11  N   UNL     1       5.179   7.130  15.304  0.00  0.00    +0.000 N 
ATOM     12  C   UNL     1       4.250   5.553  16.969  0.00  0.00    +0.000 A 
ATOM     13  H   UNL     1       5.279   8.136  15.232  0.00  0.00    +0.000 HD
ATOM     14  H   UNL     1       6.040   6.605  15.266  0.00  0.00    +0.000 HD
ENDROOT
BRANCH   8  15
ATOM     15  C   UNL     1       2.220   8.860  18.486  0.00  0.00    +0.000 A 
ATOM     16  C   UNL     1       2.315  10.110  17.857  0.00  0.00    +0.000 A 
ATOM     17  C   UNL     1       1.668  11.240  18.378  0.00  0.00    +0.000 A 
ATOM     18  C   UNL     1       0.909  11.141  19.545  0.00  0.00    +0.000 A 
ATOM     19 CL   UNL     1       0.097  12.519  20.176  0.00  0.00    +0.000 Cl
ATOM     20  C   UNL     1       0.800   9.922  20.201  0.00  0.00    +0.000 A 
ATOM     21  C   UNL     1       1.452   8.802  19.675  0.00  0.00    +0.000 A 
ENDBRANCH   8  15
BRANCH   5  22
ATOM     22  C   UNL     1       2.603   3.525  19.539  0.00  0.00    +0.000 A 
ATOM     23  C   UNL     1       1.215   3.350  19.422  0.00  0.00    +0.000 A 
ATOM     24  C   UNL     1       0.453   2.855  20.486  0.00  0.00    +0.000 A 
ATOM     25  C   UNL     1       1.071   2.501  21.680  0.00  0.00    +0.000 A 
ATOM     26  C   UNL     1       2.450   2.641  21.806  0.00  0.00    +0.000 A 
ATOM     27  C   UNL     1       3.213   3.148  20.744  0.00  0.00    +0.000 A 
ENDBRANCH   5  22
TORSDOF 2
ENDMDL
MODEL 2
REMARK VINA RESULT:      -6.7      3.932      5.401
REMARK  Name = 
REMARK  4 active torsions:
REMARK  status: ('A' for Active; 'I' for Inactive)
REMARK    1  A    between atoms: C_1  and  C_2
REMARK    2  A    between atoms: C_3  and  C_4
REMARK    3  A    between atoms: N_5  and  C_6
REMARK    4  A    between atoms: C_14  and  C_15
REMARK                            x       y       z     vdW  Elec       q    Type
REMARK                         _______ _______ _______ _____ _____    ______ ____
ROOT
ATOM      1  C   UNL     1       4.930   3.278  16.361  0.00  0.00    +0.000 C 
ATOM      2  C   UNL     1       4.694   4.627  16.952  0.00  0.00    +0.000 A 
ATOM      3  C   UNL     1       3.509   5.130  17.479  0.00  0.00    +0.000 A 
ATOM      4  C   UNL     1       2.178   4.447  17.465  0.00  0.00    +0.000 C 
ATOM      5  N   UNL     1       3.744   6.443  17.937  0.00  0.00    +0.000 N 
ATOM      6  C   UNL     1       5.083   6.762  17.646  0.00  0.00    +0.000 A 
ATOM      7  N   UNL     1       5.741   7.913  17.946  0.00  0.00    +0.000 NA
ATOM      8  C   UNL     1       7.036   7.906  17.563  0.00  0.00    +0.000 A 
ATOM      9  N   UNL     1       7.668   6.905  16.921  0.00  0.00    +0.000 NA
ATOM     10  C   UNL     1       7.009   5.780  16.646  0.00  0.00    +0.000 A 
ATOM     11  N   UNL     1       7.747   4.791  16.006  0.00  0.00    +0.000 N 
ATOM     12  C   UNL     1       5.669   5.658  17.034  0.00  0.00    +0.000 A 
ATOM     13  H   UNL     1       8.734   5.012  16.064  0.00  0.00    +0.000 HD
ATOM     14  H   UNL     1       7.498   3.848  16.265  0.00  0.00    +0.000 HD
ENDROOT
BRANCH   8  15
ATOM     15  C   UNL     1       7.909   9.063  17.903  0.00  0.00    +0.000 A 
ATOM     16  C   UNL     1       7.814  10.310  17.268  0.00  0.00    +0.000 A 
ATOM     17  C   UNL     1       8.636  11.384  17.643  0.00  0.00    +0.000 A 
ATOM     18  C   UNL     1       9.573  11.229  18.666  0.00  0.00    +0.000 A 
ATOM     19 CL   UNL     1      10.568  12.547  19.142  0.00  0.00    +0.000 Cl
ATOM     20  C   UNL     1       9.701  10.006  19.311  0.00  0.00    +0.000 A 
ATOM     21  C   UNL     1       8.880   8.941  18.927  0.00  0.00    +0.000 A 
ENDBRANCH   8  15
BRANCH   5  22
ATOM     22  C   UNL     1       2.787   7.319  18.571  0.00  0.00    +0.000 A 
ATOM     23  C   UNL     1       2.381   7.120  19.901  0.00  0.00    +0.000 A 
ATOM     24  C   UNL     1       1.419   7.942  20.498  0.00  0.00    +0.000 A 
ATOM     25  C   UNL     1       0.863   8.996  19.782  0.00  0.00    +0.000 A 
ATOM     26  C   UNL     1       1.273   9.227  18.472  0.00  0.00    +0.000 A 
ATOM     27  C   UNL     1       2.228   8.395  17.869  0.00  0.00    +0.000 A 
ENDBRANCH   5  22
TORSDOF 2
ENDMDL
MODEL 3
REMARK VINA RESULT:      -6.7      3.904      5.406
REMARK  Name = 
REMARK  4 active torsions:
REMARK  status: ('A' for Active; 'I' for Inactive)
REMARK    1  A    between atoms: C_1  and  C_2
REMARK    2  A    between atoms: C_3  and  C_4
REMARK    3  A    between atoms: N_5  and  C_6
REMARK    4  A    between atoms: C_14  and  C_15
REMARK                            x       y       z     vdW  Elec       q    Type
REMARK                         _______ _______ _______ _____ _____    ______ ____
ROOT
ATOM      1  C   UNL     1       4.839   3.299  16.406  0.00  0.00    +0.000 C 
ATOM      2  C   UNL     1       4.607   4.655  16.985  0.00  0.00    +0.000 A 
ATOM      3  C   UNL     1       3.421   5.169  17.499  0.00  0.00    +0.000 A 
ATOM      4  C   UNL     1       2.086   4.495  17.480  0.00  0.00    +0.000 C 
ATOM      5  N   UNL     1       3.661   6.485  17.948  0.00  0.00    +0.000 N 
ATOM      6  C   UNL     1       5.005   6.793  17.664  0.00  0.00    +0.000 A 
ATOM      7  N   UNL     1       5.668   7.942  17.960  0.00  0.00    +0.000 NA
ATOM      8  C   UNL     1       6.965   7.924  17.586  0.00  0.00    +0.000 A 
ATOM      9  N   UNL     1       7.595   6.914  16.958  0.00  0.00    +0.000 NA
ATOM     10  C   UNL     1       6.932   5.790  16.687  0.00  0.00    +0.000 A 
ATOM     11  N   UNL     1       7.668   4.792  16.060  0.00  0.00    +0.000 N 
ATOM     12  C   UNL     1       5.589   5.681  17.066  0.00  0.00    +0.000 A 
ATOM     13  H   UNL     1       8.656   5.008  16.124  0.00  0.00    +0.000 HD
ATOM     14  H   UNL     1       7.411   3.853  16.325  0.00  0.00    +0.000 HD
ENDROOT
BRANCH   8  15
ATOM     15  C   UNL     1       7.843   9.078  17.924  0.00  0.00    +0.000 A 
ATOM     16  C   UNL     1       8.895   8.998  18.848  0.00  0.00    +0.000 A 
ATOM     17  C   UNL     1       9.718  10.103  19.113  0.00  0.00    +0.000 A 
ATOM     18  C   UNL     1       9.505  11.315  18.454  0.00  0.00    +0.000 A 
ATOM     19 CL   UNL     1      10.524  12.664  18.760  0.00  0.00    +0.000 Cl
ATOM     20  C   UNL     1       8.467  11.433  17.539  0.00  0.00    +0.000 A 
ATOM     21  C   UNL     1       7.649  10.327  17.285  0.00  0.00    +0.000 A 
ENDBRANCH   8  15
BRANCH   5  22
ATOM     22  C   UNL     1       2.705   7.371  18.568  0.00  0.00    +0.000 A 
ATOM     23  C   UNL     1       2.138   8.445  17.863  0.00  0.00    +0.000 A 
ATOM     24  C   UNL     1       1.247   9.330  18.481  0.00  0.00    +0.000 A 
ATOM     25  C   UNL     1       0.888   9.141  19.811  0.00  0.00    +0.000 A 
ATOM     26  C   UNL     1       1.418   8.066  20.518  0.00  0.00    +0.000 A 
ATOM     27  C   UNL     1       2.320   7.186  19.903  0.00  0.00    +0.000 A 
ENDBRANCH   5  22
TORSDOF 2
ENDMDL
MODEL 4
REMARK VINA RESULT:      -6.6      2.113      4.575
REMARK  Name = 
REMARK  4 active torsions:
REMARK  status: ('A' for Active; 'I' for Inactive)
REMARK    1  A    between atoms: C_1  and  C_2
REMARK    2  A    between atoms: C_3  and  C_4
REMARK    3  A    between atoms: N_5  and  C_6
REMARK    4  A    between atoms: C_14  and  C_15
REMARK                            x       y       z     vdW  Elec       q    Type
REMARK                         _______ _______ _______ _____ _____    ______ ____
ROOT
ATOM      1  C   UNL     1       2.474   1.853  18.726  0.00  0.00    +0.000 C 
ATOM      2  C   UNL     1       3.062   3.224  18.791  0.00  0.00    +0.000 A 
ATOM      3  C   UNL     1       4.299   3.643  18.311  0.00  0.00    +0.000 A 
ATOM      4  C   UNL     1       5.356   2.768  17.716  0.00  0.00    +0.000 C 
ATOM      5  N   UNL     1       4.438   5.021  18.576  0.00  0.00    +0.000 N 
ATOM      6  C   UNL     1       3.286   5.439  19.267  0.00  0.00    +0.000 A 
ATOM      7  N   UNL     1       2.987   6.698  19.686  0.00  0.00    +0.000 NA
ATOM      8  C   UNL     1       1.786   6.789  20.296  0.00  0.00    +0.000 A 
ATOM      9  N   UNL     1       0.933   5.773  20.522  0.00  0.00    +0.000 NA
ATOM     10  C   UNL     1       1.238   4.549  20.094  0.00  0.00    +0.000 A 
ATOM     11  N   UNL     1       0.287   3.567  20.348  0.00  0.00    +0.000 N 
ATOM     12  C   UNL     1       2.442   4.343  19.411  0.00  0.00    +0.000 A 
ATOM     13  H   UNL     1      -0.588   4.002  20.617  0.00  0.00    +0.000 HD
ATOM     14  H   UNL     1       0.216   2.857  19.635  0.00  0.00    +0.000 HD
ENDROOT
BRANCH   8  15
ATOM     15  C   UNL     1       1.282   8.121  20.730  0.00  0.00    +0.000 A 
ATOM     16  C   UNL     1       1.141   9.211  19.858  0.00  0.00    +0.000 A 
ATOM     17  C   UNL     1       0.631  10.440  20.303  0.00  0.00    +0.000 A 
ATOM     18  C   UNL     1       0.250  10.603  21.635  0.00  0.00    +0.000 A 
ATOM     19 CL   UNL     1      -0.395  12.100  22.180  0.00  0.00    +0.000 Cl
ATOM     20  C   UNL     1       0.383   9.549  22.529  0.00  0.00    +0.000 A 
ATOM     21  C   UNL     1       0.896   8.329  22.077  0.00  0.00    +0.000 A 
ENDBRANCH   8  15
BRANCH   5  22
ATOM     22  C   UNL     1       5.563   5.856  18.227  0.00  0.00    +0.000 A 
ATOM     23  C   UNL     1       6.793   5.744  18.894  0.00  0.00    +0.000 A 
ATOM     24  C   UNL     1       7.867   6.587  18.584  0.00  0.00    +0.000 A 
ATOM     25  C   UNL     1       7.737   7.541  17.582  0.00  0.00    +0.000 A 
ATOM     26  C   UNL     1       6.534   7.648  16.890  0.00  0.00    +0.000 A 
ATOM     27  C   UNL     1       5.453   6.813  17.208  0.00  0.00    +0.000 A 
ENDBRANCH   5  22
TORSDOF 2
ENDMDL
MODEL 5
REMARK VINA RESULT:      -6.5      1.602      4.326
REMARK  Name = 
REMARK  4 active torsions:
REMARK  status: ('A' for Active; 'I' for Inactive)
REMARK    1  A    between atoms: C_1  and  C_2
REMARK    2  A    between atoms: C_3  and  C_4
REMARK    3  A    between atoms: N_5  and  C_6
REMARK    4  A    between atoms: C_14  and  C_15
REMARK                            x       y       z     vdW  Elec       q    Type
REMARK                         _______ _______ _______ _____ _____    ______ ____
ROOT
ATOM      1  C   UNL     1       1.977   1.428  19.625  0.00  0.00    +0.000 C 
ATOM      2  C   UNL     1       2.667   2.566  18.949  0.00  0.00    +0.000 A 
ATOM      3  C   UNL     1       3.726   2.505  18.049  0.00  0.00    +0.000 A 
ATOM      4  C   UNL     1       4.473   1.272  17.648  0.00  0.00    +0.000 C 
ATOM      5  N   UNL     1       4.054   3.818  17.654  0.00  0.00    +0.000 N 
ATOM      6  C   UNL     1       3.210   4.697  18.358  0.00  0.00    +0.000 A 
ATOM      7  N   UNL     1       3.160   6.052  18.255  0.00  0.00    +0.000 NA
ATOM      8  C   UNL     1       2.217   6.615  19.040  0.00  0.00    +0.000 A 
ATOM      9  N   UNL     1       1.393   5.963  19.882  0.00  0.00    +0.000 NA
ATOM     10  C   UNL     1       1.449   4.633  19.960  0.00  0.00    +0.000 A 
ATOM     11  N   UNL     1       0.545   4.042  20.835  0.00  0.00    +0.000 N 
ATOM     12  C   UNL     1       2.364   3.939  19.160  0.00  0.00    +0.000 A 
ATOM     13  H   UNL     1      -0.165   4.717  21.096  0.00  0.00    +0.000 HD
ATOM     14  H   UNL     1       0.200   3.143  20.537  0.00  0.00    +0.000 HD
ENDROOT
BRANCH   8  15
ATOM     15  C   UNL     1       1.982   8.083  18.969  0.00  0.00    +0.000 A 
ATOM     16  C   UNL     1       2.389   8.875  17.884  0.00  0.00    +0.000 A 
ATOM     17  C   UNL     1       2.119  10.251  17.844  0.00  0.00    +0.000 A 
ATOM     18  C   UNL     1       1.433  10.865  18.893  0.00  0.00    +0.000 A 
ATOM     19 CL   UNL     1       1.082  12.547  18.839  0.00  0.00    +0.000 Cl
ATOM     20  C   UNL     1       1.024  10.115  19.988  0.00  0.00    +0.000 A 
ATOM     21  C   UNL     1       1.301   8.744  20.020  0.00  0.00    +0.000 A 
ENDBRANCH   8  15
BRANCH   5  22
ATOM     22  C   UNL     1       5.082   4.205  16.717  0.00  0.00    +0.000 A 
ATOM     23  C   UNL     1       4.840   4.228  15.333  0.00  0.00    +0.000 A 
ATOM     24  C   UNL     1       5.852   4.558  14.424  0.00  0.00    +0.000 A 
ATOM     25  C   UNL     1       7.119   4.896  14.885  0.00  0.00    +0.000 A 
ATOM     26  C   UNL     1       7.370   4.907  16.255  0.00  0.00    +0.000 A 
ATOM     27  C   UNL     1       6.360   4.564  17.165  0.00  0.00    +0.000 A 
ENDBRANCH   5  22
TORSDOF 2
ENDMDL
MODEL 6
REMARK VINA RESULT:      -6.5      4.581      9.982
REMARK  Name = 
REMARK  4 active torsions:
REMARK  status: ('A' for Active; 'I' for Inactive)
REMARK    1  A    between atoms: C_1  and  C_2
REMARK    2  A    between atoms: C_3  and  C_4
REMARK    3  A    between atoms: N_5  and  C_6
REMARK    4  A    between atoms: C_14  and  C_15
REMARK                            x       y       z     vdW  Elec       q    Type
REMARK                         _______ _______ _______ _____ _____    ______ ____
ROOT
ATOM      1  C   UNL     1      -1.408  14.278  23.676  0.00  0.00    +0.000 C 
ATOM      2  C   UNL     1      -0.447  14.037  22.560  0.00  0.00    +0.000 A 
ATOM      3  C   UNL     1       0.341  14.974  21.899  0.00  0.00    +0.000 A 
ATOM      4  C   UNL     1       0.308  16.455  22.102  0.00  0.00    +0.000 C 
ATOM      5  N   UNL     1       1.106  14.304  20.921  0.00  0.00    +0.000 N 
ATOM      6  C   UNL     1       0.747  12.944  20.958  0.00  0.00    +0.000 A 
ATOM      7  N   UNL     1       1.265  11.933  20.210  0.00  0.00    +0.000 NA
ATOM      8  C   UNL     1       0.736  10.726  20.500  0.00  0.00    +0.000 A 
ATOM      9  N   UNL     1      -0.228  10.480  21.407  0.00  0.00    +0.000 NA
ATOM     10  C   UNL     1      -0.714  11.481  22.140  0.00  0.00    +0.000 A 
ATOM     11  N   UNL     1      -1.687  11.131  23.069  0.00  0.00    +0.000 N 
ATOM     12  C   UNL     1      -0.210  12.774  21.953  0.00  0.00    +0.000 A 
ATOM     13  H   UNL     1      -1.695  10.125  23.190  0.00  0.00    +0.000 HD
ATOM     14  H   UNL     1      -1.665  11.670  23.922  0.00  0.00    +0.000 HD
ENDROOT
BRANCH   8  15
ATOM     15  C   UNL     1       1.266   9.510  19.824  0.00  0.00    +0.000 A 
ATOM     16  C   UNL     1       1.557   9.458  18.453  0.00  0.00    +0.000 A 
ATOM     17  C   UNL     1       2.086   8.300  17.864  0.00  0.00    +0.000 A 
ATOM     18  C   UNL     1       2.337   7.167  18.639  0.00  0.00    +0.000 A 
ATOM     19 CL   UNL     1       3.005   5.753  17.924  0.00  0.00    +0.000 Cl
ATOM     20  C   UNL     1       2.053   7.179  19.998  0.00  0.00    +0.000 A 
ATOM     21  C   UNL     1       1.523   8.337  20.575  0.00  0.00    +0.000 A 
ENDBRANCH   8  15
BRANCH   5  22
ATOM     22  C   UNL     1       2.069  14.899  20.025  0.00  0.00    +0.000 A 
ATOM     23  C   UNL     1       3.445  14.869  20.304  0.00  0.00    +0.000 A 
ATOM     24  C   UNL     1       4.372  15.487  19.457  0.00  0.00    +0.000 A 
ATOM     25  C   UNL     1       3.941  16.125  18.300  0.00  0.00    +0.000 A 
ATOM     26  C   UNL     1       2.583  16.141  17.991  0.00  0.00    +0.000 A 
ATOM     27  C   UNL     1       1.653  15.532  18.846  0.00  0.00    +0.000 A 
ENDBRANCH   5  22
TORSDOF 2
ENDMDL
MODEL 7
REMARK VINA RESULT:      -6.5      4.675      9.754
REMARK  Name = 
REMARK  4 active torsions:
REMARK  status: ('A' for Active; 'I' for Inactive)
REMARK    1  A    between atoms: C_1  and  C_2
REMARK    2  A    between atoms: C_3  and  C_4
REMARK    3  A    between atoms: N_5  and  C_6
REMARK    4  A    between atoms: C_14  and  C_15
REMARK                            x       y       z     vdW  Elec       q    Type
REMARK                         _______ _______ _______ _____ _____    ______ ____
ROOT
ATOM      1  C   UNL     1      -1.175  16.103  19.510  0.00  0.00    +0.000 C 
ATOM      2  C   UNL     1       0.110  15.356  19.373  0.00  0.00    +0.000 A 
ATOM      3  C   UNL     1       1.397  15.880  19.327  0.00  0.00    +0.000 A 
ATOM      4  C   UNL     1       1.758  17.331  19.298  0.00  0.00    +0.000 C 
ATOM      5  N   UNL     1       2.311  14.812  19.202  0.00  0.00    +0.000 N 
ATOM      6  C   UNL     1       1.565  13.621  19.128  0.00  0.00    +0.000 A 
ATOM      7  N   UNL     1       2.044  12.352  19.038  0.00  0.00    +0.000 NA
ATOM      8  C   UNL     1       1.075  11.413  19.017  0.00  0.00    +0.000 A 
ATOM      9  N   UNL     1      -0.251  11.641  19.052  0.00  0.00    +0.000 NA
ATOM     10  C   UNL     1      -0.702  12.891  19.152  0.00  0.00    +0.000 A 
ATOM     11  N   UNL     1      -2.084  13.032  19.208  0.00  0.00    +0.000 N 
ATOM     12  C   UNL     1       0.216  13.946  19.222  0.00  0.00    +0.000 A 
ATOM     13  H   UNL     1      -2.509  12.131  19.395  0.00  0.00    +0.000 HD
ATOM     14  H   UNL     1      -2.406  13.792  19.787  0.00  0.00    +0.000 HD
ENDROOT
BRANCH   8  15
ATOM     15  C   UNL     1       1.448   9.972  19.011  0.00  0.00    +0.000 A 
ATOM     16  C   UNL     1       1.992   9.324  17.892  0.00  0.00    +0.000 A 
ATOM     17  C   UNL     1       2.360   7.970  17.941  0.00  0.00    +0.000 A 
ATOM     18  C   UNL     1       2.190   7.236  19.115  0.00  0.00    +0.000 A 
ATOM     19 CL   UNL     1       2.658   5.584  19.185  0.00  0.00    +0.000 Cl
ATOM     20  C   UNL     1       1.645   7.842  20.240  0.00  0.00    +0.000 A 
ATOM     21  C   UNL     1       1.279   9.190  20.180  0.00  0.00    +0.000 A 
ENDBRANCH   8  15
BRANCH   5  22
ATOM     22  C   UNL     1       3.749  14.912  19.139  0.00  0.00    +0.000 A 
ATOM     23  C   UNL     1       4.434  14.858  17.914  0.00  0.00    +0.000 A 
ATOM     24  C   UNL     1       5.832  14.909  17.860  0.00  0.00    +0.000 A 
ATOM     25  C   UNL     1       6.569  15.040  19.031  0.00  0.00    +0.000 A 
ATOM     26  C   UNL     1       5.907  15.124  20.253  0.00  0.00    +0.000 A 
ATOM     27  C   UNL     1       4.508  15.061  20.308  0.00  0.00    +0.000 A 
ENDBRANCH   5  22
TORSDOF 2
ENDMDL
MODEL 8
REMARK VINA RESULT:      -6.4      4.485      9.863
REMARK  Name = 
REMARK  4 active torsions:
REMARK  status: ('A' for Active; 'I' for Inactive)
REMARK    1  A    between atoms: C_1  and  C_2
REMARK    2  A    between atoms: C_3  and  C_4
REMARK    3  A    between atoms: N_5  and  C_6
REMARK    4  A    between atoms: C_14  and  C_15
REMARK                            x       y       z     vdW  Elec       q    Type
REMARK                         _______ _______ _______ _____ _____    ______ ____
ROOT
ATOM      1  C   UNL     1      -1.489  14.212  23.586  0.00  0.00    +0.000 C 
ATOM      2  C   UNL     1      -0.504  13.926  22.501  0.00  0.00    +0.000 A 
ATOM      3  C   UNL     1       0.299  14.834  21.820  0.00  0.00    +0.000 A 
ATOM      4  C   UNL     1       0.264  16.323  21.964  0.00  0.00    +0.000 C 
ATOM      5  N   UNL     1       1.084  14.126  20.887  0.00  0.00    +0.000 N 
ATOM      6  C   UNL     1       0.721  12.768  20.970  0.00  0.00    +0.000 A 
ATOM      7  N   UNL     1       1.253  11.729  20.273  0.00  0.00    +0.000 NA
ATOM      8  C   UNL     1       0.716  10.534  20.600  0.00  0.00    +0.000 A 
ATOM      9  N   UNL     1      -0.267  10.325  21.495  0.00  0.00    +0.000 NA
ATOM     10  C   UNL     1      -0.768  11.355  22.177  0.00  0.00    +0.000 A 
ATOM     11  N   UNL     1      -1.760  11.043  23.098  0.00  0.00    +0.000 N 
ATOM     12  C   UNL     1      -0.257  12.639  21.950  0.00  0.00    +0.000 A 
ATOM     13  H   UNL     1      -1.773  10.042  23.259  0.00  0.00    +0.000 HD
ATOM     14  H   UNL     1      -1.756  11.615  23.929  0.00  0.00    +0.000 HD
ENDROOT
BRANCH   8  15
ATOM     15  C   UNL     1       1.259   9.292  19.985  0.00  0.00    +0.000 A 
ATOM     16  C   UNL     1       1.457   8.103  20.702  0.00  0.00    +0.000 A 
ATOM     17  C   UNL     1       1.941   6.945  20.075  0.00  0.00    +0.000 A 
ATOM     18  C   UNL     1       2.237   6.954  18.711  0.00  0.00    +0.000 A 
ATOM     19 CL   UNL     1       2.811   5.532  17.935  0.00  0.00    +0.000 Cl
ATOM     20  C   UNL     1       2.062   8.116  17.971  0.00  0.00    +0.000 A 
ATOM     21  C   UNL     1       1.583   9.266  18.606  0.00  0.00    +0.000 A 
ENDBRANCH   8  15
BRANCH   5  22
ATOM     22  C   UNL     1       2.067  14.683  19.988  0.00  0.00    +0.000 A 
ATOM     23  C   UNL     1       1.695  15.265  18.765  0.00  0.00    +0.000 A 
ATOM     24  C   UNL     1       2.655  15.762  17.876  0.00  0.00    +0.000 A 
ATOM     25  C   UNL     1       4.004  15.710  18.207  0.00  0.00    +0.000 A 
ATOM     26  C   UNL     1       4.390  15.164  19.427  0.00  0.00    +0.000 A 
ATOM     27  C   UNL     1       3.430  14.654  20.313  0.00  0.00    +0.000 A 
ENDBRANCH   5  22
TORSDOF 2
ENDMDL
MODEL 9
REMARK VINA RESULT:      -6.4      6.662     10.979
REMARK  Name = 
REMARK  4 active torsions:
REMARK  status: ('A' for Active; 'I' for Inactive)
REMARK    1  A    between atoms: C_1  and  C_2
REMARK    2  A    between atoms: C_3  and  C_4
REMARK    3  A    between atoms: N_5  and  C_6
REMARK    4  A    between atoms: C_14  and  C_15
REMARK                            x       y       z     vdW  Elec       q    Type
REMARK                         _______ _______ _______ _____ _____    ______ ____
ROOT
ATOM      1  C   UNL     1      -7.831  13.255  18.732  0.00  0.00    +0.000 C 
ATOM      2  C   UNL     1      -6.569  13.214  19.528  0.00  0.00    +0.000 A 
ATOM      3  C   UNL     1      -6.342  13.750  20.791  0.00  0.00    +0.000 A 
ATOM      4  C   UNL     1      -7.301  14.583  21.581  0.00  0.00    +0.000 C 
ATOM      5  N   UNL     1      -5.011  13.468  21.164  0.00  0.00    +0.000 N 
ATOM      6  C   UNL     1      -4.404  12.788  20.093  0.00  0.00    +0.000 A 
ATOM      7  N   UNL     1      -3.137  12.296  20.039  0.00  0.00    +0.000 NA
ATOM      8  C   UNL     1      -2.857  11.661  18.882  0.00  0.00    +0.000 A 
ATOM      9  N   UNL     1      -3.692  11.514  17.836  0.00  0.00    +0.000 NA
ATOM     10  C   UNL     1      -4.934  11.991  17.911  0.00  0.00    +0.000 A 
ATOM     11  N   UNL     1      -5.733  11.772  16.796  0.00  0.00    +0.000 N 
ATOM     12  C   UNL     1      -5.349  12.636  19.083  0.00  0.00    +0.000 A 
ATOM     13  H   UNL     1      -5.300  11.077  16.199  0.00  0.00    +0.000 HD
ATOM     14  H   UNL     1      -6.709  11.618  17.002  0.00  0.00    +0.000 HD
ENDROOT
BRANCH   8  15
ATOM     15  C   UNL     1      -1.538  10.992  18.711  0.00  0.00    +0.000 A 
ATOM     16  C   UNL     1      -0.449  11.212  19.568  0.00  0.00    +0.000 A 
ATOM     17  C   UNL     1       0.767  10.536  19.389  0.00  0.00    +0.000 A 
ATOM     18  C   UNL     1       0.918   9.622  18.345  0.00  0.00    +0.000 A 
ATOM     19 CL   UNL     1       2.400   8.776  18.135  0.00  0.00    +0.000 Cl
ATOM     20  C   UNL     1      -0.135   9.386  17.472  0.00  0.00    +0.000 A 
ATOM     21  C   UNL     1      -1.342  10.068  17.656  0.00  0.00    +0.000 A 
ENDBRANCH   8  15
BRANCH   5  22
ATOM     22  C   UNL     1      -4.371  13.828  22.407  0.00  0.00    +0.000 A 
ATOM     23  C   UNL     1      -3.700  15.052  22.559  0.00  0.00    +0.000 A 
ATOM     24  C   UNL     1      -3.041  15.377  23.749  0.00  0.00    +0.000 A 
ATOM     25  C   UNL     1      -3.062  14.492  24.821  0.00  0.00    +0.000 A 
ATOM     26  C   UNL     1      -3.745  13.285  24.700  0.00  0.00    +0.000 A 
ATOM     27  C   UNL     1      -4.396  12.954  23.503  0.00  0.00    +0.000 A 
ENDBRANCH   5  22
TORSDOF 2
ENDMDL
