MODEL 1
REMARK VINA RESULT:      -6.6      0.000      0.000
REMARK  Name = 
REMARK  7 active torsions:
REMARK  status: ('A' for Active; 'I' for Inactive)
REMARK    1  A    between atoms: C_2  and  C_3
REMARK    2  A    between atoms: C_6  and  N_7
REMARK    3  A    between atoms: C_10  and  O_11
REMARK    4  A    between atoms: O_11  and  C_12
REMARK    5  A    between atoms: C_22  and  N_23
REMARK    6  A    between atoms: C_24  and  C_26
REMARK    7  A    between atoms: C_31  and  O_32
REMARK                            x       y       z     vdW  Elec       q    Type
REMARK                         _______ _______ _______ _____ _____    ______ ____
ROOT
ATOM      1  C   UNL     1      -2.467  11.410  18.407  0.00  0.00    +0.000 A 
ATOM      2  C   UNL     1      -2.144  12.630  18.964  0.00  0.00    +0.000 A 
ATOM      3  N   UNL     1      -0.875  13.050  19.198  0.00  0.00    +0.000 NA
ATOM      4  C   UNL     1       0.146  12.222  18.874  0.00  0.00    +0.000 A 
ATOM      5  C   UNL     1      -0.112  10.945  18.326  0.00  0.00    +0.000 A 
ATOM      6  C   UNL     1      -1.427  10.545  18.074  0.00  0.00    +0.000 A 
ENDROOT
BRANCH   4   7
ATOM      7  N   UNL     1       1.451  12.647  19.114  0.00  0.00    +0.000 N 
ATOM      8  C   UNL     1       1.844  12.861  20.500  0.00  0.00    +0.000 C 
ATOM      9  C   UNL     1       1.995  14.337  20.820  0.00  0.00    +0.000 C 
ATOM     10  C   UNL     1       2.992  15.007  19.866  0.00  0.00    +0.000 C 
ATOM     11  C   UNL     1       2.426  14.858  18.451  0.00  0.00    +0.000 C 
ATOM     12  C   UNL     1       2.167  13.396  18.072  0.00  0.00    +0.000 C 
BRANCH  10  13
ATOM     13  O   UNL     1       4.303  14.409  19.898  0.00  0.00    +0.000 OA
BRANCH  13  14
ATOM     14  C   UNL     1       5.372  15.193  19.541  0.00  0.00    +0.000 A 
ATOM     15  C   UNL     1       5.837  16.273  20.292  0.00  0.00    +0.000 A 
ATOM     16  C   UNL     1       6.962  16.992  19.894  0.00  0.00    +0.000 A 
ATOM     17  C   UNL     1       7.621  16.642  18.723  0.00  0.00    +0.000 A 
ATOM     18  F   UNL     1       8.696  17.342  18.347  0.00  0.00    +0.000 F 
ATOM     19  C   UNL     1       7.179  15.580  17.950  0.00  0.00    +0.000 A 
ATOM     20  C   UNL     1       6.065  14.855  18.368  0.00  0.00    +0.000 A 
ATOM     21  F   UNL     1       5.652  13.824  17.610  0.00  0.00    +0.000 F 
ENDBRANCH  13  14
ENDBRANCH  10  13
ENDBRANCH   4   7
BRANCH   5  22
ATOM     22  N   UNL     1       0.922   9.987  18.213  0.00  0.00    +0.000 N 
ATOM     23  C   UNL     1       1.245   9.124  19.243  0.00  0.00    +0.000 C 
ATOM     24  O   UNL     1       0.749   9.178  20.365  0.00  0.00    +0.000 OA
ATOM     25  H   UNL     1       1.099   9.639  17.274  0.00  0.00    +0.000 HD
BRANCH  23  26
ATOM     26  C   UNL     1       2.216   8.038  18.920  0.00  0.00    +0.000 A 
ATOM     27  C   UNL     1       2.946   8.145  17.741  0.00  0.00    +0.000 A 
ATOM     28  N   UNL     1       3.823   7.209  17.294  0.00  0.00    +0.000 NA
ATOM     29  C   UNL     1       3.986   6.108  18.056  0.00  0.00    +0.000 A 
ATOM     30  C   UNL     1       3.327   5.908  19.257  0.00  0.00    +0.000 A 
ATOM     31  C   UNL     1       2.436   6.889  19.690  0.00  0.00    +0.000 A 
BRANCH  31  32
ATOM     32  O   UNL     1       1.781   6.709  20.881  0.00  0.00    +0.000 OA
ATOM     33  H   UNL     1       0.901   7.125  20.832  0.00  0.00    +0.000 HD
ENDBRANCH  31  32
ENDBRANCH  23  26
ENDBRANCH   5  22
BRANCH   1  35
ATOM     34  N   UNL     1      -4.932  10.693  18.103  0.00  0.00    +0.000 NA
ATOM     35  C   UNL     1      -3.835  11.024  18.242  0.00  0.00    +0.000 C 
ENDBRANCH   1  35
TORSDOF 7
ENDMDL
MODEL 2
REMARK VINA RESULT:      -6.5      4.225      7.530
REMARK  Name = 
REMARK  7 active torsions:
REMARK  status: ('A' for Active; 'I' for Inactive)
REMARK    1  A    between atoms: C_2  and  C_3
REMARK    2  A    between atoms: C_6  and  N_7
REMARK    3  A    between atoms: C_10  and  O_11
REMARK    4  A    between atoms: O_11  and  C_12
REMARK    5  A    between atoms: C_22  and  N_23
REMARK    6  A    between atoms: C_24  and  C_26
REMARK    7  A    between atoms: C_31  and  O_32
REMARK                            x       y       z     vdW  Elec       q    Type
REMARK                         _______ _______ _______ _____ _____    ______ ____
ROOT
ATOM      1  C   UNL     1      -1.379  15.524  21.771  0.00  0.00    +0.000 A 
ATOM      2  C   UNL     1      -0.496  14.993  22.688  0.00  0.00    +0.000 A 
ATOM      3  N   UNL     1       0.175  13.827  22.514  0.00  0.00    +0.000 NA
ATOM      4  C   UNL     1      -0.035  13.129  21.373  0.00  0.00    +0.000 A 
ATOM      5  C   UNL     1      -0.947  13.599  20.401  0.00  0.00    +0.000 A 
ATOM      6  C   UNL     1      -1.610  14.815  20.595  0.00  0.00    +0.000 A 
ENDROOT
BRANCH   4   7
ATOM      7  N   UNL     1       0.650  11.930  21.189  0.00  0.00    +0.000 N 
ATOM      8  C   UNL     1       1.598  11.860  20.086  0.00  0.00    +0.000 C 
ATOM      9  C   UNL     1       1.083  10.985  18.957  0.00  0.00    +0.000 C 
ATOM     10  C   UNL     1       0.739   9.580  19.464  0.00  0.00    +0.000 C 
ATOM     11  C   UNL     1      -0.363   9.741  20.514  0.00  0.00    +0.000 C 
ATOM     12  C   UNL     1       0.046  10.675  21.657  0.00  0.00    +0.000 C 
BRANCH  10  13
ATOM     13  O   UNL     1       1.856   8.904  20.075  0.00  0.00    +0.000 OA
BRANCH  13  14
ATOM     14  C   UNL     1       2.018   7.566  19.808  0.00  0.00    +0.000 A 
ATOM     15  C   UNL     1       1.663   6.543  20.687  0.00  0.00    +0.000 A 
ATOM     16  C   UNL     1       1.809   5.205  20.327  0.00  0.00    +0.000 A 
ATOM     17  C   UNL     1       2.332   4.883  19.082  0.00  0.00    +0.000 A 
ATOM     18  F   UNL     1       2.473   3.596  18.747  0.00  0.00    +0.000 F 
ATOM     19  C   UNL     1       2.703   5.877  18.189  0.00  0.00    +0.000 A 
ATOM     20  C   UNL     1       2.534   7.212  18.552  0.00  0.00    +0.000 A 
ATOM     21  F   UNL     1       2.894   8.163  17.673  0.00  0.00    +0.000 F 
ENDBRANCH  13  14
ENDBRANCH  10  13
ENDBRANCH   4   7
BRANCH   5  22
ATOM     22  N   UNL     1      -1.354  12.768  19.332  0.00  0.00    +0.000 N 
ATOM     23  C   UNL     1      -2.612  12.197  19.278  0.00  0.00    +0.000 C 
ATOM     24  O   UNL     1      -3.438  12.268  20.183  0.00  0.00    +0.000 OA
ATOM     25  H   UNL     1      -0.917  12.960  18.434  0.00  0.00    +0.000 HD
BRANCH  23  26
ATOM     26  C   UNL     1      -2.975  11.509  18.004  0.00  0.00    +0.000 A 
ATOM     27  C   UNL     1      -2.048  10.632  17.449  0.00  0.00    +0.000 A 
ATOM     28  N   UNL     1      -2.219   9.979  16.270  0.00  0.00    +0.000 NA
ATOM     29  C   UNL     1      -3.370  10.207  15.606  0.00  0.00    +0.000 A 
ATOM     30  C   UNL     1      -4.370  11.043  16.074  0.00  0.00    +0.000 A 
ATOM     31  C   UNL     1      -4.164  11.695  17.290  0.00  0.00    +0.000 A 
BRANCH  31  32
ATOM     32  O   UNL     1      -5.147  12.521  17.771  0.00  0.00    +0.000 OA
ATOM     33  H   UNL     1      -5.999  12.279  17.368  0.00  0.00    +0.000 HD
ENDBRANCH  31  32
ENDBRANCH  23  26
ENDBRANCH   5  22
BRANCH   1  35
ATOM     34  N   UNL     1      -2.672  17.705  22.277  0.00  0.00    +0.000 NA
ATOM     35  C   UNL     1      -2.085  16.736  22.057  0.00  0.00    +0.000 C 
ENDBRANCH   1  35
TORSDOF 7
ENDMDL
MODEL 3
REMARK VINA RESULT:      -6.4      5.776      7.442
REMARK  Name = 
REMARK  7 active torsions:
REMARK  status: ('A' for Active; 'I' for Inactive)
REMARK    1  A    between atoms: C_2  and  C_3
REMARK    2  A    between atoms: C_6  and  N_7
REMARK    3  A    between atoms: C_10  and  O_11
REMARK    4  A    between atoms: O_11  and  C_12
REMARK    5  A    between atoms: C_22  and  N_23
REMARK    6  A    between atoms: C_24  and  C_26
REMARK    7  A    between atoms: C_31  and  O_32
REMARK                            x       y       z     vdW  Elec       q    Type
REMARK                         _______ _______ _______ _____ _____    ______ ____
ROOT
ATOM      1  C   UNL     1      -3.567  10.813  15.932  0.00  0.00    +0.000 A 
ATOM      2  C   UNL     1      -4.640  11.596  16.306  0.00  0.00    +0.000 A 
ATOM      3  N   UNL     1      -4.860  12.037  17.570  0.00  0.00    +0.000 NA
ATOM      4  C   UNL     1      -3.979  11.683  18.535  0.00  0.00    +0.000 A 
ATOM      5  C   UNL     1      -2.872  10.859  18.231  0.00  0.00    +0.000 A 
ATOM      6  C   UNL     1      -2.656  10.437  16.916  0.00  0.00    +0.000 A 
ENDROOT
BRANCH   4   7
ATOM      7  N   UNL     1      -4.200  12.131  19.836  0.00  0.00    +0.000 N 
ATOM      8  C   UNL     1      -5.545  11.985  20.377  0.00  0.00    +0.000 C 
ATOM      9  C   UNL     1      -6.254  13.323  20.489  0.00  0.00    +0.000 C 
ATOM     10  C   UNL     1      -5.436  14.309  21.332  0.00  0.00    +0.000 C 
ATOM     11  C   UNL     1      -4.100  14.511  20.613  0.00  0.00    +0.000 C 
ATOM     12  C   UNL     1      -3.349  13.195  20.387  0.00  0.00    +0.000 C 
BRANCH  10  13
ATOM     13  O   UNL     1      -5.169  13.835  22.666  0.00  0.00    +0.000 OA
BRANCH  13  14
ATOM     14  C   UNL     1      -4.450  14.652  23.503  0.00  0.00    +0.000 A 
ATOM     15  C   UNL     1      -4.834  15.946  23.857  0.00  0.00    +0.000 A 
ATOM     16  C   UNL     1      -4.079  16.698  24.753  0.00  0.00    +0.000 A 
ATOM     17  C   UNL     1      -2.917  16.162  25.291  0.00  0.00    +0.000 A 
ATOM     18  F   UNL     1      -2.196  16.894  26.147  0.00  0.00    +0.000 F 
ATOM     19  C   UNL     1      -2.503  14.883  24.953  0.00  0.00    +0.000 A 
ATOM     20  C   UNL     1      -3.276  14.131  24.070  0.00  0.00    +0.000 A 
ATOM     21  F   UNL     1      -2.864  12.891  23.757  0.00  0.00    +0.000 F 
ENDBRANCH  13  14
ENDBRANCH  10  13
ENDBRANCH   4   7
BRANCH   5  22
ATOM     22  N   UNL     1      -2.092  10.289  19.263  0.00  0.00    +0.000 N 
ATOM     23  C   UNL     1      -0.782  10.664  19.491  0.00  0.00    +0.000 C 
ATOM     24  O   UNL     1      -0.151  11.432  18.770  0.00  0.00    +0.000 OA
ATOM     25  H   UNL     1      -2.608   9.968  20.079  0.00  0.00    +0.000 HD
BRANCH  23  26
ATOM     26  C   UNL     1      -0.143  10.130  20.731  0.00  0.00    +0.000 A 
ATOM     27  C   UNL     1      -0.641  10.558  21.957  0.00  0.00    +0.000 A 
ATOM     28  N   UNL     1      -0.127  10.200  23.162  0.00  0.00    +0.000 NA
ATOM     29  C   UNL     1       0.937   9.371  23.151  0.00  0.00    +0.000 A 
ATOM     30  C   UNL     1       1.501   8.868  21.991  0.00  0.00    +0.000 A 
ATOM     31  C   UNL     1       0.946   9.253  20.771  0.00  0.00    +0.000 A 
BRANCH  31  32
ATOM     32  O   UNL     1       1.488   8.758  19.613  0.00  0.00    +0.000 OA
ATOM     33  H   UNL     1       2.441   8.956  19.590  0.00  0.00    +0.000 HD
ENDBRANCH  31  32
ENDBRANCH  23  26
ENDBRANCH   5  22
BRANCH   1  35
ATOM     34  N   UNL     1      -3.312   9.974  13.500  0.00  0.00    +0.000 NA
ATOM     35  C   UNL     1      -3.439  10.349  14.584  0.00  0.00    +0.000 C 
ENDBRANCH   1  35
TORSDOF 7
ENDMDL
MODEL 4
REMARK VINA RESULT:      -6.3      4.766      7.531
REMARK  Name = 
REMARK  7 active torsions:
REMARK  status: ('A' for Active; 'I' for Inactive)
REMARK    1  A    between atoms: C_2  and  C_3
REMARK    2  A    between atoms: C_6  and  N_7
REMARK    3  A    between atoms: C_10  and  O_11
REMARK    4  A    between atoms: O_11  and  C_12
REMARK    5  A    between atoms: C_22  and  N_23
REMARK    6  A    between atoms: C_24  and  C_26
REMARK    7  A    between atoms: C_31  and  O_32
REMARK                            x       y       z     vdW  Elec       q    Type
REMARK                         _______ _______ _______ _____ _____    ______ ____
ROOT
ATOM      1  C   UNL     1      -2.179  14.662  22.576  0.00  0.00    +0.000 A 
ATOM      2  C   UNL     1      -1.263  14.089  23.434  0.00  0.00    +0.000 A 
ATOM      3  N   UNL     1      -0.471  13.035  23.111  0.00  0.00    +0.000 NA
ATOM      4  C   UNL     1      -0.586  12.501  21.873  0.00  0.00    +0.000 A 
ATOM      5  C   UNL     1      -1.523  13.018  20.951  0.00  0.00    +0.000 A 
ATOM      6  C   UNL     1      -2.312  14.119  21.300  0.00  0.00    +0.000 A 
ENDROOT
BRANCH   4   7
ATOM      7  N   UNL     1       0.224  11.418  21.537  0.00  0.00    +0.000 N 
ATOM      8  C   UNL     1       1.305  11.655  20.591  0.00  0.00    +0.000 C 
ATOM      9  C   UNL     1       1.018  11.026  19.239  0.00  0.00    +0.000 C 
ATOM     10  C   UNL     1       0.743   9.524  19.380  0.00  0.00    +0.000 C 
ATOM     11  C   UNL     1      -0.492   9.377  20.272  0.00  0.00    +0.000 C 
ATOM     12  C   UNL     1      -0.317  10.055  21.635  0.00  0.00    +0.000 C 
BRANCH  10  13
ATOM     13  O   UNL     1       1.831   8.799  19.985  0.00  0.00    +0.000 OA
BRANCH  13  14
ATOM     14  C   UNL     1       2.304   7.689  19.328  0.00  0.00    +0.000 A 
ATOM     15  C   UNL     1       3.009   7.731  18.124  0.00  0.00    +0.000 A 
ATOM     16  C   UNL     1       3.503   6.567  17.542  0.00  0.00    +0.000 A 
ATOM     17  C   UNL     1       3.277   5.343  18.156  0.00  0.00    +0.000 A 
ATOM     18  F   UNL     1       3.751   4.230  17.586  0.00  0.00    +0.000 F 
ATOM     19  C   UNL     1       2.573   5.266  19.348  0.00  0.00    +0.000 A 
ATOM     20  C   UNL     1       2.100   6.439  19.933  0.00  0.00    +0.000 A 
ATOM     21  F   UNL     1       1.424   6.347  21.091  0.00  0.00    +0.000 F 
ENDBRANCH  13  14
ENDBRANCH  10  13
ENDBRANCH   4   7
BRANCH   5  22
ATOM     22  N   UNL     1      -1.821  12.322  19.757  0.00  0.00    +0.000 N 
ATOM     23  C   UNL     1      -3.118  12.072  19.352  0.00  0.00    +0.000 C 
ATOM     24  O   UNL     1      -4.111  12.330  20.028  0.00  0.00    +0.000 OA
ATOM     25  H   UNL     1      -1.135  12.413  19.011  0.00  0.00    +0.000 HD
BRANCH  23  26
ATOM     26  C   UNL     1      -3.290  11.506  17.981  0.00  0.00    +0.000 A 
ATOM     27  C   UNL     1      -2.280  10.690  17.482  0.00  0.00    +0.000 A 
ATOM     28  N   UNL     1      -2.275  10.151  16.235  0.00  0.00    +0.000 NA
ATOM     29  C   UNL     1      -3.327  10.436  15.441  0.00  0.00    +0.000 A 
ATOM     30  C   UNL     1      -4.396  11.219  15.842  0.00  0.00    +0.000 A 
ATOM     31  C   UNL     1      -4.372  11.754  17.129  0.00  0.00    +0.000 A 
BRANCH  31  32
ATOM     32  O   UNL     1      -5.427  12.525  17.544  0.00  0.00    +0.000 OA
ATOM     33  H   UNL     1      -6.251  12.011  17.475  0.00  0.00    +0.000 HD
ENDBRANCH  31  32
ENDBRANCH  23  26
ENDBRANCH   5  22
BRANCH   1  35
ATOM     34  N   UNL     1      -3.689  16.598  23.386  0.00  0.00    +0.000 NA
ATOM     35  C   UNL     1      -3.012  15.740  23.014  0.00  0.00    +0.000 C 
ENDBRANCH   1  35
TORSDOF 7
ENDMDL
MODEL 5
REMARK VINA RESULT:      -6.3      0.812      1.167
REMARK  Name = 
REMARK  7 active torsions:
REMARK  status: ('A' for Active; 'I' for Inactive)
REMARK    1  A    between atoms: C_2  and  C_3
REMARK    2  A    between atoms: C_6  and  N_7
REMARK    3  A    between atoms: C_10  and  O_11
REMARK    4  A    between atoms: O_11  and  C_12
REMARK    5  A    between atoms: C_22  and  N_23
REMARK    6  A    between atoms: C_24  and  C_26
REMARK    7  A    between atoms: C_31  and  O_32
REMARK                            x       y       z     vdW  Elec       q    Type
REMARK                         _______ _______ _______ _____ _____    ______ ____
ROOT
ATOM      1  C   UNL     1      -2.402  11.330  18.388  0.00  0.00    +0.000 A 
ATOM      2  C   UNL     1      -2.093  12.542  18.972  0.00  0.00    +0.000 A 
ATOM      3  N   UNL     1      -0.830  12.963  19.233  0.00  0.00    +0.000 NA
ATOM      4  C   UNL     1       0.199  12.145  18.910  0.00  0.00    +0.000 A 
ATOM      5  C   UNL     1      -0.044  10.877  18.336  0.00  0.00    +0.000 A 
ATOM      6  C   UNL     1      -1.353  10.476  18.056  0.00  0.00    +0.000 A 
ENDROOT
BRANCH   4   7
ATOM      7  N   UNL     1       1.498  12.572  19.178  0.00  0.00    +0.000 N 
ATOM      8  C   UNL     1       1.789  13.033  20.529  0.00  0.00    +0.000 C 
ATOM      9  C   UNL     1       1.978  14.539  20.580  0.00  0.00    +0.000 C 
ATOM     10  C   UNL     1       3.075  14.988  19.608  0.00  0.00    +0.000 C 
ATOM     11  C   UNL     1       2.618  14.590  18.202  0.00  0.00    +0.000 C 
ATOM     12  C   UNL     1       2.327  13.091  18.081  0.00  0.00    +0.000 C 
BRANCH  10  13
ATOM     13  O   UNL     1       4.352  14.371  19.863  0.00  0.00    +0.000 OA
BRANCH  13  14
ATOM     14  C   UNL     1       5.476  15.008  19.396  0.00  0.00    +0.000 A 
ATOM     15  C   UNL     1       6.126  14.680  18.206  0.00  0.00    +0.000 A 
ATOM     16  C   UNL     1       7.232  15.405  17.769  0.00  0.00    +0.000 A 
ATOM     17  C   UNL     1       7.708  16.459  18.537  0.00  0.00    +0.000 A 
ATOM     18  F   UNL     1       8.773  17.146  18.111  0.00  0.00    +0.000 F 
ATOM     19  C   UNL     1       7.090  16.805  19.729  0.00  0.00    +0.000 A 
ATOM     20  C   UNL     1       5.972  16.085  20.146  0.00  0.00    +0.000 A 
ATOM     21  F   UNL     1       5.382  16.436  21.302  0.00  0.00    +0.000 F 
ENDBRANCH  13  14
ENDBRANCH  10  13
ENDBRANCH   4   7
BRANCH   5  22
ATOM     22  N   UNL     1       0.996   9.926  18.222  0.00  0.00    +0.000 N 
ATOM     23  C   UNL     1       1.288   9.027  19.231  0.00  0.00    +0.000 C 
ATOM     24  O   UNL     1       0.755   9.040  20.337  0.00  0.00    +0.000 OA
ATOM     25  H   UNL     1       1.205   9.613  17.277  0.00  0.00    +0.000 HD
BRANCH  23  26
ATOM     26  C   UNL     1       2.272   7.955  18.901  0.00  0.00    +0.000 A 
ATOM     27  C   UNL     1       3.008   8.083  17.728  0.00  0.00    +0.000 A 
ATOM     28  N   UNL     1       3.897   7.162  17.274  0.00  0.00    +0.000 NA
ATOM     29  C   UNL     1       4.068   6.055  18.025  0.00  0.00    +0.000 A 
ATOM     30  C   UNL     1       3.404   5.833  19.220  0.00  0.00    +0.000 A 
ATOM     31  C   UNL     1       2.501   6.800  19.659  0.00  0.00    +0.000 A 
BRANCH  31  32
ATOM     32  O   UNL     1       1.841   6.600  20.844  0.00  0.00    +0.000 OA
ATOM     33  H   UNL     1       2.441   6.796  21.585  0.00  0.00    +0.000 HD
ENDBRANCH  31  32
ENDBRANCH  23  26
ENDBRANCH   5  22
BRANCH   1  35
ATOM     34  N   UNL     1      -4.862  10.610  18.051  0.00  0.00    +0.000 NA
ATOM     35  C   UNL     1      -3.766  10.942  18.194  0.00  0.00    +0.000 C 
ENDBRANCH   1  35
TORSDOF 7
ENDMDL
MODEL 6
REMARK VINA RESULT:      -6.3      2.464      3.154
REMARK  Name = 
REMARK  7 active torsions:
REMARK  status: ('A' for Active; 'I' for Inactive)
REMARK    1  A    between atoms: C_2  and  C_3
REMARK    2  A    between atoms: C_6  and  N_7
REMARK    3  A    between atoms: C_10  and  O_11
REMARK    4  A    between atoms: O_11  and  C_12
REMARK    5  A    between atoms: C_22  and  N_23
REMARK    6  A    between atoms: C_24  and  C_26
REMARK    7  A    between atoms: C_31  and  O_32
REMARK                            x       y       z     vdW  Elec       q    Type
REMARK                         _______ _______ _______ _____ _____    ______ ____
ROOT
ATOM      1  C   UNL     1      -1.000  13.810  22.670  0.00  0.00    +0.000 A 
ATOM      2  C   UNL     1      -0.213  14.915  22.418  0.00  0.00    +0.000 A 
ATOM      3  N   UNL     1       0.894  14.899  21.633  0.00  0.00    +0.000 NA
ATOM      4  C   UNL     1       1.261  13.727  21.063  0.00  0.00    +0.000 A 
ATOM      5  C   UNL     1       0.517  12.549  21.301  0.00  0.00    +0.000 A 
ATOM      6  C   UNL     1      -0.632  12.596  22.096  0.00  0.00    +0.000 A 
ENDROOT
BRANCH   4   7
ATOM      7  N   UNL     1       2.397  13.705  20.258  0.00  0.00    +0.000 N 
ATOM      8  C   UNL     1       3.631  14.234  20.823  0.00  0.00    +0.000 C 
ATOM      9  C   UNL     1       4.010  15.565  20.200  0.00  0.00    +0.000 C 
ATOM     10  C   UNL     1       4.121  15.447  18.675  0.00  0.00    +0.000 C 
ATOM     11  C   UNL     1       2.742  15.027  18.158  0.00  0.00    +0.000 C 
ATOM     12  C   UNL     1       2.246  13.726  18.796  0.00  0.00    +0.000 C 
BRANCH  10  13
ATOM     13  O   UNL     1       5.086  14.466  18.247  0.00  0.00    +0.000 OA
BRANCH  13  14
ATOM     14  C   UNL     1       6.411  14.827  18.256  0.00  0.00    +0.000 A 
ATOM     15  C   UNL     1       6.892  16.034  18.765  0.00  0.00    +0.000 A 
ATOM     16  C   UNL     1       8.257  16.311  18.788  0.00  0.00    +0.000 A 
ATOM     17  C   UNL     1       9.153  15.380  18.280  0.00  0.00    +0.000 A 
ATOM     18  F   UNL     1      10.461  15.657  18.301  0.00  0.00    +0.000 F 
ATOM     19  C   UNL     1       8.707  14.175  17.759  0.00  0.00    +0.000 A 
ATOM     20  C   UNL     1       7.341  13.901  17.760  0.00  0.00    +0.000 A 
ATOM     21  F   UNL     1       6.926  12.726  17.256  0.00  0.00    +0.000 F 
ENDBRANCH  13  14
ENDBRANCH  10  13
ENDBRANCH   4   7
BRANCH   5  22
ATOM     22  N   UNL     1       1.024  11.287  20.915  0.00  0.00    +0.000 N 
ATOM     23  C   UNL     1       0.499  10.573  19.854  0.00  0.00    +0.000 C 
ATOM     24  O   UNL     1      -0.502  10.910  19.228  0.00  0.00    +0.000 OA
ATOM     25  H   UNL     1       2.010  11.131  21.107  0.00  0.00    +0.000 HD
BRANCH  23  26
ATOM     26  C   UNL     1       1.253   9.355  19.435  0.00  0.00    +0.000 A 
ATOM     27  C   UNL     1       1.330   8.294  20.331  0.00  0.00    +0.000 A 
ATOM     28  N   UNL     1       2.024   7.149  20.108  0.00  0.00    +0.000 NA
ATOM     29  C   UNL     1       2.677   7.049  18.932  0.00  0.00    +0.000 A 
ATOM     30  C   UNL     1       2.652   8.033  17.959  0.00  0.00    +0.000 A 
ATOM     31  C   UNL     1       1.927   9.195  18.219  0.00  0.00    +0.000 A 
BRANCH  31  32
ATOM     32  O   UNL     1       1.886  10.177  17.262  0.00  0.00    +0.000 OA
ATOM     33  H   UNL     1       2.759  10.253  16.839  0.00  0.00    +0.000 HD
ENDBRANCH  31  32
ENDBRANCH  23  26
ENDBRANCH   5  22
BRANCH   1  35
ATOM     34  N   UNL     1      -3.027  14.001  24.265  0.00  0.00    +0.000 NA
ATOM     35  C   UNL     1      -2.124  13.903  23.553  0.00  0.00    +0.000 C 
ENDBRANCH   1  35
TORSDOF 7
ENDMDL
MODEL 7
REMARK VINA RESULT:      -6.3      3.956      7.694
REMARK  Name = 
REMARK  7 active torsions:
REMARK  status: ('A' for Active; 'I' for Inactive)
REMARK    1  A    between atoms: C_2  and  C_3
REMARK    2  A    between atoms: C_6  and  N_7
REMARK    3  A    between atoms: C_10  and  O_11
REMARK    4  A    between atoms: O_11  and  C_12
REMARK    5  A    between atoms: C_22  and  N_23
REMARK    6  A    between atoms: C_24  and  C_26
REMARK    7  A    between atoms: C_31  and  O_32
REMARK                            x       y       z     vdW  Elec       q    Type
REMARK                         _______ _______ _______ _____ _____    ______ ____
ROOT
ATOM      1  C   UNL     1      -3.085  13.867  23.395  0.00  0.00    +0.000 A 
ATOM      2  C   UNL     1      -3.126  12.521  23.694  0.00  0.00    +0.000 A 
ATOM      3  N   UNL     1      -2.202  11.619  23.277  0.00  0.00    +0.000 NA
ATOM      4  C   UNL     1      -1.174  12.058  22.514  0.00  0.00    +0.000 A 
ATOM      5  C   UNL     1      -1.083  13.419  22.145  0.00  0.00    +0.000 A 
ATOM      6  C   UNL     1      -2.037  14.333  22.606  0.00  0.00    +0.000 A 
ENDROOT
BRANCH   4   7
ATOM      7  N   UNL     1      -0.223  11.136  22.082  0.00  0.00    +0.000 N 
ATOM      8  C   UNL     1       0.036  11.058  20.651  0.00  0.00    +0.000 C 
ATOM      9  C   UNL     1      -0.525   9.784  20.046  0.00  0.00    +0.000 C 
ATOM     10  C   UNL     1       0.026   8.546  20.763  0.00  0.00    +0.000 C 
ATOM     11  C   UNL     1      -0.417   8.642  22.225  0.00  0.00    +0.000 C 
ATOM     12  C   UNL     1       0.043   9.941  22.895  0.00  0.00    +0.000 C 
BRANCH  10  13
ATOM     13  O   UNL     1       1.464   8.459  20.727  0.00  0.00    +0.000 OA
BRANCH  13  14
ATOM     14  C   UNL     1       2.033   7.670  19.757  0.00  0.00    +0.000 A 
ATOM     15  C   UNL     1       2.494   8.147  18.529  0.00  0.00    +0.000 A 
ATOM     16  C   UNL     1       3.107   7.295  17.613  0.00  0.00    +0.000 A 
ATOM     17  C   UNL     1       3.247   5.948  17.917  0.00  0.00    +0.000 A 
ATOM     18  F   UNL     1       3.833   5.137  17.029  0.00  0.00    +0.000 F 
ATOM     19  C   UNL     1       2.792   5.441  19.124  0.00  0.00    +0.000 A 
ATOM     20  C   UNL     1       2.198   6.306  20.041  0.00  0.00    +0.000 A 
ATOM     21  F   UNL     1       1.766   5.799  21.209  0.00  0.00    +0.000 F 
ENDBRANCH  13  14
ENDBRANCH  10  13
ENDBRANCH   4   7
BRANCH   5  22
ATOM     22  N   UNL     1      -0.163  13.840  21.158  0.00  0.00    +0.000 N 
ATOM     23  C   UNL     1       1.011  14.498  21.476  0.00  0.00    +0.000 C 
ATOM     24  O   UNL     1       1.307  14.867  22.609  0.00  0.00    +0.000 OA
ATOM     25  H   UNL     1      -0.138  13.278  20.311  0.00  0.00    +0.000 HD
BRANCH  23  26
ATOM     26  C   UNL     1       1.979  14.705  20.359  0.00  0.00    +0.000 A 
ATOM     27  C   UNL     1       3.303  14.331  20.566  0.00  0.00    +0.000 A 
ATOM     28  N   UNL     1       4.302  14.510  19.662  0.00  0.00    +0.000 NA
ATOM     29  C   UNL     1       3.970  15.090  18.490  0.00  0.00    +0.000 A 
ATOM     30  C   UNL     1       2.681  15.482  18.170  0.00  0.00    +0.000 A 
ATOM     31  C   UNL     1       1.679  15.281  19.119  0.00  0.00    +0.000 A 
BRANCH  31  32
ATOM     32  O   UNL     1       0.396  15.657  18.815  0.00  0.00    +0.000 OA
ATOM     33  H   UNL     1       0.045  16.216  19.530  0.00  0.00    +0.000 HD
ENDBRANCH  31  32
ENDBRANCH  23  26
ENDBRANCH   5  22
BRANCH   1  35
ATOM     34  N   UNL     1      -4.978  15.433  24.202  0.00  0.00    +0.000 NA
ATOM     35  C   UNL     1      -4.130  14.742  23.833  0.00  0.00    +0.000 C 
ENDBRANCH   1  35
TORSDOF 7
ENDMDL
MODEL 8
REMARK VINA RESULT:      -6.3      2.283      2.626
REMARK  Name = 
REMARK  7 active torsions:
REMARK  status: ('A' for Active; 'I' for Inactive)
REMARK    1  A    between atoms: C_2  and  C_3
REMARK    2  A    between atoms: C_6  and  N_7
REMARK    3  A    between atoms: C_10  and  O_11
REMARK    4  A    between atoms: O_11  and  C_12
REMARK    5  A    between atoms: C_22  and  N_23
REMARK    6  A    between atoms: C_24  and  C_26
REMARK    7  A    between atoms: C_31  and  O_32
REMARK                            x       y       z     vdW  Elec       q    Type
REMARK                         _______ _______ _______ _____ _____    ______ ____
ROOT
ATOM      1  C   UNL     1      -2.281  12.809  22.699  0.00  0.00    +0.000 A 
ATOM      2  C   UNL     1      -1.757  14.084  22.763  0.00  0.00    +0.000 A 
ATOM      3  N   UNL     1      -0.758  14.539  21.966  0.00  0.00    +0.000 NA
ATOM      4  C   UNL     1      -0.231  13.692  21.050  0.00  0.00    +0.000 A 
ATOM      5  C   UNL     1      -0.700  12.363  20.947  0.00  0.00    +0.000 A 
ATOM      6  C   UNL     1      -1.745  11.925  21.766  0.00  0.00    +0.000 A 
ENDROOT
BRANCH   4   7
ATOM      7  N   UNL     1       0.796  14.154  20.229  0.00  0.00    +0.000 N 
ATOM      8  C   UNL     1       2.158  14.045  20.733  0.00  0.00    +0.000 C 
ATOM      9  C   UNL     1       2.728  15.401  21.109  0.00  0.00    +0.000 C 
ATOM     10  C   UNL     1       2.666  16.371  19.923  0.00  0.00    +0.000 C 
ATOM     11  C   UNL     1       1.189  16.535  19.557  0.00  0.00    +0.000 C 
ATOM     12  C   UNL     1       0.511  15.198  19.236  0.00  0.00    +0.000 C 
BRANCH  10  13
ATOM     13  O   UNL     1       3.375  15.898  18.761  0.00  0.00    +0.000 OA
BRANCH  13  14
ATOM     14  C   UNL     1       4.736  16.079  18.724  0.00  0.00    +0.000 A 
ATOM     15  C   UNL     1       5.391  17.203  19.231  0.00  0.00    +0.000 A 
ATOM     16  C   UNL     1       6.781  17.294  19.205  0.00  0.00    +0.000 A 
ATOM     17  C   UNL     1       7.526  16.262  18.651  0.00  0.00    +0.000 A 
ATOM     18  F   UNL     1       8.859  16.362  18.626  0.00  0.00    +0.000 F 
ATOM     19  C   UNL     1       6.905  15.137  18.131  0.00  0.00    +0.000 A 
ATOM     20  C   UNL     1       5.515  15.047  18.180  0.00  0.00    +0.000 A 
ATOM     21  F   UNL     1       4.928  13.947  17.677  0.00  0.00    +0.000 F 
ENDBRANCH  13  14
ENDBRANCH  10  13
ENDBRANCH   4   7
BRANCH   5  22
ATOM     22  N   UNL     1       0.001  11.409  20.174  0.00  0.00    +0.000 N 
ATOM     23  C   UNL     1       0.895  10.517  20.734  0.00  0.00    +0.000 C 
ATOM     24  O   UNL     1       1.240  10.538  21.912  0.00  0.00    +0.000 OA
ATOM     25  H   UNL     1      -0.475  11.089  19.333  0.00  0.00    +0.000 HD
BRANCH  23  26
ATOM     26  C   UNL     1       1.411   9.441  19.837  0.00  0.00    +0.000 A 
ATOM     27  C   UNL     1       1.486   9.708  18.474  0.00  0.00    +0.000 A 
ATOM     28  N   UNL     1       1.882   8.809  17.536  0.00  0.00    +0.000 NA
ATOM     29  C   UNL     1       2.224   7.579  17.973  0.00  0.00    +0.000 A 
ATOM     30  C   UNL     1       2.207   7.211  19.307  0.00  0.00    +0.000 A 
ATOM     31  C   UNL     1       1.798   8.159  20.245  0.00  0.00    +0.000 A 
BRANCH  31  32
ATOM     32  O   UNL     1       1.782   7.813  21.571  0.00  0.00    +0.000 OA
ATOM     33  H   UNL     1       0.944   7.363  21.779  0.00  0.00    +0.000 HD
ENDBRANCH  31  32
ENDBRANCH  23  26
ENDBRANCH   5  22
BRANCH   1  35
ATOM     34  N   UNL     1      -4.122  12.038  24.344  0.00  0.00    +0.000 NA
ATOM     35  C   UNL     1      -3.301  12.394  23.614  0.00  0.00    +0.000 C 
ENDBRANCH   1  35
TORSDOF 7
ENDMDL
MODEL 9
REMARK VINA RESULT:      -6.2      3.759      7.956
REMARK  Name = 
REMARK  7 active torsions:
REMARK  status: ('A' for Active; 'I' for Inactive)
REMARK    1  A    between atoms: C_2  and  C_3
REMARK    2  A    between atoms: C_6  and  N_7
REMARK    3  A    between atoms: C_10  and  O_11
REMARK    4  A    between atoms: O_11  and  C_12
REMARK    5  A    between atoms: C_22  and  N_23
REMARK    6  A    between atoms: C_24  and  C_26
REMARK    7  A    between atoms: C_31  and  O_32
REMARK                            x       y       z     vdW  Elec       q    Type
REMARK                         _______ _______ _______ _____ _____    ______ ____
ROOT
ATOM      1  C   UNL     1      -2.897  13.968  23.419  0.00  0.00    +0.000 A 
ATOM      2  C   UNL     1      -3.126  12.609  23.483  0.00  0.00    +0.000 A 
ATOM      3  N   UNL     1      -2.248  11.667  23.056  0.00  0.00    +0.000 NA
ATOM      4  C   UNL     1      -1.072  12.079  22.525  0.00  0.00    +0.000 A 
ATOM      5  C   UNL     1      -0.782  13.456  22.403  0.00  0.00    +0.000 A 
ATOM      6  C   UNL     1      -1.695  14.407  22.871  0.00  0.00    +0.000 A 
ENDROOT
BRANCH   4   7
ATOM      7  N   UNL     1      -0.167  11.116  22.083  0.00  0.00    +0.000 N 
ATOM      8  C   UNL     1       0.026  10.984  20.646  0.00  0.00    +0.000 C 
ATOM      9  C   UNL     1      -0.597   9.708  20.109  0.00  0.00    +0.000 C 
ATOM     10  C   UNL     1      -0.048   8.478  20.843  0.00  0.00    +0.000 C 
ATOM     11  C   UNL     1      -0.423   8.635  22.319  0.00  0.00    +0.000 C 
ATOM     12  C   UNL     1       0.103   9.941  22.924  0.00  0.00    +0.000 C 
BRANCH  10  13
ATOM     13  O   UNL     1       1.384   8.348  20.746  0.00  0.00    +0.000 OA
BRANCH  13  14
ATOM     14  C   UNL     1       1.883   7.262  20.071  0.00  0.00    +0.000 A 
ATOM     15  C   UNL     1       1.835   5.951  20.549  0.00  0.00    +0.000 A 
ATOM     16  C   UNL     1       2.316   4.891  19.785  0.00  0.00    +0.000 A 
ATOM     17  C   UNL     1       2.869   5.141  18.536  0.00  0.00    +0.000 A 
ATOM     18  F   UNL     1       3.333   4.117  17.812  0.00  0.00    +0.000 F 
ATOM     19  C   UNL     1       2.940   6.433  18.036  0.00  0.00    +0.000 A 
ATOM     20  C   UNL     1       2.437   7.483  18.801  0.00  0.00    +0.000 A 
ATOM     21  F   UNL     1       2.509   8.729  18.300  0.00  0.00    +0.000 F 
ENDBRANCH  13  14
ENDBRANCH  10  13
ENDBRANCH   4   7
BRANCH   5  22
ATOM     22  N   UNL     1       0.321  13.896  21.636  0.00  0.00    +0.000 N 
ATOM     23  C   UNL     1       0.185  14.350  20.338  0.00  0.00    +0.000 C 
ATOM     24  O   UNL     1      -0.867  14.316  19.705  0.00  0.00    +0.000 OA
ATOM     25  H   UNL     1       1.094  14.294  22.165  0.00  0.00    +0.000 HD
BRANCH  23  26
ATOM     26  C   UNL     1       1.395  14.967  19.719  0.00  0.00    +0.000 A 
ATOM     27  C   UNL     1       2.641  14.466  20.083  0.00  0.00    +0.000 A 
ATOM     28  N   UNL     1       3.826  14.963  19.643  0.00  0.00    +0.000 NA
ATOM     29  C   UNL     1       3.774  16.011  18.797  0.00  0.00    +0.000 A 
ATOM     30  C   UNL     1       2.591  16.575  18.352  0.00  0.00    +0.000 A 
ATOM     31  C   UNL     1       1.391  16.040  18.820  0.00  0.00    +0.000 A 
BRANCH  31  32
ATOM     32  O   UNL     1       0.210  16.582  18.384  0.00  0.00    +0.000 OA
ATOM     33  H   UNL     1      -0.535  16.110  18.797  0.00  0.00    +0.000 HD
ENDBRANCH  31  32
ENDBRANCH  23  26
ENDBRANCH   5  22
BRANCH   1  35
ATOM     34  N   UNL     1      -4.724  15.627  24.193  0.00  0.00    +0.000 NA
ATOM     35  C   UNL     1      -3.900  14.896  23.846  0.00  0.00    +0.000 C 
ENDBRANCH   1  35
TORSDOF 7
ENDMDL
