MODEL 1
REMARK VINA RESULT:      -8.5      0.000      0.000
REMARK  Name = 
REMARK  10 active torsions:
REMARK  status: ('A' for Active; 'I' for Inactive)
REMARK    1  A    between atoms: C_1  and  C_2
REMARK    2  A    between atoms: C_4  and  N_5
REMARK    3  A    between atoms: C_6  and  C_8
REMARK    4  A    between atoms: C_8  and  O_10
REMARK    5  A    between atoms: C_12  and  C_13
REMARK    6  A    between atoms: C_14  and  O_15
REMARK    7  A    between atoms: O_15  and  C_16
REMARK    8  A    between atoms: C_19  and  O_20
REMARK    9  A    between atoms: C_21  and  C_22
REMARK   10  A    between atoms: C_25  and  C_26
REMARK                            x       y       z     vdW  Elec       q    Type
REMARK                         _______ _______ _______ _____ _____    ______ ____
ROOT
ATOM      1  C   UNL     1       1.181   9.819  19.066  0.00  0.00    +0.000 A 
ATOM      2  C   UNL     1       0.837   9.490  20.374  0.00  0.00    +0.000 A 
ATOM      3  C   UNL     1       1.171   8.233  20.866  0.00  0.00    +0.000 A 
ATOM      4  C   UNL     1       1.933   7.354  20.085  0.00  0.00    +0.000 A 
ATOM      5  C   UNL     1       2.417   7.714  18.807  0.00  0.00    +0.000 A 
ATOM      6  C   UNL     1       2.019   8.978  18.320  0.00  0.00    +0.000 A 
ENDROOT
BRANCH   5   7
ATOM      7  C   UNL     1       3.258   6.822  17.962  0.00  0.00    +0.000 A 
ATOM      8  C   UNL     1       3.011   5.441  17.859  0.00  0.00    +0.000 A 
ATOM      9  C   UNL     1       3.809   4.599  17.074  0.00  0.00    +0.000 A 
ATOM     10  C   UNL     1       4.873   5.118  16.331  0.00  0.00    +0.000 A 
ATOM     11  C   UNL     1       5.125   6.494  16.402  0.00  0.00    +0.000 A 
ATOM     12  C   UNL     1       4.337   7.325  17.210  0.00  0.00    +0.000 A 
BRANCH  10  13
ATOM     13  C   UNL     1       5.726   4.227  15.464  0.00  0.00    +0.000 C 
ATOM     14  F   UNL     1       5.805   2.942  15.910  0.00  0.00    +0.000 F 
ATOM     15  F   UNL     1       5.263   4.148  14.185  0.00  0.00    +0.000 F 
ATOM     16  F   UNL     1       7.011   4.667  15.367  0.00  0.00    +0.000 F 
ENDBRANCH  10  13
ENDBRANCH   5   7
BRANCH   4  17
ATOM     17  O   UNL     1       2.196   6.112  20.602  0.00  0.00    +0.000 OA
ATOM     18  H   UNL     1       1.359   5.668  20.811  0.00  0.00    +0.000 HD
ENDBRANCH   4  17
BRANCH   1  19
ATOM     19  O   UNL     1       0.671  10.922  18.420  0.00  0.00    +0.000 OA
BRANCH  19  27
ATOM     20  C   UNL     1      -1.906   9.773  17.123  0.00  0.00    +0.000 C 
ATOM     21  C   UNL     1      -1.799  10.845  18.176  0.00  0.00    +0.000 A 
ATOM     22  C   UNL     1      -3.025  11.371  18.613  0.00  0.00    +0.000 A 
ATOM     23  C   UNL     1      -3.110  12.418  19.522  0.00  0.00    +0.000 A 
ATOM     24  C   UNL     1      -1.928  12.951  20.039  0.00  0.00    +0.000 A 
ATOM     25  C   UNL     1      -0.675  12.424  19.663  0.00  0.00    +0.000 A 
ATOM     26  C   UNL     1       0.580  13.026  20.244  0.00  0.00    +0.000 C 
ATOM     27  C   UNL     1      -0.610  11.351  18.742  0.00  0.00    +0.000 A 
BRANCH  23  28
ATOM     28  N   UNL     1      -4.347  12.965  19.913  0.00  0.00    +0.000 N 
ATOM     29  C   UNL     1      -4.926  12.855  21.166  0.00  0.00    +0.000 C 
ATOM     30  O   UNL     1      -4.516  12.317  22.187  0.00  0.00    +0.000 OA
ATOM     31  H   UNL     1      -4.889  13.476  19.218  0.00  0.00    +0.000 HD
BRANCH  29  32
ATOM     32  C   UNL     1      -6.298  13.516  21.291  0.00  0.00    +0.000 C 
ATOM     33  O   UNL     1      -6.684  14.039  22.329  0.00  0.00    +0.000 OA
BRANCH  32  34
ATOM     34  O   UNL     1      -6.972  13.440  20.135  0.00  0.00    +0.000 OA
ATOM     35  H   UNL     1      -6.742  14.234  19.593  0.00  0.00    +0.000 HD
ENDBRANCH  32  34
ENDBRANCH  29  32
ENDBRANCH  23  28
ENDBRANCH  19  27
ENDBRANCH   1  19
TORSDOF 8
ENDMDL
MODEL 2
REMARK VINA RESULT:      -8.5      0.277      1.224
REMARK  Name = 
REMARK  10 active torsions:
REMARK  status: ('A' for Active; 'I' for Inactive)
REMARK    1  A    between atoms: C_1  and  C_2
REMARK    2  A    between atoms: C_4  and  N_5
REMARK    3  A    between atoms: C_6  and  C_8
REMARK    4  A    between atoms: C_8  and  O_10
REMARK    5  A    between atoms: C_12  and  C_13
REMARK    6  A    between atoms: C_14  and  O_15
REMARK    7  A    between atoms: O_15  and  C_16
REMARK    8  A    between atoms: C_19  and  O_20
REMARK    9  A    between atoms: C_21  and  C_22
REMARK   10  A    between atoms: C_25  and  C_26
REMARK                            x       y       z     vdW  Elec       q    Type
REMARK                         _______ _______ _______ _____ _____    ______ ____
ROOT
ATOM      1  C   UNL     1       1.315   9.693  19.011  0.00  0.00    +0.000 A 
ATOM      2  C   UNL     1       0.944   9.332  20.303  0.00  0.00    +0.000 A 
ATOM      3  C   UNL     1       1.264   8.060  20.768  0.00  0.00    +0.000 A 
ATOM      4  C   UNL     1       2.038   7.200  19.980  0.00  0.00    +0.000 A 
ATOM      5  C   UNL     1       2.548   7.590  18.722  0.00  0.00    +0.000 A 
ATOM      6  C   UNL     1       2.165   8.868  18.260  0.00  0.00    +0.000 A 
ENDROOT
BRANCH   5   7
ATOM      7  C   UNL     1       3.404   6.717  17.870  0.00  0.00    +0.000 A 
ATOM      8  C   UNL     1       4.463   7.233  17.102  0.00  0.00    +0.000 A 
ATOM      9  C   UNL     1       5.261   6.415  16.292  0.00  0.00    +0.000 A 
ATOM     10  C   UNL     1       5.047   5.035  16.246  0.00  0.00    +0.000 A 
ATOM     11  C   UNL     1       4.010   4.497  17.018  0.00  0.00    +0.000 A 
ATOM     12  C   UNL     1       3.200   5.326  17.807  0.00  0.00    +0.000 A 
BRANCH  10  13
ATOM     13  C   UNL     1       5.912   4.139  15.396  0.00  0.00    +0.000 C 
ATOM     14  F   UNL     1       7.240   4.436  15.463  0.00  0.00    +0.000 F 
ATOM     15  F   UNL     1       5.807   2.827  15.748  0.00  0.00    +0.000 F 
ATOM     16  F   UNL     1       5.586   4.197  14.075  0.00  0.00    +0.000 F 
ENDBRANCH  10  13
ENDBRANCH   5   7
BRANCH   4  17
ATOM     17  O   UNL     1       2.287   5.943  20.469  0.00  0.00    +0.000 OA
ATOM     18  H   UNL     1       3.130   5.947  20.950  0.00  0.00    +0.000 HD
ENDBRANCH   4  17
BRANCH   1  19
ATOM     19  O   UNL     1       0.822  10.815  18.385  0.00  0.00    +0.000 OA
BRANCH  19  27
ATOM     20  C   UNL     1      -1.807   9.790  17.087  0.00  0.00    +0.000 C 
ATOM     21  C   UNL     1      -1.652  10.826  18.170  0.00  0.00    +0.000 A 
ATOM     22  C   UNL     1      -2.854  11.377  18.639  0.00  0.00    +0.000 A 
ATOM     23  C   UNL     1      -2.894  12.399  19.581  0.00  0.00    +0.000 A 
ATOM     24  C   UNL     1      -1.689  12.876  20.098  0.00  0.00    +0.000 A 
ATOM     25  C   UNL     1      -0.458  12.321  19.689  0.00  0.00    +0.000 A 
ATOM     26  C   UNL     1       0.823  12.864  20.272  0.00  0.00    +0.000 C 
ATOM     27  C   UNL     1      -0.440  11.275  18.736  0.00  0.00    +0.000 A 
BRANCH  23  28
ATOM     28  N   UNL     1      -4.107  12.974  20.005  0.00  0.00    +0.000 N 
ATOM     29  C   UNL     1      -4.658  12.870  21.270  0.00  0.00    +0.000 C 
ATOM     30  O   UNL     1      -4.237  12.318  22.278  0.00  0.00    +0.000 OA
ATOM     31  H   UNL     1      -4.653  13.501  19.325  0.00  0.00    +0.000 HD
BRANCH  29  32
ATOM     32  C   UNL     1      -6.010  13.564  21.432  0.00  0.00    +0.000 C 
ATOM     33  O   UNL     1      -6.933  13.399  20.644  0.00  0.00    +0.000 OA
BRANCH  32  34
ATOM     34  O   UNL     1      -6.021  14.338  22.527  0.00  0.00    +0.000 OA
ATOM     35  H   UNL     1      -5.095  14.404  22.867  0.00  0.00    +0.000 HD
ENDBRANCH  32  34
ENDBRANCH  29  32
ENDBRANCH  23  28
ENDBRANCH  19  27
ENDBRANCH   1  19
TORSDOF 8
ENDMDL
MODEL 3
REMARK VINA RESULT:      -8.5      0.875      1.916
REMARK  Name = 
REMARK  10 active torsions:
REMARK  status: ('A' for Active; 'I' for Inactive)
REMARK    1  A    between atoms: C_1  and  C_2
REMARK    2  A    between atoms: C_4  and  N_5
REMARK    3  A    between atoms: C_6  and  C_8
REMARK    4  A    between atoms: C_8  and  O_10
REMARK    5  A    between atoms: C_12  and  C_13
REMARK    6  A    between atoms: C_14  and  O_15
REMARK    7  A    between atoms: O_15  and  C_16
REMARK    8  A    between atoms: C_19  and  O_20
REMARK    9  A    between atoms: C_21  and  C_22
REMARK   10  A    between atoms: C_25  and  C_26
REMARK                            x       y       z     vdW  Elec       q    Type
REMARK                         _______ _______ _______ _____ _____    ______ ____
ROOT
ATOM      1  C   UNL     1       1.164   9.536  18.893  0.00  0.00    +0.000 A 
ATOM      2  C   UNL     1       0.891   9.243  20.226  0.00  0.00    +0.000 A 
ATOM      3  C   UNL     1       1.339   8.039  20.759  0.00  0.00    +0.000 A 
ATOM      4  C   UNL     1       2.140   7.186  19.990  0.00  0.00    +0.000 A 
ATOM      5  C   UNL     1       2.551   7.522  18.680  0.00  0.00    +0.000 A 
ATOM      6  C   UNL     1       2.039   8.728  18.154  0.00  0.00    +0.000 A 
ENDROOT
BRANCH   5   7
ATOM      7  C   UNL     1       3.431   6.659  17.844  0.00  0.00    +0.000 A 
ATOM      8  C   UNL     1       3.235   5.270  17.744  0.00  0.00    +0.000 A 
ATOM      9  C   UNL     1       4.068   4.455  16.967  0.00  0.00    +0.000 A 
ATOM     10  C   UNL     1       5.117   5.010  16.230  0.00  0.00    +0.000 A 
ATOM     11  C   UNL     1       5.320   6.394  16.299  0.00  0.00    +0.000 A 
ATOM     12  C   UNL     1       4.496   7.199  17.099  0.00  0.00    +0.000 A 
BRANCH  10  13
ATOM     13  C   UNL     1       6.009   4.148  15.372  0.00  0.00    +0.000 C 
ATOM     14  F   UNL     1       7.336   4.426  15.510  0.00  0.00    +0.000 F 
ATOM     15  F   UNL     1       5.876   2.822  15.653  0.00  0.00    +0.000 F 
ATOM     16  F   UNL     1       5.739   4.276  14.043  0.00  0.00    +0.000 F 
ENDBRANCH  10  13
ENDBRANCH   5   7
BRANCH   4  17
ATOM     17  O   UNL     1       2.516   5.993  20.550  0.00  0.00    +0.000 OA
ATOM     18  H   UNL     1       3.185   6.156  21.234  0.00  0.00    +0.000 HD
ENDBRANCH   4  17
BRANCH   1  19
ATOM     19  O   UNL     1       0.549  10.566  18.220  0.00  0.00    +0.000 OA
BRANCH  19  27
ATOM     20  C   UNL     1       1.389  12.731  20.283  0.00  0.00    +0.000 C 
ATOM     21  C   UNL     1      -0.005  12.362  19.843  0.00  0.00    +0.000 A 
ATOM     22  C   UNL     1      -1.032  13.104  20.448  0.00  0.00    +0.000 A 
ATOM     23  C   UNL     1      -2.378  12.846  20.217  0.00  0.00    +0.000 A 
ATOM     24  C   UNL     1      -2.719  11.825  19.329  0.00  0.00    +0.000 A 
ATOM     25  C   UNL     1      -1.720  11.084  18.664  0.00  0.00    +0.000 A 
ATOM     26  C   UNL     1      -2.129   9.988  17.711  0.00  0.00    +0.000 C 
ATOM     27  C   UNL     1      -0.355  11.368  18.906  0.00  0.00    +0.000 A 
BRANCH  23  28
ATOM     28  N   UNL     1      -3.396  13.568  20.868  0.00  0.00    +0.000 N 
ATOM     29  C   UNL     1      -4.036  13.197  22.038  0.00  0.00    +0.000 C 
ATOM     30  O   UNL     1      -3.862  12.229  22.767  0.00  0.00    +0.000 OA
ATOM     31  H   UNL     1      -3.718  14.436  20.443  0.00  0.00    +0.000 HD
BRANCH  29  32
ATOM     32  C   UNL     1      -5.134  14.158  22.492  0.00  0.00    +0.000 C 
ATOM     33  O   UNL     1      -5.423  15.170  21.867  0.00  0.00    +0.000 OA
BRANCH  32  34
ATOM     34  O   UNL     1      -5.706  13.728  23.626  0.00  0.00    +0.000 OA
ATOM     35  H   UNL     1      -4.990  13.560  24.287  0.00  0.00    +0.000 HD
ENDBRANCH  32  34
ENDBRANCH  29  32
ENDBRANCH  23  28
ENDBRANCH  19  27
ENDBRANCH   1  19
TORSDOF 8
ENDMDL
MODEL 4
REMARK VINA RESULT:      -8.4      0.399      1.593
REMARK  Name = 
REMARK  10 active torsions:
REMARK  status: ('A' for Active; 'I' for Inactive)
REMARK    1  A    between atoms: C_1  and  C_2
REMARK    2  A    between atoms: C_4  and  N_5
REMARK    3  A    between atoms: C_6  and  C_8
REMARK    4  A    between atoms: C_8  and  O_10
REMARK    5  A    between atoms: C_12  and  C_13
REMARK    6  A    between atoms: C_14  and  O_15
REMARK    7  A    between atoms: O_15  and  C_16
REMARK    8  A    between atoms: C_19  and  O_20
REMARK    9  A    between atoms: C_21  and  C_22
REMARK   10  A    between atoms: C_25  and  C_26
REMARK                            x       y       z     vdW  Elec       q    Type
REMARK                         _______ _______ _______ _____ _____    ______ ____
ROOT
ATOM      1  C   UNL     1       1.149   9.667  18.865  0.00  0.00    +0.000 A 
ATOM      2  C   UNL     1       0.795   9.361  20.177  0.00  0.00    +0.000 A 
ATOM      3  C   UNL     1       1.187   8.141  20.716  0.00  0.00    +0.000 A 
ATOM      4  C   UNL     1       2.013   7.282  19.981  0.00  0.00    +0.000 A 
ATOM      5  C   UNL     1       2.504   7.626  18.701  0.00  0.00    +0.000 A 
ATOM      6  C   UNL     1       2.048   8.850  18.165  0.00  0.00    +0.000 A 
ENDROOT
BRANCH   5   7
ATOM      7  C   UNL     1       3.412   6.756  17.903  0.00  0.00    +0.000 A 
ATOM      8  C   UNL     1       3.270   5.357  17.876  0.00  0.00    +0.000 A 
ATOM      9  C   UNL     1       4.130   4.537  17.135  0.00  0.00    +0.000 A 
ATOM     10  C   UNL     1       5.152   5.094  16.362  0.00  0.00    +0.000 A 
ATOM     11  C   UNL     1       5.300   6.486  16.358  0.00  0.00    +0.000 A 
ATOM     12  C   UNL     1       4.450   7.298  17.122  0.00  0.00    +0.000 A 
BRANCH  10  13
ATOM     13  C   UNL     1       6.072   4.224  15.542  0.00  0.00    +0.000 C 
ATOM     14  F   UNL     1       5.769   2.897  15.603  0.00  0.00    +0.000 F 
ATOM     15  F   UNL     1       6.051   4.548  14.219  0.00  0.00    +0.000 F 
ATOM     16  F   UNL     1       7.373   4.327  15.930  0.00  0.00    +0.000 F 
ENDBRANCH  10  13
ENDBRANCH   5   7
BRANCH   4  17
ATOM     17  O   UNL     1       2.332   6.073  20.543  0.00  0.00    +0.000 OA
ATOM     18  H   UNL     1       1.739   5.901  21.291  0.00  0.00    +0.000 HD
ENDBRANCH   4  17
BRANCH   1  19
ATOM     19  O   UNL     1       0.594  10.719  18.174  0.00  0.00    +0.000 OA
BRANCH  19  27
ATOM     20  C   UNL     1       0.623  12.801  20.479  0.00  0.00    +0.000 C 
ATOM     21  C   UNL     1      -0.568  12.275  19.722  0.00  0.00    +0.000 A 
ATOM     22  C   UNL     1      -1.804  12.809  20.118  0.00  0.00    +0.000 A 
ATOM     23  C   UNL     1      -3.012  12.382  19.580  0.00  0.00    +0.000 A 
ATOM     24  C   UNL     1      -2.991  11.400  18.588  0.00  0.00    +0.000 A 
ATOM     25  C   UNL     1      -1.770  10.867  18.127  0.00  0.00    +0.000 A 
ATOM     26  C   UNL     1      -1.788   9.809  17.053  0.00  0.00    +0.000 C 
ATOM     27  C   UNL     1      -0.549  11.323  18.681  0.00  0.00    +0.000 A 
BRANCH  23  28
ATOM     28  N   UNL     1      -4.247  12.894  20.024  0.00  0.00    +0.000 N 
ATOM     29  C   UNL     1      -4.751  12.803  21.310  0.00  0.00    +0.000 C 
ATOM     30  O   UNL     1      -4.265  12.315  22.322  0.00  0.00    +0.000 OA
ATOM     31  H   UNL     1      -4.846  13.360  19.344  0.00  0.00    +0.000 HD
BRANCH  29  32
ATOM     32  C   UNL     1      -6.140  13.415  21.491  0.00  0.00    +0.000 C 
ATOM     33  O   UNL     1      -6.896  13.075  22.393  0.00  0.00    +0.000 OA
BRANCH  32  34
ATOM     34  O   UNL     1      -6.378  14.343  20.554  0.00  0.00    +0.000 OA
ATOM     35  H   UNL     1      -7.193  14.078  20.059  0.00  0.00    +0.000 HD
ENDBRANCH  32  34
ENDBRANCH  29  32
ENDBRANCH  23  28
ENDBRANCH  19  27
ENDBRANCH   1  19
TORSDOF 8
ENDMDL
MODEL 5
REMARK VINA RESULT:      -8.4      0.566      1.046
REMARK  Name = 
REMARK  10 active torsions:
REMARK  status: ('A' for Active; 'I' for Inactive)
REMARK    1  A    between atoms: C_1  and  C_2
REMARK    2  A    between atoms: C_4  and  N_5
REMARK    3  A    between atoms: C_6  and  C_8
REMARK    4  A    between atoms: C_8  and  O_10
REMARK    5  A    between atoms: C_12  and  C_13
REMARK    6  A    between atoms: C_14  and  O_15
REMARK    7  A    between atoms: O_15  and  C_16
REMARK    8  A    between atoms: C_19  and  O_20
REMARK    9  A    between atoms: C_21  and  C_22
REMARK   10  A    between atoms: C_25  and  C_26
REMARK                            x       y       z     vdW  Elec       q    Type
REMARK                         _______ _______ _______ _____ _____    ______ ____
ROOT
ATOM      1  C   UNL     1       1.243   9.674  18.849  0.00  0.00    +0.000 A 
ATOM      2  C   UNL     1       0.885   9.363  20.158  0.00  0.00    +0.000 A 
ATOM      3  C   UNL     1       1.266   8.136  20.690  0.00  0.00    +0.000 A 
ATOM      4  C   UNL     1       2.085   7.275  19.950  0.00  0.00    +0.000 A 
ATOM      5  C   UNL     1       2.581   7.624  18.674  0.00  0.00    +0.000 A 
ATOM      6  C   UNL     1       2.136   8.855  18.145  0.00  0.00    +0.000 A 
ENDROOT
BRANCH   5   7
ATOM      7  C   UNL     1       3.483   6.751  17.872  0.00  0.00    +0.000 A 
ATOM      8  C   UNL     1       3.266   5.367  17.750  0.00  0.00    +0.000 A 
ATOM      9  C   UNL     1       4.120   4.543  17.005  0.00  0.00    +0.000 A 
ATOM     10  C   UNL     1       5.213   5.085  16.323  0.00  0.00    +0.000 A 
ATOM     11  C   UNL     1       5.437   6.464  16.414  0.00  0.00    +0.000 A 
ATOM     12  C   UNL     1       4.592   7.277  17.182  0.00  0.00    +0.000 A 
BRANCH  10  13
ATOM     13  C   UNL     1       6.128   4.213  15.499  0.00  0.00    +0.000 C 
ATOM     14  F   UNL     1       6.162   4.549  14.179  0.00  0.00    +0.000 F 
ATOM     15  F   UNL     1       7.419   4.264  15.929  0.00  0.00    +0.000 F 
ATOM     16  F   UNL     1       5.774   2.899  15.539  0.00  0.00    +0.000 F 
ENDBRANCH  10  13
ENDBRANCH   5   7
BRANCH   4  17
ATOM     17  O   UNL     1       2.394   6.060  20.506  0.00  0.00    +0.000 OA
ATOM     18  H   UNL     1       3.177   5.696  20.064  0.00  0.00    +0.000 HD
ENDBRANCH   4  17
BRANCH   1  19
ATOM     19  O   UNL     1       0.697  10.735  18.163  0.00  0.00    +0.000 OA
BRANCH  19  27
ATOM     20  C   UNL     1      -2.148   9.743  17.410  0.00  0.00    +0.000 C 
ATOM     21  C   UNL     1      -1.776  10.881  18.327  0.00  0.00    +0.000 A 
ATOM     22  C   UNL     1      -2.863  11.556  18.903  0.00  0.00    +0.000 A 
ATOM     23  C   UNL     1      -2.707  12.675  19.711  0.00  0.00    +0.000 A 
ATOM     24  C   UNL     1      -1.415  13.130  19.979  0.00  0.00    +0.000 A 
ATOM     25  C   UNL     1      -0.291  12.456  19.458  0.00  0.00    +0.000 A 
ATOM     26  C   UNL     1       1.090  12.976  19.771  0.00  0.00    +0.000 C 
ATOM     27  C   UNL     1      -0.471  11.311  18.644  0.00  0.00    +0.000 A 
BRANCH  23  28
ATOM     28  N   UNL     1      -3.810  13.370  20.242  0.00  0.00    +0.000 N 
ATOM     29  C   UNL     1      -4.441  13.098  21.444  0.00  0.00    +0.000 C 
ATOM     30  O   UNL     1      -4.190  12.262  22.303  0.00  0.00    +0.000 OA
ATOM     31  H   UNL     1      -4.207  14.133  19.696  0.00  0.00    +0.000 HD
BRANCH  29  32
ATOM     32  C   UNL     1      -5.643  13.992  21.747  0.00  0.00    +0.000 C 
ATOM     33  O   UNL     1      -6.162  14.706  20.898  0.00  0.00    +0.000 OA
BRANCH  32  34
ATOM     34  O   UNL     1      -6.022  13.866  23.026  0.00  0.00    +0.000 OA
ATOM     35  H   UNL     1      -5.882  14.736  23.475  0.00  0.00    +0.000 HD
ENDBRANCH  32  34
ENDBRANCH  29  32
ENDBRANCH  23  28
ENDBRANCH  19  27
ENDBRANCH   1  19
TORSDOF 8
ENDMDL
MODEL 6
REMARK VINA RESULT:      -8.3      0.385      1.933
REMARK  Name = 
REMARK  10 active torsions:
REMARK  status: ('A' for Active; 'I' for Inactive)
REMARK    1  A    between atoms: C_1  and  C_2
REMARK    2  A    between atoms: C_4  and  N_5
REMARK    3  A    between atoms: C_6  and  C_8
REMARK    4  A    between atoms: C_8  and  O_10
REMARK    5  A    between atoms: C_12  and  C_13
REMARK    6  A    between atoms: C_14  and  O_15
REMARK    7  A    between atoms: O_15  and  C_16
REMARK    8  A    between atoms: C_19  and  O_20
REMARK    9  A    between atoms: C_21  and  C_22
REMARK   10  A    between atoms: C_25  and  C_26
REMARK                            x       y       z     vdW  Elec       q    Type
REMARK                         _______ _______ _______ _____ _____    ______ ____
ROOT
ATOM      1  C   UNL     1       0.908   9.864  19.047  0.00  0.00    +0.000 A 
ATOM      2  C   UNL     1       0.590   9.582  20.373  0.00  0.00    +0.000 A 
ATOM      3  C   UNL     1       0.996   8.371  20.923  0.00  0.00    +0.000 A 
ATOM      4  C   UNL     1       1.803   7.500  20.181  0.00  0.00    +0.000 A 
ATOM      5  C   UNL     1       2.259   7.822  18.883  0.00  0.00    +0.000 A 
ATOM      6  C   UNL     1       1.788   9.036  18.337  0.00  0.00    +0.000 A 
ENDROOT
BRANCH   5   7
ATOM      7  C   UNL     1       3.146   6.938  18.076  0.00  0.00    +0.000 A 
ATOM      8  C   UNL     1       4.173   7.452  17.265  0.00  0.00    +0.000 A 
ATOM      9  C   UNL     1       5.001   6.623  16.498  0.00  0.00    +0.000 A 
ATOM     10  C   UNL     1       4.850   5.235  16.539  0.00  0.00    +0.000 A 
ATOM     11  C   UNL     1       3.846   4.698  17.354  0.00  0.00    +0.000 A 
ATOM     12  C   UNL     1       3.006   5.537  18.100  0.00  0.00    +0.000 A 
BRANCH  10  13
ATOM     13  C   UNL     1       5.747   4.328  15.734  0.00  0.00    +0.000 C 
ATOM     14  F   UNL     1       5.648   4.513  14.388  0.00  0.00    +0.000 F 
ATOM     15  F   UNL     1       7.065   4.501  16.036  0.00  0.00    +0.000 F 
ATOM     16  F   UNL     1       5.487   3.009  15.948  0.00  0.00    +0.000 F 
ENDBRANCH  10  13
ENDBRANCH   5   7
BRANCH   4  17
ATOM     17  O   UNL     1       2.138   6.301  20.756  0.00  0.00    +0.000 OA
ATOM     18  H   UNL     1       2.039   6.369  21.719  0.00  0.00    +0.000 HD
ENDBRANCH   4  17
BRANCH   1  19
ATOM     19  O   UNL     1       0.334  10.904  18.352  0.00  0.00    +0.000 OA
BRANCH  19  27
ATOM     20  C   UNL     1       0.087  12.956  20.671  0.00  0.00    +0.000 C 
ATOM     21  C   UNL     1      -1.020  12.356  19.844  0.00  0.00    +0.000 A 
ATOM     22  C   UNL     1      -2.311  12.796  20.175  0.00  0.00    +0.000 A 
ATOM     23  C   UNL     1      -3.454  12.290  19.568  0.00  0.00    +0.000 A 
ATOM     24  C   UNL     1      -3.309  11.324  18.571  0.00  0.00    +0.000 A 
ATOM     25  C   UNL     1      -2.028  10.885  18.175  0.00  0.00    +0.000 A 
ATOM     26  C   UNL     1      -1.912   9.840  17.093  0.00  0.00    +0.000 C 
ATOM     27  C   UNL     1      -0.876  11.419  18.800  0.00  0.00    +0.000 A 
BRANCH  23  28
ATOM     28  N   UNL     1      -4.745  12.708  19.946  0.00  0.00    +0.000 N 
ATOM     29  C   UNL     1      -5.268  12.677  21.227  0.00  0.00    +0.000 C 
ATOM     30  O   UNL     1      -4.758  12.333  22.286  0.00  0.00    +0.000 OA
ATOM     31  H   UNL     1      -5.372  13.049  19.219  0.00  0.00    +0.000 HD
BRANCH  29  32
ATOM     32  C   UNL     1      -6.715  13.156  21.333  0.00  0.00    +0.000 C 
ATOM     33  O   UNL     1      -7.112  13.851  22.260  0.00  0.00    +0.000 OA
BRANCH  32  34
ATOM     34  O   UNL     1      -7.440  12.718  20.294  0.00  0.00    +0.000 OA
ATOM     35  H   UNL     1      -8.336  13.132  20.348  0.00  0.00    +0.000 HD
ENDBRANCH  32  34
ENDBRANCH  29  32
ENDBRANCH  23  28
ENDBRANCH  19  27
ENDBRANCH   1  19
TORSDOF 8
ENDMDL
MODEL 7
REMARK VINA RESULT:      -8.2      1.015      2.011
REMARK  Name = 
REMARK  10 active torsions:
REMARK  status: ('A' for Active; 'I' for Inactive)
REMARK    1  A    between atoms: C_1  and  C_2
REMARK    2  A    between atoms: C_4  and  N_5
REMARK    3  A    between atoms: C_6  and  C_8
REMARK    4  A    between atoms: C_8  and  O_10
REMARK    5  A    between atoms: C_12  and  C_13
REMARK    6  A    between atoms: C_14  and  O_15
REMARK    7  A    between atoms: O_15  and  C_16
REMARK    8  A    between atoms: C_19  and  O_20
REMARK    9  A    between atoms: C_21  and  C_22
REMARK   10  A    between atoms: C_25  and  C_26
REMARK                            x       y       z     vdW  Elec       q    Type
REMARK                         _______ _______ _______ _____ _____    ______ ____
ROOT
ATOM      1  C   UNL     1       1.045   9.512  18.816  0.00  0.00    +0.000 A 
ATOM      2  C   UNL     1       0.811   9.258  20.165  0.00  0.00    +0.000 A 
ATOM      3  C   UNL     1       1.321   8.095  20.732  0.00  0.00    +0.000 A 
ATOM      4  C   UNL     1       2.142   7.249  19.977  0.00  0.00    +0.000 A 
ATOM      5  C   UNL     1       2.512   7.552  18.648  0.00  0.00    +0.000 A 
ATOM      6  C   UNL     1       1.939   8.715  18.089  0.00  0.00    +0.000 A 
ENDROOT
BRANCH   5   7
ATOM      7  C   UNL     1       3.412   6.697  17.825  0.00  0.00    +0.000 A 
ATOM      8  C   UNL     1       4.510   7.227  17.124  0.00  0.00    +0.000 A 
ATOM      9  C   UNL     1       5.350   6.426  16.341  0.00  0.00    +0.000 A 
ATOM     10  C   UNL     1       5.139   5.047  16.256  0.00  0.00    +0.000 A 
ATOM     11  C   UNL     1       4.063   4.493  16.960  0.00  0.00    +0.000 A 
ATOM     12  C   UNL     1       3.213   5.306  17.722  0.00  0.00    +0.000 A 
BRANCH  10  13
ATOM     13  C   UNL     1       6.048   4.168  15.434  0.00  0.00    +0.000 C 
ATOM     14  F   UNL     1       5.874   2.836  15.659  0.00  0.00    +0.000 F 
ATOM     15  F   UNL     1       5.870   4.344  14.094  0.00  0.00    +0.000 F 
ATOM     16  F   UNL     1       7.367   4.415  15.668  0.00  0.00    +0.000 F 
ENDBRANCH  10  13
ENDBRANCH   5   7
BRANCH   4  17
ATOM     17  O   UNL     1       2.581   6.094  20.572  0.00  0.00    +0.000 OA
ATOM     18  H   UNL     1       2.203   5.331  20.107  0.00  0.00    +0.000 HD
ENDBRANCH   4  17
BRANCH   1  19
ATOM     19  O   UNL     1       0.372  10.490  18.119  0.00  0.00    +0.000 OA
BRANCH  19  27
ATOM     20  C   UNL     1       1.490  12.765  19.915  0.00  0.00    +0.000 C 
ATOM     21  C   UNL     1       0.047  12.427  19.640  0.00  0.00    +0.000 A 
ATOM     22  C   UNL     1      -0.888  13.256  20.278  0.00  0.00    +0.000 A 
ATOM     23  C   UNL     1      -2.258  13.042  20.197  0.00  0.00    +0.000 A 
ATOM     24  C   UNL     1      -2.722  11.973  19.429  0.00  0.00    +0.000 A 
ATOM     25  C   UNL     1      -1.821  11.140  18.734  0.00  0.00    +0.000 A 
ATOM     26  C   UNL     1      -2.362   9.995  17.914  0.00  0.00    +0.000 C 
ATOM     27  C   UNL     1      -0.429  11.380  18.822  0.00  0.00    +0.000 A 
BRANCH  23  28
ATOM     28  N   UNL     1      -3.180  13.856  20.882  0.00  0.00    +0.000 N 
ATOM     29  C   UNL     1      -3.811  13.546  22.075  0.00  0.00    +0.000 C 
ATOM     30  O   UNL     1      -3.704  12.564  22.799  0.00  0.00    +0.000 OA
ATOM     31  H   UNL     1      -3.434  14.751  20.466  0.00  0.00    +0.000 HD
BRANCH  29  32
ATOM     32  C   UNL     1      -4.797  14.605  22.565  0.00  0.00    +0.000 C 
ATOM     33  O   UNL     1      -5.259  14.599  23.700  0.00  0.00    +0.000 OA
BRANCH  32  34
ATOM     34  O   UNL     1      -5.055  15.500  21.602  0.00  0.00    +0.000 OA
ATOM     35  H   UNL     1      -5.115  15.017  20.741  0.00  0.00    +0.000 HD
ENDBRANCH  32  34
ENDBRANCH  29  32
ENDBRANCH  23  28
ENDBRANCH  19  27
ENDBRANCH   1  19
TORSDOF 8
ENDMDL
MODEL 8
REMARK VINA RESULT:      -8.2      0.780      1.139
REMARK  Name = 
REMARK  10 active torsions:
REMARK  status: ('A' for Active; 'I' for Inactive)
REMARK    1  A    between atoms: C_1  and  C_2
REMARK    2  A    between atoms: C_4  and  N_5
REMARK    3  A    between atoms: C_6  and  C_8
REMARK    4  A    between atoms: C_8  and  O_10
REMARK    5  A    between atoms: C_12  and  C_13
REMARK    6  A    between atoms: C_14  and  O_15
REMARK    7  A    between atoms: O_15  and  C_16
REMARK    8  A    between atoms: C_19  and  O_20
REMARK    9  A    between atoms: C_21  and  C_22
REMARK   10  A    between atoms: C_25  and  C_26
REMARK                            x       y       z     vdW  Elec       q    Type
REMARK                         _______ _______ _______ _____ _____    ______ ____
ROOT
ATOM      1  C   UNL     1       1.266   9.730  19.046  0.00  0.00    +0.000 A 
ATOM      2  C   UNL     1       0.900   9.382  20.343  0.00  0.00    +0.000 A 
ATOM      3  C   UNL     1       1.215   8.113  20.818  0.00  0.00    +0.000 A 
ATOM      4  C   UNL     1       1.979   7.241  20.033  0.00  0.00    +0.000 A 
ATOM      5  C   UNL     1       2.484   7.617  18.768  0.00  0.00    +0.000 A 
ATOM      6  C   UNL     1       2.106   8.894  18.298  0.00  0.00    +0.000 A 
ENDROOT
BRANCH   5   7
ATOM      7  C   UNL     1       3.329   6.732  17.920  0.00  0.00    +0.000 A 
ATOM      8  C   UNL     1       3.097   5.348  17.824  0.00  0.00    +0.000 A 
ATOM      9  C   UNL     1       3.898   4.512  17.035  0.00  0.00    +0.000 A 
ATOM     10  C   UNL     1       4.950   5.041  16.282  0.00  0.00    +0.000 A 
ATOM     11  C   UNL     1       5.187   6.419  16.346  0.00  0.00    +0.000 A 
ATOM     12  C   UNL     1       4.397   7.244  17.157  0.00  0.00    +0.000 A 
BRANCH  10  13
ATOM     13  C   UNL     1       5.806   4.156  15.411  0.00  0.00    +0.000 C 
ATOM     14  F   UNL     1       5.407   4.116  14.110  0.00  0.00    +0.000 F 
ATOM     15  F   UNL     1       7.109   4.555  15.387  0.00  0.00    +0.000 F 
ATOM     16  F   UNL     1       5.822   2.862  15.835  0.00  0.00    +0.000 F 
ENDBRANCH  10  13
ENDBRANCH   5   7
BRANCH   4  17
ATOM     17  O   UNL     1       2.222   5.987  20.531  0.00  0.00    +0.000 OA
ATOM     18  H   UNL     1       3.067   5.990  21.007  0.00  0.00    +0.000 HD
ENDBRANCH   4  17
BRANCH   1  19
ATOM     19  O   UNL     1       0.777  10.850  18.413  0.00  0.00    +0.000 OA
BRANCH  19  27
ATOM     20  C   UNL     1      -1.697   9.657  16.963  0.00  0.00    +0.000 C 
ATOM     21  C   UNL     1      -1.674  10.718  18.033  0.00  0.00    +0.000 A 
ATOM     22  C   UNL     1      -2.934  11.209  18.408  0.00  0.00    +0.000 A 
ATOM     23  C   UNL     1      -3.094  12.242  19.324  0.00  0.00    +0.000 A 
ATOM     24  C   UNL     1      -1.955  12.795  19.911  0.00  0.00    +0.000 A 
ATOM     25  C   UNL     1      -0.671  12.303  19.598  0.00  0.00    +0.000 A 
ATOM     26  C   UNL     1       0.536  12.927  20.254  0.00  0.00    +0.000 C 
ATOM     27  C   UNL     1      -0.530  11.244  18.669  0.00  0.00    +0.000 A 
BRANCH  23  28
ATOM     28  N   UNL     1      -4.363  12.754  19.653  0.00  0.00    +0.000 N 
ATOM     29  C   UNL     1      -5.580  12.149  19.387  0.00  0.00    +0.000 C 
ATOM     30  O   UNL     1      -5.834  11.072  18.863  0.00  0.00    +0.000 OA
ATOM     31  H   UNL     1      -4.411  13.662  20.113  0.00  0.00    +0.000 HD
BRANCH  29  32
ATOM     32  C   UNL     1      -6.800  12.959  19.824  0.00  0.00    +0.000 C 
ATOM     33  O   UNL     1      -6.796  13.668  20.822  0.00  0.00    +0.000 OA
BRANCH  32  34
ATOM     34  O   UNL     1      -7.820  12.780  18.973  0.00  0.00    +0.000 OA
ATOM     35  H   UNL     1      -8.657  13.021  19.442  0.00  0.00    +0.000 HD
ENDBRANCH  32  34
ENDBRANCH  29  32
ENDBRANCH  23  28
ENDBRANCH  19  27
ENDBRANCH   1  19
TORSDOF 8
ENDMDL
MODEL 9
REMARK VINA RESULT:      -8.0      6.035      9.963
REMARK  Name = 
REMARK  10 active torsions:
REMARK  status: ('A' for Active; 'I' for Inactive)
REMARK    1  A    between atoms: C_1  and  C_2
REMARK    2  A    between atoms: C_4  and  N_5
REMARK    3  A    between atoms: C_6  and  C_8
REMARK    4  A    between atoms: C_8  and  O_10
REMARK    5  A    between atoms: C_12  and  C_13
REMARK    6  A    between atoms: C_14  and  O_15
REMARK    7  A    between atoms: O_15  and  C_16
REMARK    8  A    between atoms: C_19  and  O_20
REMARK    9  A    between atoms: C_21  and  C_22
REMARK   10  A    between atoms: C_25  and  C_26
REMARK                            x       y       z     vdW  Elec       q    Type
REMARK                         _______ _______ _______ _____ _____    ______ ____
ROOT
ATOM      1  C   UNL     1       4.945   4.319  18.943  0.00  0.00    +0.000 A 
ATOM      2  C   UNL     1       4.370   3.108  19.318  0.00  0.00    +0.000 A 
ATOM      3  C   UNL     1       3.148   3.117  19.982  0.00  0.00    +0.000 A 
ATOM      4  C   UNL     1       2.463   4.323  20.174  0.00  0.00    +0.000 A 
ATOM      5  C   UNL     1       2.955   5.552  19.680  0.00  0.00    +0.000 A 
ATOM      6  C   UNL     1       4.220   5.513  19.054  0.00  0.00    +0.000 A 
ENDROOT
BRANCH   5   7
ATOM      7  C   UNL     1       2.239   6.849  19.833  0.00  0.00    +0.000 A 
ATOM      8  C   UNL     1       2.163   7.786  18.787  0.00  0.00    +0.000 A 
ATOM      9  C   UNL     1       1.500   9.012  18.933  0.00  0.00    +0.000 A 
ATOM     10  C   UNL     1       0.857   9.333  20.131  0.00  0.00    +0.000 A 
ATOM     11  C   UNL     1       0.903   8.407  21.180  0.00  0.00    +0.000 A 
ATOM     12  C   UNL     1       1.589   7.193  21.034  0.00  0.00    +0.000 A 
BRANCH  10  13
ATOM     13  C   UNL     1       0.121  10.639  20.295  0.00  0.00    +0.000 C 
ATOM     14  F   UNL     1       0.938  11.700  20.544  0.00  0.00    +0.000 F 
ATOM     15  F   UNL     1      -0.595  10.975  19.186  0.00  0.00    +0.000 F 
ATOM     16  F   UNL     1      -0.774  10.610  21.321  0.00  0.00    +0.000 F 
ENDBRANCH  10  13
ENDBRANCH   5   7
BRANCH   4  17
ATOM     17  O   UNL     1       1.284   4.279  20.873  0.00  0.00    +0.000 OA
ATOM     18  H   UNL     1       1.277   3.492  21.440  0.00  0.00    +0.000 HD
ENDBRANCH   4  17
BRANCH   1  19
ATOM     19  O   UNL     1       6.251   4.420  18.522  0.00  0.00    +0.000 OA
BRANCH  19  27
ATOM     20  C   UNL     1       5.389   6.038  16.015  0.00  0.00    +0.000 C 
ATOM     21  C   UNL     1       6.380   6.436  17.078  0.00  0.00    +0.000 A 
ATOM     22  C   UNL     1       6.969   7.697  16.896  0.00  0.00    +0.000 A 
ATOM     23  C   UNL     1       7.959   8.190  17.737  0.00  0.00    +0.000 A 
ATOM     24  C   UNL     1       8.365   7.409  18.820  0.00  0.00    +0.000 A 
ATOM     25  C   UNL     1       7.770   6.154  19.067  0.00  0.00    +0.000 A 
ATOM     26  C   UNL     1       8.235   5.340  20.248  0.00  0.00    +0.000 C 
ATOM     27  C   UNL     1       6.756   5.674  18.204  0.00  0.00    +0.000 A 
BRANCH  23  28
ATOM     28  N   UNL     1       8.573   9.437  17.512  0.00  0.00    +0.000 N 
ATOM     29  C   UNL     1       9.051  10.296  18.487  0.00  0.00    +0.000 C 
ATOM     30  O   UNL     1       9.087  10.176  19.704  0.00  0.00    +0.000 OA
ATOM     31  H   UNL     1       8.664   9.763  16.551  0.00  0.00    +0.000 HD
BRANCH  29  32
ATOM     32  C   UNL     1       9.632  11.604  17.950  0.00  0.00    +0.000 C 
ATOM     33  O   UNL     1       8.931  12.564  17.656  0.00  0.00    +0.000 OA
BRANCH  32  34
ATOM     34  O   UNL     1      10.968  11.534  17.866  0.00  0.00    +0.000 OA
ATOM     35  H   UNL     1      11.312  11.174  18.721  0.00  0.00    +0.000 HD
ENDBRANCH  32  34
ENDBRANCH  29  32
ENDBRANCH  23  28
ENDBRANCH  19  27
ENDBRANCH   1  19
TORSDOF 8
ENDMDL
