MODEL 1
REMARK VINA RESULT:      -7.9      0.000      0.000
REMARK  Name = 
REMARK  7 active torsions:
REMARK  status: ('A' for Active; 'I' for Inactive)
REMARK    1  A    between atoms: C_1  and  C_2
REMARK    2  A    between atoms: C_2  and  O_3
REMARK    3  A    between atoms: O_3  and  C_4
REMARK    4  A    between atoms: C_9  and  N_10
REMARK    5  A    between atoms: C_14  and  S_15
REMARK    6  A    between atoms: S_15  and  C_16
REMARK    7  A    between atoms: C_21  and  N_22
REMARK                            x       y       z     vdW  Elec       q    Type
REMARK                         _______ _______ _______ _____ _____    ______ ____
ROOT
ATOM      1  N   UNL     1       2.947   4.911  18.392  0.00  0.00    +0.000 N 
ATOM      2  C   UNL     1       2.179   4.149  17.540  0.00  0.00    +0.000 C 
ATOM      3  O   UNL     1       1.068   4.381  17.078  0.00  0.00    +0.000 OA
ATOM      4  C   UNL     1       2.903   2.860  17.264  0.00  0.00    +0.000 C 
ATOM      5  C   UNL     1       4.337   3.172  17.637  0.00  0.00    +0.000 C 
ATOM      6  C   UNL     1       4.146   4.282  18.652  0.00  0.00    +0.000 C 
ATOM      7  O   UNL     1       4.930   4.483  19.571  0.00  0.00    +0.000 OA
ENDROOT
BRANCH   1  13
ATOM      8  C   UNL     1       1.961   6.121  20.369  0.00  0.00    +0.000 A 
ATOM      9  C   UNL     1       1.377   7.306  20.860  0.00  0.00    +0.000 A 
ATOM     10  C   UNL     1       1.353   8.476  20.106  0.00  0.00    +0.000 A 
ATOM     11  C   UNL     1       1.926   8.479  18.846  0.00  0.00    +0.000 A 
ATOM     12  C   UNL     1       2.484   7.303  18.333  0.00  0.00    +0.000 A 
ATOM     13  C   UNL     1       2.484   6.088  19.057  0.00  0.00    +0.000 A 
BRANCH   8  14
ATOM     14  O   UNL     1       1.933   5.129  21.315  0.00  0.00    +0.000 OA
BRANCH  14  16
ATOM     15  C   UNL     1       2.163   2.729  21.477  0.00  0.00    +0.000 C 
ATOM     16  C   UNL     1       1.310   3.889  20.999  0.00  0.00    +0.000 C 
ENDBRANCH  14  16
ENDBRANCH   8  14
ENDBRANCH   1  13
BRANCH   5  17
ATOM     17  S   UNL     1       5.346   3.799  16.229  0.00  0.00    +0.000 S 
BRANCH  17  18
ATOM     18  C   UNL     1       6.346   5.071  17.024  0.00  0.00    +0.000 A 
ATOM     19  C   UNL     1       7.302   4.723  17.986  0.00  0.00    +0.000 A 
ATOM     20  C   UNL     1       8.089   5.706  18.593  0.00  0.00    +0.000 A 
ATOM     21  C   UNL     1       7.923   7.043  18.246  0.00  0.00    +0.000 A 
ATOM     22  C   UNL     1       6.953   7.403  17.311  0.00  0.00    +0.000 A 
ATOM     23  C   UNL     1       6.163   6.431  16.683  0.00  0.00    +0.000 A 
BRANCH  23  24
ATOM     24  N   UNL     1       5.074   6.855  15.899  0.00  0.00    +0.000 N 
ATOM     25  H   UNL     1       5.252   7.676  15.331  0.00  0.00    +0.000 HD
ATOM     26  H   UNL     1       4.617   6.098  15.399  0.00  0.00    +0.000 HD
ENDBRANCH  23  24
ENDBRANCH  17  18
ENDBRANCH   5  17
TORSDOF 6
ENDMDL
MODEL 2
REMARK VINA RESULT:      -7.9      0.970      1.390
REMARK  Name = 
REMARK  7 active torsions:
REMARK  status: ('A' for Active; 'I' for Inactive)
REMARK    1  A    between atoms: C_1  and  C_2
REMARK    2  A    between atoms: C_2  and  O_3
REMARK    3  A    between atoms: O_3  and  C_4
REMARK    4  A    between atoms: C_9  and  N_10
REMARK    5  A    between atoms: C_14  and  S_15
REMARK    6  A    between atoms: S_15  and  C_16
REMARK    7  A    between atoms: C_21  and  N_22
REMARK                            x       y       z     vdW  Elec       q    Type
REMARK                         _______ _______ _______ _____ _____    ______ ____
ROOT
ATOM      1  N   UNL     1       3.049   4.928  18.376  0.00  0.00    +0.000 N 
ATOM      2  C   UNL     1       2.276   4.099  17.594  0.00  0.00    +0.000 C 
ATOM      3  O   UNL     1       1.129   4.257  17.190  0.00  0.00    +0.000 OA
ATOM      4  C   UNL     1       3.052   2.840  17.316  0.00  0.00    +0.000 C 
ATOM      5  C   UNL     1       4.485   3.239  17.595  0.00  0.00    +0.000 C 
ATOM      6  C   UNL     1       4.293   4.371  18.585  0.00  0.00    +0.000 C 
ATOM      7  O   UNL     1       5.116   4.644  19.450  0.00  0.00    +0.000 OA
ENDROOT
BRANCH   1  13
ATOM      8  C   UNL     1       2.045   6.136  20.344  0.00  0.00    +0.000 A 
ATOM      9  C   UNL     1       1.436   7.312  20.825  0.00  0.00    +0.000 A 
ATOM     10  C   UNL     1       1.379   8.473  20.058  0.00  0.00    +0.000 A 
ATOM     11  C   UNL     1       1.945   8.475  18.794  0.00  0.00    +0.000 A 
ATOM     12  C   UNL     1       2.528   7.307  18.292  0.00  0.00    +0.000 A 
ATOM     13  C   UNL     1       2.561   6.101  19.030  0.00  0.00    +0.000 A 
BRANCH   8  14
ATOM     14  O   UNL     1       2.045   5.155  21.302  0.00  0.00    +0.000 OA
BRANCH  14  16
ATOM     15  C   UNL     1       2.279   2.757  21.489  0.00  0.00    +0.000 C 
ATOM     16  C   UNL     1       1.415   3.911  21.018  0.00  0.00    +0.000 C 
ENDBRANCH  14  16
ENDBRANCH   8  14
ENDBRANCH   1  13
BRANCH   5  17
ATOM     17  S   UNL     1       5.379   3.870  16.112  0.00  0.00    +0.000 S 
BRANCH  17  18
ATOM     18  C   UNL     1       6.124   5.385  16.742  0.00  0.00    +0.000 A 
ATOM     19  C   UNL     1       5.556   6.631  16.448  0.00  0.00    +0.000 A 
ATOM     20  C   UNL     1       6.123   7.806  16.948  0.00  0.00    +0.000 A 
ATOM     21  C   UNL     1       7.264   7.745  17.741  0.00  0.00    +0.000 A 
ATOM     22  C   UNL     1       7.856   6.512  18.016  0.00  0.00    +0.000 A 
ATOM     23  C   UNL     1       7.294   5.322  17.534  0.00  0.00    +0.000 A 
BRANCH  23  24
ATOM     24  N   UNL     1       8.029   4.130  17.671  0.00  0.00    +0.000 N 
ATOM     25  H   UNL     1       7.502   3.344  18.037  0.00  0.00    +0.000 HD
ATOM     26  H   UNL     1       8.591   3.906  16.855  0.00  0.00    +0.000 HD
ENDBRANCH  23  24
ENDBRANCH  17  18
ENDBRANCH   5  17
TORSDOF 6
ENDMDL
MODEL 3
REMARK VINA RESULT:      -7.0      2.663      3.309
REMARK  Name = 
REMARK  7 active torsions:
REMARK  status: ('A' for Active; 'I' for Inactive)
REMARK    1  A    between atoms: C_1  and  C_2
REMARK    2  A    between atoms: C_2  and  O_3
REMARK    3  A    between atoms: O_3  and  C_4
REMARK    4  A    between atoms: C_9  and  N_10
REMARK    5  A    between atoms: C_14  and  S_15
REMARK    6  A    between atoms: S_15  and  C_16
REMARK    7  A    between atoms: C_21  and  N_22
REMARK                            x       y       z     vdW  Elec       q    Type
REMARK                         _______ _______ _______ _____ _____    ______ ____
ROOT
ATOM      1  N   UNL     1       4.318   4.928  18.196  0.00  0.00    +0.000 N 
ATOM      2  C   UNL     1       3.961   4.045  17.202  0.00  0.00    +0.000 C 
ATOM      3  O   UNL     1       2.845   3.697  16.834  0.00  0.00    +0.000 OA
ATOM      4  C   UNL     1       5.213   3.465  16.603  0.00  0.00    +0.000 C 
ATOM      5  C   UNL     1       6.289   4.450  17.009  0.00  0.00    +0.000 C 
ATOM      6  C   UNL     1       5.690   5.045  18.268  0.00  0.00    +0.000 C 
ATOM      7  O   UNL     1       6.373   5.472  19.191  0.00  0.00    +0.000 OA
ENDROOT
BRANCH   1  13
ATOM      8  C   UNL     1       2.751   4.765  20.162  0.00  0.00    +0.000 A 
ATOM      9  C   UNL     1       1.741   5.385  20.924  0.00  0.00    +0.000 A 
ATOM     10  C   UNL     1       1.402   6.723  20.739  0.00  0.00    +0.000 A 
ATOM     11  C   UNL     1       2.081   7.466  19.788  0.00  0.00    +0.000 A 
ATOM     12  C   UNL     1       3.067   6.857  19.005  0.00  0.00    +0.000 A 
ATOM     13  C   UNL     1       3.402   5.490  19.138  0.00  0.00    +0.000 A 
BRANCH   8  14
ATOM     14  O   UNL     1       2.957   3.474  20.574  0.00  0.00    +0.000 OA
BRANCH  14  16
ATOM     15  C   UNL     1       1.084   2.570  19.344  0.00  0.00    +0.000 C 
ATOM     16  C   UNL     1       1.846   2.588  20.655  0.00  0.00    +0.000 C 
ENDBRANCH  14  16
ENDBRANCH   8  14
ENDBRANCH   1  13
BRANCH   5  17
ATOM     17  S   UNL     1       6.568   5.790  15.775  0.00  0.00    +0.000 S 
BRANCH  17  18
ATOM     18  C   UNL     1       6.519   4.881  14.220  0.00  0.00    +0.000 A 
ATOM     19  C   UNL     1       5.498   3.954  13.971  0.00  0.00    +0.000 A 
ATOM     20  C   UNL     1       5.449   3.259  12.760  0.00  0.00    +0.000 A 
ATOM     21  C   UNL     1       6.422   3.482  11.790  0.00  0.00    +0.000 A 
ATOM     22  C   UNL     1       7.459   4.381  12.039  0.00  0.00    +0.000 A 
ATOM     23  C   UNL     1       7.517   5.096  13.242  0.00  0.00    +0.000 A 
BRANCH  23  24
ATOM     24  N   UNL     1       8.679   5.837  13.526  0.00  0.00    +0.000 N 
ATOM     25  H   UNL     1       9.532   5.466  13.120  0.00  0.00    +0.000 HD
ATOM     26  H   UNL     1       8.562   6.837  13.395  0.00  0.00    +0.000 HD
ENDBRANCH  23  24
ENDBRANCH  17  18
ENDBRANCH   5  17
TORSDOF 6
ENDMDL
MODEL 4
REMARK VINA RESULT:      -6.9      2.589      6.299
REMARK  Name = 
REMARK  7 active torsions:
REMARK  status: ('A' for Active; 'I' for Inactive)
REMARK    1  A    between atoms: C_1  and  C_2
REMARK    2  A    between atoms: C_2  and  O_3
REMARK    3  A    between atoms: O_3  and  C_4
REMARK    4  A    between atoms: C_9  and  N_10
REMARK    5  A    between atoms: C_14  and  S_15
REMARK    6  A    between atoms: S_15  and  C_16
REMARK    7  A    between atoms: C_21  and  N_22
REMARK                            x       y       z     vdW  Elec       q    Type
REMARK                         _______ _______ _______ _____ _____    ______ ____
ROOT
ATOM      1  N   UNL     1       5.589   4.672  17.353  0.00  0.00    +0.000 N 
ATOM      2  C   UNL     1       4.322   5.107  17.670  0.00  0.00    +0.000 C 
ATOM      3  O   UNL     1       3.387   5.387  16.928  0.00  0.00    +0.000 OA
ATOM      4  C   UNL     1       4.228   5.265  19.163  0.00  0.00    +0.000 C 
ATOM      5  C   UNL     1       5.377   4.427  19.681  0.00  0.00    +0.000 C 
ATOM      6  C   UNL     1       6.325   4.457  18.499  0.00  0.00    +0.000 C 
ATOM      7  O   UNL     1       7.541   4.374  18.621  0.00  0.00    +0.000 OA
ENDROOT
BRANCH   1  13
ATOM      8  C   UNL     1       7.063   5.549  15.509  0.00  0.00    +0.000 A 
ATOM      9  C   UNL     1       7.385   5.520  14.137  0.00  0.00    +0.000 A 
ATOM     10  C   UNL     1       6.841   4.570  13.278  0.00  0.00    +0.000 A 
ATOM     11  C   UNL     1       5.967   3.623  13.785  0.00  0.00    +0.000 A 
ATOM     12  C   UNL     1       5.616   3.656  15.138  0.00  0.00    +0.000 A 
ATOM     13  C   UNL     1       6.118   4.635  16.026  0.00  0.00    +0.000 A 
BRANCH   8  14
ATOM     14  O   UNL     1       7.778   6.520  16.163  0.00  0.00    +0.000 OA
BRANCH  14  16
ATOM     15  C   UNL     1       8.032   8.199  17.881  0.00  0.00    +0.000 C 
ATOM     16  C   UNL     1       7.080   7.487  16.940  0.00  0.00    +0.000 C 
ENDBRANCH  14  16
ENDBRANCH   8  14
ENDBRANCH   1  13
BRANCH   5  17
ATOM     17  S   UNL     1       4.912   2.681  20.046  0.00  0.00    +0.000 S 
BRANCH  17  18
ATOM     18  C   UNL     1       3.113   2.754  19.984  0.00  0.00    +0.000 A 
ATOM     19  C   UNL     1       2.383   3.228  21.081  0.00  0.00    +0.000 A 
ATOM     20  C   UNL     1       0.989   3.300  21.030  0.00  0.00    +0.000 A 
ATOM     21  C   UNL     1       0.312   2.894  19.884  0.00  0.00    +0.000 A 
ATOM     22  C   UNL     1       1.027   2.392  18.796  0.00  0.00    +0.000 A 
ATOM     23  C   UNL     1       2.426   2.324  18.824  0.00  0.00    +0.000 A 
BRANCH  23  24
ATOM     24  N   UNL     1       3.085   1.635  17.790  0.00  0.00    +0.000 N 
ATOM     25  H   UNL     1       3.270   0.655  17.980  0.00  0.00    +0.000 HD
ATOM     26  H   UNL     1       2.689   1.809  16.872  0.00  0.00    +0.000 HD
ENDBRANCH  23  24
ENDBRANCH  17  18
ENDBRANCH   5  17
TORSDOF 6
ENDMDL
MODEL 5
REMARK VINA RESULT:      -6.8      2.745      4.241
REMARK  Name = 
REMARK  7 active torsions:
REMARK  status: ('A' for Active; 'I' for Inactive)
REMARK    1  A    between atoms: C_1  and  C_2
REMARK    2  A    between atoms: C_2  and  O_3
REMARK    3  A    between atoms: O_3  and  C_4
REMARK    4  A    between atoms: C_9  and  N_10
REMARK    5  A    between atoms: C_14  and  S_15
REMARK    6  A    between atoms: S_15  and  C_16
REMARK    7  A    between atoms: C_21  and  N_22
REMARK                            x       y       z     vdW  Elec       q    Type
REMARK                         _______ _______ _______ _____ _____    ______ ____
ROOT
ATOM      1  N   UNL     1       3.706   4.254  18.430  0.00  0.00    +0.000 N 
ATOM      2  C   UNL     1       4.596   5.304  18.451  0.00  0.00    +0.000 C 
ATOM      3  O   UNL     1       5.098   5.880  19.409  0.00  0.00    +0.000 OA
ATOM      4  C   UNL     1       4.861   5.736  17.034  0.00  0.00    +0.000 C 
ATOM      5  C   UNL     1       4.428   4.540  16.212  0.00  0.00    +0.000 C 
ATOM      6  C   UNL     1       3.408   3.899  17.132  0.00  0.00    +0.000 C 
ATOM      7  O   UNL     1       2.456   3.249  16.717  0.00  0.00    +0.000 OA
ENDROOT
BRANCH   1  13
ATOM      8  C   UNL     1       3.593   2.782  20.471  0.00  0.00    +0.000 A 
ATOM      9  C   UNL     1       2.786   2.220  21.481  0.00  0.00    +0.000 A 
ATOM     10  C   UNL     1       1.469   2.626  21.677  0.00  0.00    +0.000 A 
ATOM     11  C   UNL     1       0.940   3.614  20.864  0.00  0.00    +0.000 A 
ATOM     12  C   UNL     1       1.719   4.161  19.838  0.00  0.00    +0.000 A 
ATOM     13  C   UNL     1       3.044   3.738  19.587  0.00  0.00    +0.000 A 
BRANCH   8  14
ATOM     14  O   UNL     1       4.868   2.281  20.523  0.00  0.00    +0.000 OA
BRANCH  14  16
ATOM     15  C   UNL     1       5.870   0.572  21.906  0.00  0.00    +0.000 C 
ATOM     16  C   UNL     1       5.054   0.877  20.664  0.00  0.00    +0.000 C 
ENDBRANCH  14  16
ENDBRANCH   8  14
ENDBRANCH   1  13
BRANCH   5  17
ATOM     17  S   UNL     1       5.788   3.341  15.881  0.00  0.00    +0.000 S 
BRANCH  17  18
ATOM     18  C   UNL     1       6.391   3.896  14.276  0.00  0.00    +0.000 A 
ATOM     19  C   UNL     1       6.061   3.191  13.111  0.00  0.00    +0.000 A 
ATOM     20  C   UNL     1       6.516   3.627  11.864  0.00  0.00    +0.000 A 
ATOM     21  C   UNL     1       7.306   4.769  11.771  0.00  0.00    +0.000 A 
ATOM     22  C   UNL     1       7.665   5.461  12.928  0.00  0.00    +0.000 A 
ATOM     23  C   UNL     1       7.209   5.046  14.186  0.00  0.00    +0.000 A 
BRANCH  23  24
ATOM     24  N   UNL     1       7.753   5.655  15.331  0.00  0.00    +0.000 N 
ATOM     25  H   UNL     1       7.434   6.603  15.502  0.00  0.00    +0.000 HD
ATOM     26  H   UNL     1       7.735   5.060  16.153  0.00  0.00    +0.000 HD
ENDBRANCH  23  24
ENDBRANCH  17  18
ENDBRANCH   5  17
TORSDOF 6
ENDMDL
MODEL 6
REMARK VINA RESULT:      -6.8      3.391      6.030
REMARK  Name = 
REMARK  7 active torsions:
REMARK  status: ('A' for Active; 'I' for Inactive)
REMARK    1  A    between atoms: C_1  and  C_2
REMARK    2  A    between atoms: C_2  and  O_3
REMARK    3  A    between atoms: O_3  and  C_4
REMARK    4  A    between atoms: C_9  and  N_10
REMARK    5  A    between atoms: C_14  and  S_15
REMARK    6  A    between atoms: S_15  and  C_16
REMARK    7  A    between atoms: C_21  and  N_22
REMARK                            x       y       z     vdW  Elec       q    Type
REMARK                         _______ _______ _______ _____ _____    ______ ____
ROOT
ATOM      1  N   UNL     1       1.011   8.982  19.055  0.00  0.00    +0.000 N 
ATOM      2  C   UNL     1       1.019   8.373  20.289  0.00  0.00    +0.000 C 
ATOM      3  O   UNL     1       0.249   8.514  21.232  0.00  0.00    +0.000 OA
ATOM      4  C   UNL     1       2.222   7.474  20.373  0.00  0.00    +0.000 C 
ATOM      5  C   UNL     1       2.608   7.263  18.924  0.00  0.00    +0.000 C 
ATOM      6  C   UNL     1       2.055   8.520  18.282  0.00  0.00    +0.000 C 
ATOM      7  O   UNL     1       2.550   9.030  17.284  0.00  0.00    +0.000 OA
ENDROOT
BRANCH   1  13
ATOM      8  C   UNL     1       0.277  11.387  19.210  0.00  0.00    +0.000 A 
ATOM      9  C   UNL     1      -0.722  12.339  18.925  0.00  0.00    +0.000 A 
ATOM     10  C   UNL     1      -1.804  12.041  18.102  0.00  0.00    +0.000 A 
ATOM     11  C   UNL     1      -1.897  10.779  17.540  0.00  0.00    +0.000 A 
ATOM     12  C   UNL     1      -0.928   9.814  17.835  0.00  0.00    +0.000 A 
ATOM     13  C   UNL     1       0.157  10.073  18.703  0.00  0.00    +0.000 A 
BRANCH   8  14
ATOM     14  O   UNL     1       1.274  11.933  19.977  0.00  0.00    +0.000 OA
BRANCH  14  16
ATOM     15  C   UNL     1       2.663  12.633  18.129  0.00  0.00    +0.000 C 
ATOM     16  C   UNL     1       2.034  13.016  19.454  0.00  0.00    +0.000 C 
ENDBRANCH  14  16
ENDBRANCH   8  14
ENDBRANCH   1  13
BRANCH   5  17
ATOM     17  S   UNL     1       1.817   5.787  18.155  0.00  0.00    +0.000 S 
BRANCH  17  18
ATOM     18  C   UNL     1       2.103   4.519  19.403  0.00  0.00    +0.000 A 
ATOM     19  C   UNL     1       1.107   4.203  20.336  0.00  0.00    +0.000 A 
ATOM     20  C   UNL     1       1.321   3.210  21.294  0.00  0.00    +0.000 A 
ATOM     21  C   UNL     1       2.532   2.527  21.331  0.00  0.00    +0.000 A 
ATOM     22  C   UNL     1       3.542   2.853  20.426  0.00  0.00    +0.000 A 
ATOM     23  C   UNL     1       3.342   3.838  19.449  0.00  0.00    +0.000 A 
BRANCH  23  24
ATOM     24  N   UNL     1       4.447   4.266  18.691  0.00  0.00    +0.000 N 
ATOM     25  H   UNL     1       5.275   3.685  18.778  0.00  0.00    +0.000 HD
ATOM     26  H   UNL     1       4.212   4.507  17.734  0.00  0.00    +0.000 HD
ENDBRANCH  23  24
ENDBRANCH  17  18
ENDBRANCH   5  17
TORSDOF 6
ENDMDL
MODEL 7
REMARK VINA RESULT:      -6.8      2.814      4.665
REMARK  Name = 
REMARK  7 active torsions:
REMARK  status: ('A' for Active; 'I' for Inactive)
REMARK    1  A    between atoms: C_1  and  C_2
REMARK    2  A    between atoms: C_2  and  O_3
REMARK    3  A    between atoms: O_3  and  C_4
REMARK    4  A    between atoms: C_9  and  N_10
REMARK    5  A    between atoms: C_14  and  S_15
REMARK    6  A    between atoms: S_15  and  C_16
REMARK    7  A    between atoms: C_21  and  N_22
REMARK                            x       y       z     vdW  Elec       q    Type
REMARK                         _______ _______ _______ _____ _____    ______ ____
ROOT
ATOM      1  N   UNL     1       5.399   5.161  18.409  0.00  0.00    +0.000 N 
ATOM      2  C   UNL     1       6.571   5.665  18.928  0.00  0.00    +0.000 C 
ATOM      3  O   UNL     1       6.995   5.622  20.077  0.00  0.00    +0.000 OA
ATOM      4  C   UNL     1       7.309   6.387  17.834  0.00  0.00    +0.000 C 
ATOM      5  C   UNL     1       6.695   5.832  16.566  0.00  0.00    +0.000 C 
ATOM      6  C   UNL     1       5.322   5.418  17.056  0.00  0.00    +0.000 C 
ATOM      7  O   UNL     1       4.334   5.408  16.333  0.00  0.00    +0.000 OA
ENDROOT
BRANCH   1  13
ATOM      8  C   UNL     1       3.279   5.378  19.751  0.00  0.00    +0.000 A 
ATOM      9  C   UNL     1       2.382   4.771  20.652  0.00  0.00    +0.000 A 
ATOM     10  C   UNL     1       2.470   3.419  20.972  0.00  0.00    +0.000 A 
ATOM     11  C   UNL     1       3.458   2.649  20.383  0.00  0.00    +0.000 A 
ATOM     12  C   UNL     1       4.373   3.243  19.508  0.00  0.00    +0.000 A 
ATOM     13  C   UNL     1       4.337   4.622  19.198  0.00  0.00    +0.000 A 
BRANCH   8  14
ATOM     14  O   UNL     1       2.948   6.692  19.536  0.00  0.00    +0.000 OA
BRANCH  14  16
ATOM     15  C   UNL     1       2.050   8.545  18.274  0.00  0.00    +0.000 C 
ATOM     16  C   UNL     1       2.252   7.044  18.346  0.00  0.00    +0.000 C 
ENDBRANCH  14  16
ENDBRANCH   8  14
ENDBRANCH   1  13
BRANCH   5  17
ATOM     17  S   UNL     1       7.577   4.357  15.903  0.00  0.00    +0.000 S 
BRANCH  17  18
ATOM     18  C   UNL     1       6.994   4.308  14.199  0.00  0.00    +0.000 A 
ATOM     19  C   UNL     1       5.920   3.483  13.839  0.00  0.00    +0.000 A 
ATOM     20  C   UNL     1       5.456   3.454  12.522  0.00  0.00    +0.000 A 
ATOM     21  C   UNL     1       6.063   4.247  11.553  0.00  0.00    +0.000 A 
ATOM     22  C   UNL     1       7.152   5.050  11.893  0.00  0.00    +0.000 A 
ATOM     23  C   UNL     1       7.624   5.100  13.212  0.00  0.00    +0.000 A 
BRANCH  23  24
ATOM     24  N   UNL     1       8.836   5.768  13.465  0.00  0.00    +0.000 N 
ATOM     25  H   UNL     1       9.275   6.179  12.649  0.00  0.00    +0.000 HD
ATOM     26  H   UNL     1       8.796   6.388  14.268  0.00  0.00    +0.000 HD
ENDBRANCH  23  24
ENDBRANCH  17  18
ENDBRANCH   5  17
TORSDOF 6
ENDMDL
MODEL 8
REMARK VINA RESULT:      -6.7      2.754      6.495
REMARK  Name = 
REMARK  7 active torsions:
REMARK  status: ('A' for Active; 'I' for Inactive)
REMARK    1  A    between atoms: C_1  and  C_2
REMARK    2  A    between atoms: C_2  and  O_3
REMARK    3  A    between atoms: O_3  and  C_4
REMARK    4  A    between atoms: C_9  and  N_10
REMARK    5  A    between atoms: C_14  and  S_15
REMARK    6  A    between atoms: S_15  and  C_16
REMARK    7  A    between atoms: C_21  and  N_22
REMARK                            x       y       z     vdW  Elec       q    Type
REMARK                         _______ _______ _______ _____ _____    ______ ____
ROOT
ATOM      1  N   UNL     1       4.036   5.487  18.664  0.00  0.00    +0.000 N 
ATOM      2  C   UNL     1       3.208   4.512  19.175  0.00  0.00    +0.000 C 
ATOM      3  O   UNL     1       3.488   3.393  19.590  0.00  0.00    +0.000 OA
ATOM      4  C   UNL     1       1.788   5.004  19.107  0.00  0.00    +0.000 C 
ATOM      5  C   UNL     1       1.939   6.504  18.970  0.00  0.00    +0.000 C 
ATOM      6  C   UNL     1       3.309   6.609  18.328  0.00  0.00    +0.000 C 
ATOM      7  O   UNL     1       3.625   7.529  17.584  0.00  0.00    +0.000 OA
ENDROOT
BRANCH   1  13
ATOM      8  C   UNL     1       5.899   4.748  17.138  0.00  0.00    +0.000 A 
ATOM      9  C   UNL     1       7.267   4.437  17.006  0.00  0.00    +0.000 A 
ATOM     10  C   UNL     1       8.179   4.703  18.024  0.00  0.00    +0.000 A 
ATOM     11  C   UNL     1       7.732   5.297  19.192  0.00  0.00    +0.000 A 
ATOM     12  C   UNL     1       6.373   5.585  19.349  0.00  0.00    +0.000 A 
ATOM     13  C   UNL     1       5.416   5.286  18.352  0.00  0.00    +0.000 A 
BRANCH   8  14
ATOM     14  O   UNL     1       5.216   4.466  15.983  0.00  0.00    +0.000 OA
BRANCH  14  16
ATOM     15  C   UNL     1       5.906   3.875  13.745  0.00  0.00    +0.000 C 
ATOM     16  C   UNL     1       5.696   4.990  14.750  0.00  0.00    +0.000 C 
ENDBRANCH  14  16
ENDBRANCH   8  14
ENDBRANCH   1  13
BRANCH   5  17
ATOM     17  S   UNL     1       1.952   7.395  20.582  0.00  0.00    +0.000 S 
BRANCH  17  18
ATOM     18  C   UNL     1       1.015   8.885  20.193  0.00  0.00    +0.000 A 
ATOM     19  C   UNL     1       1.010   9.400  18.890  0.00  0.00    +0.000 A 
ATOM     20  C   UNL     1       0.273  10.546  18.582  0.00  0.00    +0.000 A 
ATOM     21  C   UNL     1      -0.462  11.189  19.574  0.00  0.00    +0.000 A 
ATOM     22  C   UNL     1      -0.440  10.702  20.881  0.00  0.00    +0.000 A 
ATOM     23  C   UNL     1       0.284   9.546  21.206  0.00  0.00    +0.000 A 
BRANCH  23  24
ATOM     24  N   UNL     1       0.433   9.209  22.563  0.00  0.00    +0.000 N 
ATOM     25  H   UNL     1      -0.318   9.526  23.167  0.00  0.00    +0.000 HD
ATOM     26  H   UNL     1       0.700   8.240  22.712  0.00  0.00    +0.000 HD
ENDBRANCH  23  24
ENDBRANCH  17  18
ENDBRANCH   5  17
TORSDOF 6
ENDMDL
MODEL 9
REMARK VINA RESULT:      -6.6      2.253      5.484
REMARK  Name = 
REMARK  7 active torsions:
REMARK  status: ('A' for Active; 'I' for Inactive)
REMARK    1  A    between atoms: C_1  and  C_2
REMARK    2  A    between atoms: C_2  and  O_3
REMARK    3  A    between atoms: O_3  and  C_4
REMARK    4  A    between atoms: C_9  and  N_10
REMARK    5  A    between atoms: C_14  and  S_15
REMARK    6  A    between atoms: S_15  and  C_16
REMARK    7  A    between atoms: C_21  and  N_22
REMARK                            x       y       z     vdW  Elec       q    Type
REMARK                         _______ _______ _______ _____ _____    ______ ____
ROOT
ATOM      1  N   UNL     1       4.374   3.239  18.407  0.00  0.00    +0.000 N 
ATOM      2  C   UNL     1       4.375   2.229  19.342  0.00  0.00    +0.000 C 
ATOM      3  O   UNL     1       5.141   2.037  20.279  0.00  0.00    +0.000 OA
ATOM      4  C   UNL     1       3.260   1.272  19.016  0.00  0.00    +0.000 C 
ATOM      5  C   UNL     1       2.347   2.084  18.122  0.00  0.00    +0.000 C 
ATOM      6  C   UNL     1       3.320   3.085  17.531  0.00  0.00    +0.000 C 
ATOM      7  O   UNL     1       3.171   3.580  16.421  0.00  0.00    +0.000 OA
ENDROOT
BRANCH   1  13
ATOM      8  C   UNL     1       6.246   4.317  17.113  0.00  0.00    +0.000 A 
ATOM      9  C   UNL     1       7.360   5.180  17.141  0.00  0.00    +0.000 A 
ATOM     10  C   UNL     1       7.645   5.971  18.251  0.00  0.00    +0.000 A 
ATOM     11  C   UNL     1       6.808   5.915  19.352  0.00  0.00    +0.000 A 
ATOM     12  C   UNL     1       5.714   5.043  19.350  0.00  0.00    +0.000 A 
ATOM     13  C   UNL     1       5.425   4.196  18.256  0.00  0.00    +0.000 A 
BRANCH   8  14
ATOM     14  O   UNL     1       6.130   3.703  15.892  0.00  0.00    +0.000 OA
BRANCH  14  16
ATOM     15  C   UNL     1       5.973   3.791  13.483  0.00  0.00    +0.000 C 
ATOM     16  C   UNL     1       6.605   4.375  14.731  0.00  0.00    +0.000 C 
ENDBRANCH  14  16
ENDBRANCH   8  14
ENDBRANCH   1  13
BRANCH   5  17
ATOM     17  S   UNL     1       1.026   2.985  19.038  0.00  0.00    +0.000 S 
BRANCH  17  18
ATOM     18  C   UNL     1       1.661   4.671  19.045  0.00  0.00    +0.000 A 
ATOM     19  C   UNL     1       1.688   5.424  17.863  0.00  0.00    +0.000 A 
ATOM     20  C   UNL     1       2.165   6.737  17.869  0.00  0.00    +0.000 A 
ATOM     21  C   UNL     1       2.622   7.307  19.053  0.00  0.00    +0.000 A 
ATOM     22  C   UNL     1       2.627   6.557  20.229  0.00  0.00    +0.000 A 
ATOM     23  C   UNL     1       2.141   5.243  20.246  0.00  0.00    +0.000 A 
BRANCH  23  24
ATOM     24  N   UNL     1       2.346   4.467  21.401  0.00  0.00    +0.000 N 
ATOM     25  H   UNL     1       2.955   4.887  22.095  0.00  0.00    +0.000 HD
ATOM     26  H   UNL     1       1.489   4.080  21.785  0.00  0.00    +0.000 HD
ENDBRANCH  23  24
ENDBRANCH  17  18
ENDBRANCH   5  17
TORSDOF 6
ENDMDL
