MODEL 1
REMARK VINA RESULT:      -7.6      0.000      0.000
REMARK  Name = 
REMARK  10 active torsions:
REMARK  status: ('A' for Active; 'I' for Inactive)
REMARK    1  A    between atoms: C_1  and  C_2
REMARK    2  A    between atoms: C_8  and  S_9
REMARK    3  A    between atoms: S_9  and  N_12
REMARK    4  A    between atoms: N_12  and  C_13
REMARK    5  A    between atoms: N_12  and  C_14
REMARK    6  A    between atoms: C_14  and  C_15
REMARK    7  A    between atoms: N_19  and  C_20
REMARK    8  A    between atoms: C_20  and  C_21
REMARK    9  A    between atoms: C_20  and  C_22
REMARK   10  A    between atoms: C_20  and  C_23
REMARK                            x       y       z     vdW  Elec       q    Type
REMARK                         _______ _______ _______ _____ _____    ______ ____
ROOT
ATOM      1  N   UNL     1       2.583   4.480  18.435  0.00  0.00    +0.000 NA
ATOM      2  C   UNL     1       1.260   3.815  18.163  0.00  0.00    +0.000 C 
ENDROOT
BRANCH   1   3
ATOM      3  S   UNL     1       3.873   3.332  18.383  0.00  0.00    +0.000 S 
ATOM      4  O   UNL     1       3.374   2.172  17.677  0.00  0.00    +0.000 OA
ATOM      5  O   UNL     1       4.411   3.203  19.721  0.00  0.00    +0.000 OA
BRANCH   3  13
ATOM      6  C   UNL     1       6.111   5.512  19.366  0.00  0.00    +0.000 C 
ATOM      7  C   UNL     1       6.007   5.169  17.904  0.00  0.00    +0.000 A 
ATOM      8  C   UNL     1       6.788   5.870  16.955  0.00  0.00    +0.000 A 
ATOM      9 CL   UNL     1       7.773   7.230  17.383  0.00  0.00    +0.000 Cl
ATOM     10  C   UNL     1       6.785   5.517  15.597  0.00  0.00    +0.000 A 
ATOM     11  C   UNL     1       5.987   4.470  15.151  0.00  0.00    +0.000 A 
ATOM     12  C   UNL     1       5.158   3.810  16.048  0.00  0.00    +0.000 A 
ATOM     13  C   UNL     1       5.140   4.165  17.410  0.00  0.00    +0.000 A 
ENDBRANCH   3  13
ENDBRANCH   1   3
BRANCH   1  14
ATOM     14  C   UNL     1       2.454   5.247  19.729  0.00  0.00    +0.000 C 
BRANCH  14  15
ATOM     15  C   UNL     1       2.620   6.775  19.721  0.00  0.00    +0.000 C 
ATOM     16  C   UNL     1       2.570   7.219  18.246  0.00  0.00    +0.000 C 
ATOM     17  C   UNL     1       2.015   8.609  18.265  0.00  0.00    +0.000 C 
ATOM     18  O   UNL     1       2.011   9.350  17.287  0.00  0.00    +0.000 OA
ATOM     19  N   UNL     1       1.446   8.838  19.509  0.00  0.00    +0.000 N 
ATOM     20  C   UNL     1       1.529   7.645  20.351  0.00  0.00    +0.000 C 
BRANCH  19  21
ATOM     21  C   UNL     1       0.559  10.005  19.794  0.00  0.00    +0.000 C 
ATOM     22  C   UNL     1       1.346  11.325  19.661  0.00  0.00    +0.000 C 
ATOM     23  C   UNL     1      -0.643  10.070  18.832  0.00  0.00    +0.000 C 
ATOM     24  C   UNL     1      -0.007   9.917  21.230  0.00  0.00    +0.000 C 
ENDBRANCH  19  21
ENDBRANCH  14  15
ENDBRANCH   1  14
TORSDOF 5
ENDMDL
MODEL 2
REMARK VINA RESULT:      -7.3      0.910      1.883
REMARK  Name = 
REMARK  10 active torsions:
REMARK  status: ('A' for Active; 'I' for Inactive)
REMARK    1  A    between atoms: C_1  and  C_2
REMARK    2  A    between atoms: C_8  and  S_9
REMARK    3  A    between atoms: S_9  and  N_12
REMARK    4  A    between atoms: N_12  and  C_13
REMARK    5  A    between atoms: N_12  and  C_14
REMARK    6  A    between atoms: C_14  and  C_15
REMARK    7  A    between atoms: N_19  and  C_20
REMARK    8  A    between atoms: C_20  and  C_21
REMARK    9  A    between atoms: C_20  and  C_22
REMARK   10  A    between atoms: C_20  and  C_23
REMARK                            x       y       z     vdW  Elec       q    Type
REMARK                         _______ _______ _______ _____ _____    ______ ____
ROOT
ATOM      1  N   UNL     1       2.418   4.334  18.880  0.00  0.00    +0.000 NA
ATOM      2  C   UNL     1       1.156   3.528  18.724  0.00  0.00    +0.000 C 
ENDROOT
BRANCH   1   3
ATOM      3  S   UNL     1       3.801   3.301  18.977  0.00  0.00    +0.000 S 
ATOM      4  O   UNL     1       3.553   2.185  18.091  0.00  0.00    +0.000 OA
ATOM      5  O   UNL     1       4.094   3.078  20.377  0.00  0.00    +0.000 OA
BRANCH   3  13
ATOM      6  C   UNL     1       4.674   3.831  15.865  0.00  0.00    +0.000 C 
ATOM      7  C   UNL     1       5.503   4.421  16.975  0.00  0.00    +0.000 A 
ATOM      8  C   UNL     1       6.710   5.094  16.676  0.00  0.00    +0.000 A 
ATOM      9 CL   UNL     1       7.372   5.153  15.075  0.00  0.00    +0.000 Cl
ATOM     10  C   UNL     1       7.461   5.733  17.673  0.00  0.00    +0.000 A 
ATOM     11  C   UNL     1       7.035   5.697  18.997  0.00  0.00    +0.000 A 
ATOM     12  C   UNL     1       5.892   4.985  19.329  0.00  0.00    +0.000 A 
ATOM     13  C   UNL     1       5.138   4.325  18.340  0.00  0.00    +0.000 A 
ENDBRANCH   3  13
ENDBRANCH   1   3
BRANCH   1  14
ATOM     14  C   UNL     1       2.227   5.266  20.051  0.00  0.00    +0.000 C 
BRANCH  14  15
ATOM     15  C   UNL     1       2.516   6.765  19.878  0.00  0.00    +0.000 C 
ATOM     16  C   UNL     1       2.496   7.049  18.363  0.00  0.00    +0.000 C 
ATOM     17  C   UNL     1       2.055   8.472  18.228  0.00  0.00    +0.000 C 
ATOM     18  O   UNL     1       2.107   9.101  17.175  0.00  0.00    +0.000 OA
ATOM     19  N   UNL     1       1.511   8.881  19.437  0.00  0.00    +0.000 N 
ATOM     20  C   UNL     1       1.500   7.784  20.404  0.00  0.00    +0.000 C 
BRANCH  19  21
ATOM     21  C   UNL     1       0.722  10.140  19.588  0.00  0.00    +0.000 C 
ATOM     22  C   UNL     1       0.232  10.298  21.042  0.00  0.00    +0.000 C 
ATOM     23  C   UNL     1       1.548  11.390  19.227  0.00  0.00    +0.000 C 
ATOM     24  C   UNL     1      -0.511  10.121  18.657  0.00  0.00    +0.000 C 
ENDBRANCH  19  21
ENDBRANCH  14  15
ENDBRANCH   1  14
TORSDOF 5
ENDMDL
MODEL 3
REMARK VINA RESULT:      -6.9      0.720      1.277
REMARK  Name = 
REMARK  10 active torsions:
REMARK  status: ('A' for Active; 'I' for Inactive)
REMARK    1  A    between atoms: C_1  and  C_2
REMARK    2  A    between atoms: C_8  and  S_9
REMARK    3  A    between atoms: S_9  and  N_12
REMARK    4  A    between atoms: N_12  and  C_13
REMARK    5  A    between atoms: N_12  and  C_14
REMARK    6  A    between atoms: C_14  and  C_15
REMARK    7  A    between atoms: N_19  and  C_20
REMARK    8  A    between atoms: C_20  and  C_21
REMARK    9  A    between atoms: C_20  and  C_22
REMARK   10  A    between atoms: C_20  and  C_23
REMARK                            x       y       z     vdW  Elec       q    Type
REMARK                         _______ _______ _______ _____ _____    ______ ____
ROOT
ATOM      1  N   UNL     1       2.752   4.359  19.099  0.00  0.00    +0.000 NA
ATOM      2  C   UNL     1       2.944   4.842  20.512  0.00  0.00    +0.000 C 
ENDROOT
BRANCH   1   3
ATOM      3  S   UNL     1       4.007   3.259  18.649  0.00  0.00    +0.000 S 
ATOM      4  O   UNL     1       3.378   2.181  17.918  0.00  0.00    +0.000 OA
ATOM      5  O   UNL     1       4.802   2.984  19.827  0.00  0.00    +0.000 OA
BRANCH   3  13
ATOM      6  C   UNL     1       6.369   5.389  19.431  0.00  0.00    +0.000 C 
ATOM      7  C   UNL     1       5.987   5.208  17.986  0.00  0.00    +0.000 A 
ATOM      8  C   UNL     1       6.561   6.036  16.993  0.00  0.00    +0.000 A 
ATOM      9 CL   UNL     1       7.594   7.373  17.379  0.00  0.00    +0.000 Cl
ATOM     10  C   UNL     1       6.298   5.838  15.629  0.00  0.00    +0.000 A 
ATOM     11  C   UNL     1       5.440   4.821  15.226  0.00  0.00    +0.000 A 
ATOM     12  C   UNL     1       4.809   4.038  16.183  0.00  0.00    +0.000 A 
ATOM     13  C   UNL     1       5.051   4.237  17.554  0.00  0.00    +0.000 A 
ENDBRANCH   3  13
ENDBRANCH   1   3
BRANCH   1  14
ATOM     14  C   UNL     1       2.608   5.572  18.213  0.00  0.00    +0.000 C 
BRANCH  14  15
ATOM     15  C   UNL     1       2.679   6.975  18.836  0.00  0.00    +0.000 C 
ATOM     16  C   UNL     1       2.731   7.977  17.667  0.00  0.00    +0.000 C 
ATOM     17  C   UNL     1       2.091   9.228  18.182  0.00  0.00    +0.000 C 
ATOM     18  O   UNL     1       2.126  10.302  17.589  0.00  0.00    +0.000 OA
ATOM     19  N   UNL     1       1.401   8.921  19.346  0.00  0.00    +0.000 N 
ATOM     20  C   UNL     1       1.484   7.491  19.643  0.00  0.00    +0.000 C 
BRANCH  19  21
ATOM     21  C   UNL     1       0.422   9.853  19.979  0.00  0.00    +0.000 C 
ATOM     22  C   UNL     1      -0.179   9.223  21.253  0.00  0.00    +0.000 C 
ATOM     23  C   UNL     1       1.068  11.196  20.374  0.00  0.00    +0.000 C 
ATOM     24  C   UNL     1      -0.733  10.171  19.002  0.00  0.00    +0.000 C 
ENDBRANCH  19  21
ENDBRANCH  14  15
ENDBRANCH   1  14
TORSDOF 5
ENDMDL
MODEL 4
REMARK VINA RESULT:      -6.6      3.995      8.107
REMARK  Name = 
REMARK  10 active torsions:
REMARK  status: ('A' for Active; 'I' for Inactive)
REMARK    1  A    between atoms: C_1  and  C_2
REMARK    2  A    between atoms: C_8  and  S_9
REMARK    3  A    between atoms: S_9  and  N_12
REMARK    4  A    between atoms: N_12  and  C_13
REMARK    5  A    between atoms: N_12  and  C_14
REMARK    6  A    between atoms: C_14  and  C_15
REMARK    7  A    between atoms: N_19  and  C_20
REMARK    8  A    between atoms: C_20  and  C_21
REMARK    9  A    between atoms: C_20  and  C_22
REMARK   10  A    between atoms: C_20  and  C_23
REMARK                            x       y       z     vdW  Elec       q    Type
REMARK                         _______ _______ _______ _____ _____    ______ ____
ROOT
ATOM      1  N   UNL     1       1.297   9.155  18.710  0.00  0.00    +0.000 NA
ATOM      2  C   UNL     1       2.306   9.913  17.890  0.00  0.00    +0.000 C 
ENDROOT
BRANCH   1   3
ATOM      3  S   UNL     1       0.398  10.227  19.725  0.00  0.00    +0.000 S 
ATOM      4  O   UNL     1       1.193  11.425  19.877  0.00  0.00    +0.000 OA
ATOM      5  O   UNL     1      -0.039   9.480  20.886  0.00  0.00    +0.000 OA
BRANCH   3  13
ATOM      6  C   UNL     1      -2.035  12.316  20.390  0.00  0.00    +0.000 C 
ATOM      7  C   UNL     1      -2.136  11.427  19.177  0.00  0.00    +0.000 A 
ATOM      8  C   UNL     1      -3.321  11.414  18.406  0.00  0.00    +0.000 A 
ATOM      9 CL   UNL     1      -4.748  12.278  18.875  0.00  0.00    +0.000 Cl
ATOM     10  C   UNL     1      -3.417  10.669  17.221  0.00  0.00    +0.000 A 
ATOM     11  C   UNL     1      -2.340   9.903  16.790  0.00  0.00    +0.000 A 
ATOM     12  C   UNL     1      -1.189   9.843  17.565  0.00  0.00    +0.000 A 
ATOM     13  C   UNL     1      -1.086  10.573  18.763  0.00  0.00    +0.000 A 
ENDBRANCH   3  13
ENDBRANCH   1   3
BRANCH   1  14
ATOM     14  C   UNL     1       2.027   8.047  19.428  0.00  0.00    +0.000 C 
BRANCH  14  15
ATOM     15  C   UNL     1       1.821   6.592  18.980  0.00  0.00    +0.000 C 
ATOM     16  C   UNL     1       2.936   6.280  17.962  0.00  0.00    +0.000 C 
ATOM     17  C   UNL     1       3.192   4.811  18.086  0.00  0.00    +0.000 C 
ATOM     18  O   UNL     1       3.882   4.174  17.295  0.00  0.00    +0.000 OA
ATOM     19  N   UNL     1       2.611   4.361  19.262  0.00  0.00    +0.000 N 
ATOM     20  C   UNL     1       2.003   5.466  20.002  0.00  0.00    +0.000 C 
BRANCH  19  21
ATOM     21  C   UNL     1       2.899   3.017  19.847  0.00  0.00    +0.000 C 
ATOM     22  C   UNL     1       2.200   1.912  19.030  0.00  0.00    +0.000 C 
ATOM     23  C   UNL     1       4.408   2.705  19.874  0.00  0.00    +0.000 C 
ATOM     24  C   UNL     1       2.390   2.942  21.305  0.00  0.00    +0.000 C 
ENDBRANCH  19  21
ENDBRANCH  14  15
ENDBRANCH   1  14
TORSDOF 5
ENDMDL
MODEL 5
REMARK VINA RESULT:      -6.4      1.094      1.851
REMARK  Name = 
REMARK  10 active torsions:
REMARK  status: ('A' for Active; 'I' for Inactive)
REMARK    1  A    between atoms: C_1  and  C_2
REMARK    2  A    between atoms: C_8  and  S_9
REMARK    3  A    between atoms: S_9  and  N_12
REMARK    4  A    between atoms: N_12  and  C_13
REMARK    5  A    between atoms: N_12  and  C_14
REMARK    6  A    between atoms: C_14  and  C_15
REMARK    7  A    between atoms: N_19  and  C_20
REMARK    8  A    between atoms: C_20  and  C_21
REMARK    9  A    between atoms: C_20  and  C_22
REMARK   10  A    between atoms: C_20  and  C_23
REMARK                            x       y       z     vdW  Elec       q    Type
REMARK                         _______ _______ _______ _____ _____    ______ ____
ROOT
ATOM      1  N   UNL     1       2.508   4.385  19.225  0.00  0.00    +0.000 NA
ATOM      2  C   UNL     1       2.527   4.894  20.642  0.00  0.00    +0.000 C 
ENDROOT
BRANCH   1   3
ATOM      3  S   UNL     1       3.794   3.262  18.957  0.00  0.00    +0.000 S 
ATOM      4  O   UNL     1       3.340   2.341  17.938  0.00  0.00    +0.000 OA
ATOM      5  O   UNL     1       4.235   2.773  20.246  0.00  0.00    +0.000 OA
BRANCH   3  13
ATOM      6  C   UNL     1       4.670   3.805  15.848  0.00  0.00    +0.000 C 
ATOM      7  C   UNL     1       5.496   4.393  16.962  0.00  0.00    +0.000 A 
ATOM      8  C   UNL     1       6.701   5.071  16.666  0.00  0.00    +0.000 A 
ATOM      9 CL   UNL     1       7.365   5.137  15.067  0.00  0.00    +0.000 Cl
ATOM     10  C   UNL     1       7.449   5.709  17.667  0.00  0.00    +0.000 A 
ATOM     11  C   UNL     1       7.022   5.667  18.990  0.00  0.00    +0.000 A 
ATOM     12  C   UNL     1       5.880   4.950  19.318  0.00  0.00    +0.000 A 
ATOM     13  C   UNL     1       5.129   4.292  18.326  0.00  0.00    +0.000 A 
ENDBRANCH   3  13
ENDBRANCH   1   3
BRANCH   1  14
ATOM     14  C   UNL     1       2.496   5.582  18.307  0.00  0.00    +0.000 C 
BRANCH  14  15
ATOM     15  C   UNL     1       2.608   6.994  18.905  0.00  0.00    +0.000 C 
ATOM     16  C   UNL     1       2.686   7.973  17.717  0.00  0.00    +0.000 C 
ATOM     17  C   UNL     1       2.083   9.250  18.211  0.00  0.00    +0.000 C 
ATOM     18  O   UNL     1       2.148  10.312  17.598  0.00  0.00    +0.000 OA
ATOM     19  N   UNL     1       1.386   8.985  19.380  0.00  0.00    +0.000 N 
ATOM     20  C   UNL     1       1.429   7.559  19.702  0.00  0.00    +0.000 C 
BRANCH  19  21
ATOM     21  C   UNL     1       0.435   9.956  19.997  0.00  0.00    +0.000 C 
ATOM     22  C   UNL     1       1.154  11.280  20.328  0.00  0.00    +0.000 C 
ATOM     23  C   UNL     1      -0.751  10.280  19.067  0.00  0.00    +0.000 C 
ATOM     24  C   UNL     1      -0.154   9.381  21.306  0.00  0.00    +0.000 C 
ENDBRANCH  19  21
ENDBRANCH  14  15
ENDBRANCH   1  14
TORSDOF 5
ENDMDL
MODEL 6
REMARK VINA RESULT:      -6.3      4.052      8.432
REMARK  Name = 
REMARK  10 active torsions:
REMARK  status: ('A' for Active; 'I' for Inactive)
REMARK    1  A    between atoms: C_1  and  C_2
REMARK    2  A    between atoms: C_8  and  S_9
REMARK    3  A    between atoms: S_9  and  N_12
REMARK    4  A    between atoms: N_12  and  C_13
REMARK    5  A    between atoms: N_12  and  C_14
REMARK    6  A    between atoms: C_14  and  C_15
REMARK    7  A    between atoms: N_19  and  C_20
REMARK    8  A    between atoms: C_20  and  C_21
REMARK    9  A    between atoms: C_20  and  C_22
REMARK   10  A    between atoms: C_20  and  C_23
REMARK                            x       y       z     vdW  Elec       q    Type
REMARK                         _______ _______ _______ _____ _____    ______ ____
ROOT
ATOM      1  N   UNL     1       0.868   9.842  18.056  0.00  0.00    +0.000 NA
ATOM      2  C   UNL     1       2.199  10.545  18.046  0.00  0.00    +0.000 C 
ENDROOT
BRANCH   1   3
ATOM      3  S   UNL     1      -0.205  10.572  19.198  0.00  0.00    +0.000 S 
ATOM      4  O   UNL     1       0.380  11.840  19.573  0.00  0.00    +0.000 OA
ATOM      5  O   UNL     1      -0.523   9.582  20.206  0.00  0.00    +0.000 OA
BRANCH   3  13
ATOM      6  C   UNL     1      -2.766  12.485  19.908  0.00  0.00    +0.000 C 
ATOM      7  C   UNL     1      -2.817  11.607  18.686  0.00  0.00    +0.000 A 
ATOM      8  C   UNL     1      -4.005  11.524  17.923  0.00  0.00    +0.000 A 
ATOM      9 CL   UNL     1      -5.483  12.286  18.415  0.00  0.00    +0.000 Cl
ATOM     10  C   UNL     1      -4.062  10.789  16.730  0.00  0.00    +0.000 A 
ATOM     11  C   UNL     1      -2.940  10.102  16.281  0.00  0.00    +0.000 A 
ATOM     12  C   UNL     1      -1.781  10.109  17.046  0.00  0.00    +0.000 A 
ATOM     13  C   UNL     1      -1.716  10.830  18.253  0.00  0.00    +0.000 A 
ENDBRANCH   3  13
ENDBRANCH   1   3
BRANCH   1  14
ATOM     14  C   UNL     1       1.126   8.370  18.263  0.00  0.00    +0.000 C 
BRANCH  14  15
ATOM     15  C   UNL     1       2.563   7.883  18.509  0.00  0.00    +0.000 C 
ATOM     16  C   UNL     1       2.467   6.697  19.488  0.00  0.00    +0.000 C 
ATOM     17  C   UNL     1       3.637   5.820  19.171  0.00  0.00    +0.000 C 
ATOM     18  O   UNL     1       3.991   4.880  19.877  0.00  0.00    +0.000 OA
ATOM     19  N   UNL     1       4.148   6.197  17.938  0.00  0.00    +0.000 N 
ATOM     20  C   UNL     1       3.350   7.271  17.347  0.00  0.00    +0.000 C 
BRANCH  19  21
ATOM     21  C   UNL     1       5.135   5.371  17.181  0.00  0.00    +0.000 C 
ATOM     22  C   UNL     1       6.468   5.283  17.950  0.00  0.00    +0.000 C 
ATOM     23  C   UNL     1       4.629   3.935  16.942  0.00  0.00    +0.000 C 
ATOM     24  C   UNL     1       5.412   5.995  15.794  0.00  0.00    +0.000 C 
ENDBRANCH  19  21
ENDBRANCH  14  15
ENDBRANCH   1  14
TORSDOF 5
ENDMDL
MODEL 7
REMARK VINA RESULT:      -6.2      4.457      8.620
REMARK  Name = 
REMARK  10 active torsions:
REMARK  status: ('A' for Active; 'I' for Inactive)
REMARK    1  A    between atoms: C_1  and  C_2
REMARK    2  A    between atoms: C_8  and  S_9
REMARK    3  A    between atoms: S_9  and  N_12
REMARK    4  A    between atoms: N_12  and  C_13
REMARK    5  A    between atoms: N_12  and  C_14
REMARK    6  A    between atoms: C_14  and  C_15
REMARK    7  A    between atoms: N_19  and  C_20
REMARK    8  A    between atoms: C_20  and  C_21
REMARK    9  A    between atoms: C_20  and  C_22
REMARK   10  A    between atoms: C_20  and  C_23
REMARK                            x       y       z     vdW  Elec       q    Type
REMARK                         _______ _______ _______ _____ _____    ______ ____
ROOT
ATOM      1  N   UNL     1       0.624  11.681  19.698  0.00  0.00    +0.000 NA
ATOM      2  C   UNL     1       1.649  12.764  19.907  0.00  0.00    +0.000 C 
ENDROOT
BRANCH   1   3
ATOM      3  S   UNL     1      -0.933  12.194  20.245  0.00  0.00    +0.000 S 
ATOM      4  O   UNL     1      -0.909  13.639  20.286  0.00  0.00    +0.000 OA
ATOM      5  O   UNL     1      -1.263  11.430  21.430  0.00  0.00    +0.000 OA
BRANCH   3  13
ATOM      6  C   UNL     1      -4.162  12.659  19.961  0.00  0.00    +0.000 C 
ATOM      7  C   UNL     1      -3.451  11.788  18.959  0.00  0.00    +0.000 A 
ATOM      8  C   UNL     1      -4.192  11.086  17.980  0.00  0.00    +0.000 A 
ATOM      9 CL   UNL     1      -5.924  11.062  17.962  0.00  0.00    +0.000 Cl
ATOM     10  C   UNL     1      -3.558  10.339  16.976  0.00  0.00    +0.000 A 
ATOM     11  C   UNL     1      -2.170  10.258  16.939  0.00  0.00    +0.000 A 
ATOM     12  C   UNL     1      -1.421  10.879  17.929  0.00  0.00    +0.000 A 
ATOM     13  C   UNL     1      -2.046  11.619  18.950  0.00  0.00    +0.000 A 
ENDBRANCH   3  13
ENDBRANCH   1   3
BRANCH   1  14
ATOM     14  C   UNL     1       1.150  10.420  20.338  0.00  0.00    +0.000 C 
BRANCH  14  15
ATOM     15  C   UNL     1       1.094   9.097  19.558  0.00  0.00    +0.000 C 
ATOM     16  C   UNL     1       2.127   9.210  18.419  0.00  0.00    +0.000 C 
ATOM     17  C   UNL     1       2.588   7.811  18.157  0.00  0.00    +0.000 C 
ATOM     18  O   UNL     1       3.270   7.493  17.187  0.00  0.00    +0.000 OA
ATOM     19  N   UNL     1       2.200   7.013  19.222  0.00  0.00    +0.000 N 
ATOM     20  C   UNL     1       1.530   7.805  20.253  0.00  0.00    +0.000 C 
BRANCH  19  21
ATOM     21  C   UNL     1       2.724   5.631  19.435  0.00  0.00    +0.000 C 
ATOM     22  C   UNL     1       2.216   5.060  20.775  0.00  0.00    +0.000 C 
ATOM     23  C   UNL     1       2.291   4.666  18.313  0.00  0.00    +0.000 C 
ATOM     24  C   UNL     1       4.270   5.636  19.462  0.00  0.00    +0.000 C 
ENDBRANCH  19  21
ENDBRANCH  14  15
ENDBRANCH   1  14
TORSDOF 5
ENDMDL
MODEL 8
REMARK VINA RESULT:      -6.2      2.720      4.119
REMARK  Name = 
REMARK  10 active torsions:
REMARK  status: ('A' for Active; 'I' for Inactive)
REMARK    1  A    between atoms: C_1  and  C_2
REMARK    2  A    between atoms: C_8  and  S_9
REMARK    3  A    between atoms: S_9  and  N_12
REMARK    4  A    between atoms: N_12  and  C_13
REMARK    5  A    between atoms: N_12  and  C_14
REMARK    6  A    between atoms: C_14  and  C_15
REMARK    7  A    between atoms: N_19  and  C_20
REMARK    8  A    between atoms: C_20  and  C_21
REMARK    9  A    between atoms: C_20  and  C_22
REMARK   10  A    between atoms: C_20  and  C_23
REMARK                            x       y       z     vdW  Elec       q    Type
REMARK                         _______ _______ _______ _____ _____    ______ ____
ROOT
ATOM      1  N   UNL     1       5.033   6.188  17.926  0.00  0.00    +0.000 NA
ATOM      2  C   UNL     1       6.387   6.847  17.923  0.00  0.00    +0.000 C 
ENDROOT
BRANCH   1   3
ATOM      3  S   UNL     1       5.136   4.565  17.344  0.00  0.00    +0.000 S 
ATOM      4  O   UNL     1       6.526   4.175  17.433  0.00  0.00    +0.000 OA
ATOM      5  O   UNL     1       4.433   4.498  16.080  0.00  0.00    +0.000 OA
BRANCH   3  13
ATOM      6  C   UNL     1       1.904   4.036  17.336  0.00  0.00    +0.000 C 
ATOM      7  C   UNL     1       2.731   3.534  18.490  0.00  0.00    +0.000 A 
ATOM      8  C   UNL     1       2.099   2.947  19.611  0.00  0.00    +0.000 A 
ATOM      9 CL   UNL     1       0.376   2.905  19.793  0.00  0.00    +0.000 Cl
ATOM     10  C   UNL     1       2.841   2.388  20.663  0.00  0.00    +0.000 A 
ATOM     11  C   UNL     1       4.231   2.420  20.629  0.00  0.00    +0.000 A 
ATOM     12  C   UNL     1       4.876   3.051  19.575  0.00  0.00    +0.000 A 
ATOM     13  C   UNL     1       4.143   3.631  18.522  0.00  0.00    +0.000 A 
ENDBRANCH   3  13
ENDBRANCH   1   3
BRANCH   1  14
ATOM     14  C   UNL     1       4.084   7.085  17.170  0.00  0.00    +0.000 C 
BRANCH  14  15
ATOM     15  C   UNL     1       2.707   7.407  17.771  0.00  0.00    +0.000 C 
ATOM     16  C   UNL     1       2.781   7.046  19.268  0.00  0.00    +0.000 C 
ATOM     17  C   UNL     1       1.820   7.967  19.951  0.00  0.00    +0.000 C 
ATOM     18  O   UNL     1       1.474   7.839  21.121  0.00  0.00    +0.000 OA
ATOM     19  N   UNL     1       1.499   8.994  19.076  0.00  0.00    +0.000 N 
ATOM     20  C   UNL     1       2.239   8.864  17.821  0.00  0.00    +0.000 C 
BRANCH  19  21
ATOM     21  C   UNL     1       0.791  10.236  19.507  0.00  0.00    +0.000 C 
ATOM     22  C   UNL     1      -0.711  10.146  19.170  0.00  0.00    +0.000 C 
ATOM     23  C   UNL     1       0.923  10.485  21.022  0.00  0.00    +0.000 C 
ATOM     24  C   UNL     1       1.378  11.472  18.787  0.00  0.00    +0.000 C 
ENDBRANCH  19  21
ENDBRANCH  14  15
ENDBRANCH   1  14
TORSDOF 5
ENDMDL
MODEL 9
REMARK VINA RESULT:      -6.1      1.374      2.076
REMARK  Name = 
REMARK  10 active torsions:
REMARK  status: ('A' for Active; 'I' for Inactive)
REMARK    1  A    between atoms: C_1  and  C_2
REMARK    2  A    between atoms: C_8  and  S_9
REMARK    3  A    between atoms: S_9  and  N_12
REMARK    4  A    between atoms: N_12  and  C_13
REMARK    5  A    between atoms: N_12  and  C_14
REMARK    6  A    between atoms: C_14  and  C_15
REMARK    7  A    between atoms: N_19  and  C_20
REMARK    8  A    between atoms: C_20  and  C_21
REMARK    9  A    between atoms: C_20  and  C_22
REMARK   10  A    between atoms: C_20  and  C_23
REMARK                            x       y       z     vdW  Elec       q    Type
REMARK                         _______ _______ _______ _____ _____    ______ ____
ROOT
ATOM      1  N   UNL     1       2.940   4.321  19.026  0.00  0.00    +0.000 NA
ATOM      2  C   UNL     1       2.233   2.998  19.156  0.00  0.00    +0.000 C 
ENDROOT
BRANCH   1   3
ATOM      3  S   UNL     1       4.640   4.138  19.281  0.00  0.00    +0.000 S 
ATOM      4  O   UNL     1       4.885   2.726  19.478  0.00  0.00    +0.000 OA
ATOM      5  O   UNL     1       5.047   5.102  20.282  0.00  0.00    +0.000 OA
BRANCH   3  13
ATOM      6  C   UNL     1       3.846   3.265  16.226  0.00  0.00    +0.000 C 
ATOM      7  C   UNL     1       5.017   4.186  16.450  0.00  0.00    +0.000 A 
ATOM      8  C   UNL     1       5.832   4.572  15.361  0.00  0.00    +0.000 A 
ATOM      9 CL   UNL     1       5.638   3.910  13.771  0.00  0.00    +0.000 Cl
ATOM     10  C   UNL     1       6.874   5.498  15.517  0.00  0.00    +0.000 A 
ATOM     11  C   UNL     1       7.139   6.046  16.767  0.00  0.00    +0.000 A 
ATOM     12  C   UNL     1       6.399   5.633  17.866  0.00  0.00    +0.000 A 
ATOM     13  C   UNL     1       5.362   4.692  17.727  0.00  0.00    +0.000 A 
ENDBRANCH   3  13
ENDBRANCH   1   3
BRANCH   1  14
ATOM     14  C   UNL     1       2.253   5.302  19.943  0.00  0.00    +0.000 C 
BRANCH  14  15
ATOM     15  C   UNL     1       2.545   6.804  19.797  0.00  0.00    +0.000 C 
ATOM     16  C   UNL     1       2.442   7.133  18.295  0.00  0.00    +0.000 C 
ATOM     17  C   UNL     1       2.007   8.562  18.226  0.00  0.00    +0.000 C 
ATOM     18  O   UNL     1       2.006   9.221  17.190  0.00  0.00    +0.000 OA
ATOM     19  N   UNL     1       1.535   8.939  19.474  0.00  0.00    +0.000 N 
ATOM     20  C   UNL     1       1.569   7.814  20.408  0.00  0.00    +0.000 C 
BRANCH  19  21
ATOM     21  C   UNL     1       0.767  10.198  19.706  0.00  0.00    +0.000 C 
ATOM     22  C   UNL     1       0.622  10.472  21.217  0.00  0.00    +0.000 C 
ATOM     23  C   UNL     1       1.451  11.423  19.065  0.00  0.00    +0.000 C 
ATOM     24  C   UNL     1      -0.648  10.091  19.092  0.00  0.00    +0.000 C 
ENDBRANCH  19  21
ENDBRANCH  14  15
ENDBRANCH   1  14
TORSDOF 5
ENDMDL
