MODEL 1
REMARK VINA RESULT:      -5.9      0.000      0.000
REMARK  Name = 
REMARK  7 active torsions:
REMARK  status: ('A' for Active; 'I' for Inactive)
REMARK    1  A    between atoms: C_1  and  C_2
REMARK    2  A    between atoms: C_2  and  N_3
REMARK    3  A    between atoms: C_4  and  S_5
REMARK    4  A    between atoms: C_8  and  C_9
REMARK    5  A    between atoms: C_9  and  S_10
REMARK    6  A    between atoms: S_10  and  C_11
REMARK    7  A    between atoms: C_11  and  C_12
REMARK                            x       y       z     vdW  Elec       q    Type
REMARK                         _______ _______ _______ _____ _____    ______ ____
ROOT
ATOM      1  N   UNL     1       6.056   4.630  17.502  0.00  0.00    +0.000 N 
ATOM      2  C   UNL     1       6.621   5.380  18.501  0.00  0.00    +0.000 A 
ATOM      3  N   UNL     1       6.142   4.998  19.662  0.00  0.00    +0.000 NA
ATOM      4  N   UNL     1       5.253   3.979  19.441  0.00  0.00    +0.000 NA
ATOM      5  C   UNL     1       5.188   3.762  18.141  0.00  0.00    +0.000 A 
ENDROOT
BRANCH   1   7
ATOM      6  C   UNL     1       5.392   5.678  15.357  0.00  0.00    +0.000 C 
ATOM      7  C   UNL     1       6.310   4.708  16.080  0.00  0.00    +0.000 C 
ENDBRANCH   1   7
BRANCH   2   8
ATOM      8  S   UNL     1       7.756   6.663  18.295  0.00  0.00    +0.000 S 
ATOM      9  H   UNL     1       8.898   5.973  18.251  0.00  0.00    +0.000 HD
ENDBRANCH   2   8
BRANCH   5  10
ATOM     10  C   UNL     1       4.273   2.778  17.498  0.00  0.00    +0.000 C 
BRANCH  10  11
ATOM     11  S   UNL     1       2.999   2.103  18.603  0.00  0.00    +0.000 S 
BRANCH  11  12
ATOM     12  C   UNL     1       1.614   3.213  18.192  0.00  0.00    +0.000 C 
BRANCH  12  13
ATOM     13  C   UNL     1       1.846   4.592  18.761  0.00  0.00    +0.000 A 
ATOM     14  C   UNL     1       1.616   4.852  20.122  0.00  0.00    +0.000 A 
ATOM     15  C   UNL     1       1.830   6.128  20.646  0.00  0.00    +0.000 A 
ATOM     16  C   UNL     1       2.268   7.160  19.817  0.00  0.00    +0.000 A 
ATOM     17  C   UNL     1       2.486   6.917  18.462  0.00  0.00    +0.000 A 
ATOM     18  C   UNL     1       2.272   5.642  17.936  0.00  0.00    +0.000 A 
ENDBRANCH  12  13
ENDBRANCH  11  12
ENDBRANCH  10  11
ENDBRANCH   5  10
TORSDOF 6
ENDMDL
MODEL 2
REMARK VINA RESULT:      -5.9      2.519      5.937
REMARK  Name = 
REMARK  7 active torsions:
REMARK  status: ('A' for Active; 'I' for Inactive)
REMARK    1  A    between atoms: C_1  and  C_2
REMARK    2  A    between atoms: C_2  and  N_3
REMARK    3  A    between atoms: C_4  and  S_5
REMARK    4  A    between atoms: C_8  and  C_9
REMARK    5  A    between atoms: C_9  and  S_10
REMARK    6  A    between atoms: S_10  and  C_11
REMARK    7  A    between atoms: C_11  and  C_12
REMARK                            x       y       z     vdW  Elec       q    Type
REMARK                         _______ _______ _______ _____ _____    ______ ____
ROOT
ATOM      1  N   UNL     1       3.700   3.620  19.638  0.00  0.00    +0.000 N 
ATOM      2  C   UNL     1       2.566   4.082  20.256  0.00  0.00    +0.000 A 
ATOM      3  N   UNL     1       2.517   5.390  20.163  0.00  0.00    +0.000 NA
ATOM      4  N   UNL     1       3.624   5.809  19.473  0.00  0.00    +0.000 NA
ATOM      5  C   UNL     1       4.346   4.749  19.165  0.00  0.00    +0.000 A 
ENDROOT
BRANCH   1   7
ATOM      6  C   UNL     1       3.527   1.544  18.294  0.00  0.00    +0.000 C 
ATOM      7  C   UNL     1       4.138   2.249  19.493  0.00  0.00    +0.000 C 
ENDBRANCH   1   7
BRANCH   2   8
ATOM      8  S   UNL     1       1.389   3.122  21.075  0.00  0.00    +0.000 S 
ATOM      9  H   UNL     1       1.449   1.998  20.357  0.00  0.00    +0.000 HD
ENDBRANCH   2   8
BRANCH   5  10
ATOM     10  C   UNL     1       5.665   4.801  18.475  0.00  0.00    +0.000 C 
BRANCH  10  11
ATOM     11  S   UNL     1       5.632   5.617  16.852  0.00  0.00    +0.000 S 
BRANCH  11  12
ATOM     12  C   UNL     1       5.177   4.198  15.803  0.00  0.00    +0.000 C 
BRANCH  12  13
ATOM     13  C   UNL     1       5.911   4.251  14.484  0.00  0.00    +0.000 A 
ATOM     14  C   UNL     1       5.460   3.504  13.384  0.00  0.00    +0.000 A 
ATOM     15  C   UNL     1       6.141   3.554  12.166  0.00  0.00    +0.000 A 
ATOM     16  C   UNL     1       7.283   4.342  12.035  0.00  0.00    +0.000 A 
ATOM     17  C   UNL     1       7.749   5.076  13.125  0.00  0.00    +0.000 A 
ATOM     18  C   UNL     1       7.069   5.028  14.344  0.00  0.00    +0.000 A 
ENDBRANCH  12  13
ENDBRANCH  11  12
ENDBRANCH  10  11
ENDBRANCH   5  10
TORSDOF 6
ENDMDL
MODEL 3
REMARK VINA RESULT:      -5.8      0.547      1.338
REMARK  Name = 
REMARK  7 active torsions:
REMARK  status: ('A' for Active; 'I' for Inactive)
REMARK    1  A    between atoms: C_1  and  C_2
REMARK    2  A    between atoms: C_2  and  N_3
REMARK    3  A    between atoms: C_4  and  S_5
REMARK    4  A    between atoms: C_8  and  C_9
REMARK    5  A    between atoms: C_9  and  S_10
REMARK    6  A    between atoms: S_10  and  C_11
REMARK    7  A    between atoms: C_11  and  C_12
REMARK                            x       y       z     vdW  Elec       q    Type
REMARK                         _______ _______ _______ _____ _____    ______ ____
ROOT
ATOM      1  N   UNL     1       5.811   5.020  17.025  0.00  0.00    +0.000 N 
ATOM      2  C   UNL     1       6.566   5.714  17.936  0.00  0.00    +0.000 A 
ATOM      3  N   UNL     1       6.445   5.160  19.120  0.00  0.00    +0.000 NA
ATOM      4  N   UNL     1       5.608   4.083  19.002  0.00  0.00    +0.000 NA
ATOM      5  C   UNL     1       5.213   4.001  17.745  0.00  0.00    +0.000 A 
ENDROOT
BRANCH   1   7
ATOM      6  C   UNL     1       6.493   4.345  14.740  0.00  0.00    +0.000 C 
ATOM      7  C   UNL     1       5.668   5.278  15.609  0.00  0.00    +0.000 C 
ENDBRANCH   1   7
BRANCH   2   8
ATOM      8  S   UNL     1       7.505   7.126  17.616  0.00  0.00    +0.000 S 
ATOM      9  H   UNL     1       6.538   8.042  17.511  0.00  0.00    +0.000 HD
ENDBRANCH   2   8
BRANCH   5  10
ATOM     10  C   UNL     1       4.236   3.000  17.235  0.00  0.00    +0.000 C 
BRANCH  10  11
ATOM     11  S   UNL     1       3.189   2.250  18.518  0.00  0.00    +0.000 S 
BRANCH  11  12
ATOM     12  C   UNL     1       1.671   3.231  18.290  0.00  0.00    +0.000 C 
BRANCH  12  13
ATOM     13  C   UNL     1       1.849   4.627  18.839  0.00  0.00    +0.000 A 
ATOM     14  C   UNL     1       2.253   5.679  18.002  0.00  0.00    +0.000 A 
ATOM     15  C   UNL     1       2.419   6.968  18.512  0.00  0.00    +0.000 A 
ATOM     16  C   UNL     1       2.191   7.219  19.864  0.00  0.00    +0.000 A 
ATOM     17  C   UNL     1       1.804   6.179  20.708  0.00  0.00    +0.000 A 
ATOM     18  C   UNL     1       1.639   4.890  20.200  0.00  0.00    +0.000 A 
ENDBRANCH  12  13
ENDBRANCH  11  12
ENDBRANCH  10  11
ENDBRANCH   5  10
TORSDOF 6
ENDMDL
MODEL 4
REMARK VINA RESULT:      -5.7      2.241      3.306
REMARK  Name = 
REMARK  7 active torsions:
REMARK  status: ('A' for Active; 'I' for Inactive)
REMARK    1  A    between atoms: C_1  and  C_2
REMARK    2  A    between atoms: C_2  and  N_3
REMARK    3  A    between atoms: C_4  and  S_5
REMARK    4  A    between atoms: C_8  and  C_9
REMARK    5  A    between atoms: C_9  and  S_10
REMARK    6  A    between atoms: S_10  and  C_11
REMARK    7  A    between atoms: C_11  and  C_12
REMARK                            x       y       z     vdW  Elec       q    Type
REMARK                         _______ _______ _______ _____ _____    ______ ____
ROOT
ATOM      1  N   UNL     1       5.518   5.633  17.029  0.00  0.00    +0.000 N 
ATOM      2  C   UNL     1       5.662   4.588  16.153  0.00  0.00    +0.000 A 
ATOM      3  N   UNL     1       4.946   3.568  16.564  0.00  0.00    +0.000 NA
ATOM      4  N   UNL     1       4.312   3.933  17.722  0.00  0.00    +0.000 NA
ATOM      5  C   UNL     1       4.663   5.171  18.014  0.00  0.00    +0.000 A 
ENDROOT
BRANCH   1   7
ATOM      6  C   UNL     1       7.461   7.041  17.653  0.00  0.00    +0.000 C 
ATOM      7  C   UNL     1       6.117   6.948  16.951  0.00  0.00    +0.000 C 
ENDBRANCH   1   7
BRANCH   2   8
ATOM      8  S   UNL     1       6.657   4.570  14.743  0.00  0.00    +0.000 S 
ATOM      9  H   UNL     1       7.765   4.011  15.235  0.00  0.00    +0.000 HD
ENDBRANCH   2   8
BRANCH   5  10
ATOM     10  C   UNL     1       4.238   5.898  19.242  0.00  0.00    +0.000 C 
BRANCH  10  11
ATOM     11  S   UNL     1       2.747   6.917  19.033  0.00  0.00    +0.000 S 
BRANCH  11  12
ATOM     12  C   UNL     1       1.757   6.306  20.436  0.00  0.00    +0.000 C 
BRANCH  12  13
ATOM     13  C   UNL     1       1.685   4.798  20.422  0.00  0.00    +0.000 A 
ATOM     14  C   UNL     1       2.171   4.048  21.505  0.00  0.00    +0.000 A 
ATOM     15  C   UNL     1       2.104   2.654  21.490  0.00  0.00    +0.000 A 
ATOM     16  C   UNL     1       1.559   1.992  20.391  0.00  0.00    +0.000 A 
ATOM     17  C   UNL     1       1.087   2.725  19.303  0.00  0.00    +0.000 A 
ATOM     18  C   UNL     1       1.154   4.120  19.316  0.00  0.00    +0.000 A 
ENDBRANCH  12  13
ENDBRANCH  11  12
ENDBRANCH  10  11
ENDBRANCH   5  10
TORSDOF 6
ENDMDL
MODEL 5
REMARK VINA RESULT:      -5.7      2.232      3.453
REMARK  Name = 
REMARK  7 active torsions:
REMARK  status: ('A' for Active; 'I' for Inactive)
REMARK    1  A    between atoms: C_1  and  C_2
REMARK    2  A    between atoms: C_2  and  N_3
REMARK    3  A    between atoms: C_4  and  S_5
REMARK    4  A    between atoms: C_8  and  C_9
REMARK    5  A    between atoms: C_9  and  S_10
REMARK    6  A    between atoms: S_10  and  C_11
REMARK    7  A    between atoms: C_11  and  C_12
REMARK                            x       y       z     vdW  Elec       q    Type
REMARK                         _______ _______ _______ _____ _____    ______ ____
ROOT
ATOM      1  N   UNL     1       5.548   5.694  17.010  0.00  0.00    +0.000 N 
ATOM      2  C   UNL     1       5.708   4.687  16.092  0.00  0.00    +0.000 A 
ATOM      3  N   UNL     1       5.004   3.642  16.459  0.00  0.00    +0.000 NA
ATOM      4  N   UNL     1       4.361   3.952  17.629  0.00  0.00    +0.000 NA
ATOM      5  C   UNL     1       4.695   5.181  17.972  0.00  0.00    +0.000 A 
ENDROOT
BRANCH   1   7
ATOM      6  C   UNL     1       7.489   7.091  17.662  0.00  0.00    +0.000 C 
ATOM      7  C   UNL     1       6.130   7.018  16.987  0.00  0.00    +0.000 C 
ENDBRANCH   1   7
BRANCH   2   8
ATOM      8  S   UNL     1       6.707   4.738  14.686  0.00  0.00    +0.000 S 
ATOM      9  H   UNL     1       6.976   3.440  14.532  0.00  0.00    +0.000 HD
ENDBRANCH   2   8
BRANCH   5  10
ATOM     10  C   UNL     1       4.256   5.853  19.226  0.00  0.00    +0.000 C 
BRANCH  10  11
ATOM     11  S   UNL     1       2.796   6.919  19.036  0.00  0.00    +0.000 S 
BRANCH  11  12
ATOM     12  C   UNL     1       1.775   6.291  20.408  0.00  0.00    +0.000 C 
BRANCH  12  13
ATOM     13  C   UNL     1       1.702   4.783  20.373  0.00  0.00    +0.000 A 
ATOM     14  C   UNL     1       1.144   4.120  19.268  0.00  0.00    +0.000 A 
ATOM     15  C   UNL     1       1.076   2.725  19.238  0.00  0.00    +0.000 A 
ATOM     16  C   UNL     1       1.556   1.979  20.313  0.00  0.00    +0.000 A 
ATOM     17  C   UNL     1       2.098   2.627  21.422  0.00  0.00    +0.000 A 
ATOM     18  C   UNL     1       2.166   4.021  21.454  0.00  0.00    +0.000 A 
ENDBRANCH  12  13
ENDBRANCH  11  12
ENDBRANCH  10  11
ENDBRANCH   5  10
TORSDOF 6
ENDMDL
MODEL 6
REMARK VINA RESULT:      -5.7      2.363      5.905
REMARK  Name = 
REMARK  7 active torsions:
REMARK  status: ('A' for Active; 'I' for Inactive)
REMARK    1  A    between atoms: C_1  and  C_2
REMARK    2  A    between atoms: C_2  and  N_3
REMARK    3  A    between atoms: C_4  and  S_5
REMARK    4  A    between atoms: C_8  and  C_9
REMARK    5  A    between atoms: C_9  and  S_10
REMARK    6  A    between atoms: S_10  and  C_11
REMARK    7  A    between atoms: C_11  and  C_12
REMARK                            x       y       z     vdW  Elec       q    Type
REMARK                         _______ _______ _______ _____ _____    ______ ____
ROOT
ATOM      1  N   UNL     1       3.509   4.621  19.598  0.00  0.00    +0.000 N 
ATOM      2  C   UNL     1       2.979   3.445  20.063  0.00  0.00    +0.000 A 
ATOM      3  N   UNL     1       3.848   2.475  19.898  0.00  0.00    +0.000 NA
ATOM      4  N   UNL     1       4.973   3.006  19.325  0.00  0.00    +0.000 NA
ATOM      5  C   UNL     1       4.770   4.295  19.129  0.00  0.00    +0.000 A 
ENDROOT
BRANCH   1   7
ATOM      6  C   UNL     1       2.202   6.274  18.292  0.00  0.00    +0.000 C 
ATOM      7  C   UNL     1       2.899   5.932  19.598  0.00  0.00    +0.000 C 
ENDBRANCH   1   7
BRANCH   2   8
ATOM      8  S   UNL     1       1.400   3.230  20.726  0.00  0.00    +0.000 S 
ATOM      9  H   UNL     1       1.555   2.059  21.348  0.00  0.00    +0.000 HD
ENDBRANCH   2   8
BRANCH   5  10
ATOM     10  C   UNL     1       5.736   5.206  18.457  0.00  0.00    +0.000 C 
BRANCH  10  11
ATOM     11  S   UNL     1       5.342   5.570  16.720  0.00  0.00    +0.000 S 
BRANCH  11  12
ATOM     12  C   UNL     1       5.725   3.954  15.972  0.00  0.00    +0.000 C 
BRANCH  12  13
ATOM     13  C   UNL     1       6.270   4.127  14.574  0.00  0.00    +0.000 A 
ATOM     14  C   UNL     1       7.270   5.075  14.309  0.00  0.00    +0.000 A 
ATOM     15  C   UNL     1       7.772   5.235  13.015  0.00  0.00    +0.000 A 
ATOM     16  C   UNL     1       7.274   4.456  11.972  0.00  0.00    +0.000 A 
ATOM     17  C   UNL     1       6.270   3.521  12.220  0.00  0.00    +0.000 A 
ATOM     18  C   UNL     1       5.767   3.361  13.513  0.00  0.00    +0.000 A 
ENDBRANCH  12  13
ENDBRANCH  11  12
ENDBRANCH  10  11
ENDBRANCH   5  10
TORSDOF 6
ENDMDL
MODEL 7
REMARK VINA RESULT:      -5.7      2.213      3.608
REMARK  Name = 
REMARK  7 active torsions:
REMARK  status: ('A' for Active; 'I' for Inactive)
REMARK    1  A    between atoms: C_1  and  C_2
REMARK    2  A    between atoms: C_2  and  N_3
REMARK    3  A    between atoms: C_4  and  S_5
REMARK    4  A    between atoms: C_8  and  C_9
REMARK    5  A    between atoms: C_9  and  S_10
REMARK    6  A    between atoms: S_10  and  C_11
REMARK    7  A    between atoms: C_11  and  C_12
REMARK                            x       y       z     vdW  Elec       q    Type
REMARK                         _______ _______ _______ _____ _____    ______ ____
ROOT
ATOM      1  N   UNL     1       5.610   4.875  16.067  0.00  0.00    +0.000 N 
ATOM      2  C   UNL     1       6.599   4.905  15.117  0.00  0.00    +0.000 A 
ATOM      3  N   UNL     1       7.505   5.793  15.455  0.00  0.00    +0.000 NA
ATOM      4  N   UNL     1       7.125   6.358  16.643  0.00  0.00    +0.000 NA
ATOM      5  C   UNL     1       5.978   5.818  17.011  0.00  0.00    +0.000 A 
ENDROOT
BRANCH   1   7
ATOM      6  C   UNL     1       4.466   2.989  17.198  0.00  0.00    +0.000 C 
ATOM      7  C   UNL     1       4.432   4.035  16.097  0.00  0.00    +0.000 C 
ENDBRANCH   1   7
BRANCH   2   8
ATOM      8  S   UNL     1       6.651   3.968  13.670  0.00  0.00    +0.000 S 
ATOM      9  H   UNL     1       5.624   3.140  13.879  0.00  0.00    +0.000 HD
ENDBRANCH   2   8
BRANCH   5  10
ATOM     10  C   UNL     1       5.205   6.225  18.216  0.00  0.00    +0.000 C 
BRANCH  10  11
ATOM     11  S   UNL     1       3.573   6.940  17.856  0.00  0.00    +0.000 S 
BRANCH  11  12
ATOM     12  C   UNL     1       2.779   6.729  19.482  0.00  0.00    +0.000 C 
BRANCH  12  13
ATOM     13  C   UNL     1       2.195   5.343  19.616  0.00  0.00    +0.000 A 
ATOM     14  C   UNL     1       1.686   4.669  18.495  0.00  0.00    +0.000 A 
ATOM     15  C   UNL     1       1.145   3.388  18.622  0.00  0.00    +0.000 A 
ATOM     16  C   UNL     1       1.100   2.769  19.870  0.00  0.00    +0.000 A 
ATOM     17  C   UNL     1       1.589   3.434  20.993  0.00  0.00    +0.000 A 
ATOM     18  C   UNL     1       2.129   4.715  20.869  0.00  0.00    +0.000 A 
ENDBRANCH  12  13
ENDBRANCH  11  12
ENDBRANCH  10  11
ENDBRANCH   5  10
TORSDOF 6
ENDMDL
MODEL 8
REMARK VINA RESULT:      -5.6      2.304      6.032
REMARK  Name = 
REMARK  7 active torsions:
REMARK  status: ('A' for Active; 'I' for Inactive)
REMARK    1  A    between atoms: C_1  and  C_2
REMARK    2  A    between atoms: C_2  and  N_3
REMARK    3  A    between atoms: C_4  and  S_5
REMARK    4  A    between atoms: C_8  and  C_9
REMARK    5  A    between atoms: C_9  and  S_10
REMARK    6  A    between atoms: S_10  and  C_11
REMARK    7  A    between atoms: C_11  and  C_12
REMARK                            x       y       z     vdW  Elec       q    Type
REMARK                         _______ _______ _______ _____ _____    ______ ____
ROOT
ATOM      1  N   UNL     1       3.322   4.634  19.065  0.00  0.00    +0.000 N 
ATOM      2  C   UNL     1       2.990   3.411  19.587  0.00  0.00    +0.000 A 
ATOM      3  N   UNL     1       4.077   2.695  19.757  0.00  0.00    +0.000 NA
ATOM      4  N   UNL     1       5.148   3.447  19.352  0.00  0.00    +0.000 NA
ATOM      5  C   UNL     1       4.699   4.611  18.922  0.00  0.00    +0.000 A 
ENDROOT
BRANCH   1   7
ATOM      6  C   UNL     1       2.290   6.743  19.860  0.00  0.00    +0.000 C 
ATOM      7  C   UNL     1       2.438   5.731  18.737  0.00  0.00    +0.000 C 
ENDBRANCH   1   7
BRANCH   2   8
ATOM      8  S   UNL     1       1.395   2.851  19.937  0.00  0.00    +0.000 S 
ATOM      9  H   UNL     1       0.854   2.883  18.716  0.00  0.00    +0.000 HD
ENDBRANCH   2   8
BRANCH   5  10
ATOM     10  C   UNL     1       5.554   5.676  18.330  0.00  0.00    +0.000 C 
BRANCH  10  11
ATOM     11  S   UNL     1       5.334   5.909  16.541  0.00  0.00    +0.000 S 
BRANCH  11  12
ATOM     12  C   UNL     1       6.957   5.327  15.952  0.00  0.00    +0.000 C 
BRANCH  12  13
ATOM     13  C   UNL     1       6.862   4.825  14.531  0.00  0.00    +0.000 A 
ATOM     14  C   UNL     1       5.915   3.852  14.178  0.00  0.00    +0.000 A 
ATOM     15  C   UNL     1       5.830   3.388  12.864  0.00  0.00    +0.000 A 
ATOM     16  C   UNL     1       6.695   3.885  11.890  0.00  0.00    +0.000 A 
ATOM     17  C   UNL     1       7.651   4.841  12.232  0.00  0.00    +0.000 A 
ATOM     18  C   UNL     1       7.737   5.305  13.546  0.00  0.00    +0.000 A 
ENDBRANCH  12  13
ENDBRANCH  11  12
ENDBRANCH  10  11
ENDBRANCH   5  10
TORSDOF 6
ENDMDL
MODEL 9
REMARK VINA RESULT:      -5.6      2.335      3.588
REMARK  Name = 
REMARK  7 active torsions:
REMARK  status: ('A' for Active; 'I' for Inactive)
REMARK    1  A    between atoms: C_1  and  C_2
REMARK    2  A    between atoms: C_2  and  N_3
REMARK    3  A    between atoms: C_4  and  S_5
REMARK    4  A    between atoms: C_8  and  C_9
REMARK    5  A    between atoms: C_9  and  S_10
REMARK    6  A    between atoms: S_10  and  C_11
REMARK    7  A    between atoms: C_11  and  C_12
REMARK                            x       y       z     vdW  Elec       q    Type
REMARK                         _______ _______ _______ _____ _____    ______ ____
ROOT
ATOM      1  N   UNL     1       5.008   4.808  16.604  0.00  0.00    +0.000 N 
ATOM      2  C   UNL     1       5.750   4.965  15.462  0.00  0.00    +0.000 A 
ATOM      3  N   UNL     1       6.277   6.167  15.442  0.00  0.00    +0.000 NA
ATOM      4  N   UNL     1       5.891   6.820  16.583  0.00  0.00    +0.000 NA
ATOM      5  C   UNL     1       5.116   6.011  17.281  0.00  0.00    +0.000 A 
ENDROOT
BRANCH   1   7
ATOM      6  C   UNL     1       4.624   3.185  18.438  0.00  0.00    +0.000 C 
ATOM      7  C   UNL     1       4.272   3.639  17.032  0.00  0.00    +0.000 C 
ENDBRANCH   1   7
BRANCH   2   8
ATOM      8  S   UNL     1       5.944   3.800  14.204  0.00  0.00    +0.000 S 
ATOM      9  H   UNL     1       5.003   4.207  13.348  0.00  0.00    +0.000 HD
ENDBRANCH   2   8
BRANCH   5  10
ATOM     10  C   UNL     1       4.438   6.385  18.552  0.00  0.00    +0.000 C 
BRANCH  10  11
ATOM     11  S   UNL     1       2.722   6.951  18.349  0.00  0.00    +0.000 S 
BRANCH  11  12
ATOM     12  C   UNL     1       2.073   6.565  20.008  0.00  0.00    +0.000 C 
BRANCH  12  13
ATOM     13  C   UNL     1       1.867   5.078  20.169  0.00  0.00    +0.000 A 
ATOM     14  C   UNL     1       2.309   4.416  21.325  0.00  0.00    +0.000 A 
ATOM     15  C   UNL     1       2.118   3.040  21.472  0.00  0.00    +0.000 A 
ATOM     16  C   UNL     1       1.493   2.310  20.462  0.00  0.00    +0.000 A 
ATOM     17  C   UNL     1       1.064   2.954  19.302  0.00  0.00    +0.000 A 
ATOM     18  C   UNL     1       1.254   4.330  19.155  0.00  0.00    +0.000 A 
ENDBRANCH  12  13
ENDBRANCH  11  12
ENDBRANCH  10  11
ENDBRANCH   5  10
TORSDOF 6
ENDMDL
