MODEL 1
REMARK VINA RESULT:      -8.0      0.000      0.000
REMARK  Name = 
REMARK  10 active torsions:
REMARK  status: ('A' for Active; 'I' for Inactive)
REMARK    1  A    between atoms: C_1  and  O_2
REMARK    2  A    between atoms: O_2  and  C_3
REMARK    3  A    between atoms: C_6  and  N_7
REMARK    4  A    between atoms: N_10  and  C_11
REMARK    5  A    between atoms: C_15  and  C_16
REMARK    6  A    between atoms: C_16  and  C_17
REMARK    7  A    between atoms: C_17  and  C_18
REMARK    8  A    between atoms: C_18  and  C_19
REMARK    9  A    between atoms: C_19  and  C_20
REMARK   10  A    between atoms: N_29  and  C_30
REMARK                            x       y       z     vdW  Elec       q    Type
REMARK                         _______ _______ _______ _____ _____    ______ ____
ROOT
ATOM      1  C   UNL     1       7.358   5.685  17.342  0.00  0.00    +0.000 C 
ATOM      2  C   UNL     1       6.960   5.749  15.849  0.00  0.00    +0.000 C 
ATOM      3  C   UNL     1       5.451   5.753  15.574  0.00  0.00    +0.000 C 
ATOM      4  C   UNL     1       4.702   4.667  16.349  0.00  0.00    +0.000 C 
ATOM      5  C   UNL     1       4.982   4.730  17.853  0.00  0.00    +0.000 C 
ATOM      6  C   UNL     1       6.519   4.573  18.035  0.00  0.00    +0.000 C 
ENDROOT
BRANCH   1  10
ATOM      7  N   UNL     1       7.993   9.151  18.442  0.00  0.00    +0.000 N 
ATOM      8  C   UNL     1       8.038   8.078  17.562  0.00  0.00    +0.000 C 
ATOM      9  O   UNL     1       8.720   8.003  16.551  0.00  0.00    +0.000 OA
ATOM     10  N   UNL     1       7.275   7.004  18.008  0.00  0.00    +0.000 N 
ATOM     11  H   UNL     1       7.455   9.018  19.282  0.00  0.00    +0.000 HD
ATOM     12  H   UNL     1       6.380   7.263  18.395  0.00  0.00    +0.000 HD
BRANCH   7  16
ATOM     13  C   UNL     1      10.170  12.804  18.334  0.00  0.00    +0.000 A 
ATOM     14  C   UNL     1       8.976  12.681  17.630  0.00  0.00    +0.000 A 
ATOM     15  C   UNL     1       8.259  11.479  17.636  0.00  0.00    +0.000 A 
ATOM     16  C   UNL     1       8.723  10.368  18.341  0.00  0.00    +0.000 A 
ATOM     17  C   UNL     1       9.965  10.476  18.990  0.00  0.00    +0.000 A 
ATOM     18  C   UNL     1      10.687  11.687  18.985  0.00  0.00    +0.000 A 
BRANCH  13  20
ATOM     19  C   UNL     1      12.154  14.081  18.521  0.00  0.00    +0.000 C 
ATOM     20  O   UNL     1      10.752  14.040  18.277  0.00  0.00    +0.000 OA
ENDBRANCH  13  20
ENDBRANCH   7  16
ENDBRANCH   1  10
BRANCH   5  21
ATOM     21  C   UNL     1       4.528   6.020  18.558  0.00  0.00    +0.000 C 
BRANCH  21  22
ATOM     22  C   UNL     1       3.075   6.422  18.735  0.00  0.00    +0.000 C 
ATOM     23  N   UNL     1       2.683   6.600  20.125  0.00  0.00    +0.000 N 
ATOM     24  C   UNL     1       1.979   7.737  20.281  0.00  0.00    +0.000 C 
ATOM     25  N   UNL     1       1.499   8.178  21.381  0.00  0.00    +0.000 NA
ATOM     26  N   UNL     1       1.855   8.377  19.098  0.00  0.00    +0.000 N 
ATOM     27  C   UNL     1       0.985   9.490  18.827  0.00  0.00    +0.000 C 
ATOM     28  C   UNL     1       2.634   7.766  18.131  0.00  0.00    +0.000 C 
ATOM     29  O   UNL     1       2.843   8.157  16.991  0.00  0.00    +0.000 OA
ATOM     30  H   UNL     1       3.223   6.220  20.887  0.00  0.00    +0.000 HD
ATOM     31  H   UNL     1       1.719   7.512  22.126  0.00  0.00    +0.000 HD
BRANCH  22  32
ATOM     32  C   UNL     1       2.168   5.346  18.062  0.00  0.00    +0.000 C 
BRANCH  32  33
ATOM     33  C   UNL     1       1.218   4.552  18.973  0.00  0.00    +0.000 C 
BRANCH  33  34
ATOM     34  C   UNL     1       1.397   3.022  18.982  0.00  0.00    +0.000 C 
ATOM     35  C   UNL     1       2.871   2.599  19.032  0.00  0.00    +0.000 C 
ATOM     36  C   UNL     1       3.514   2.966  20.365  0.00  0.00    +0.000 C 
ATOM     37  C   UNL     1       2.751   2.339  21.528  0.00  0.00    +0.000 C 
ATOM     38  C   UNL     1       1.259   2.670  21.504  0.00  0.00    +0.000 C 
ATOM     39  C   UNL     1       0.626   2.382  20.147  0.00  0.00    +0.000 C 
ENDBRANCH  33  34
ENDBRANCH  32  33
ENDBRANCH  22  32
ENDBRANCH  21  22
ENDBRANCH   5  21
TORSDOF 8
ENDMDL
MODEL 2
REMARK VINA RESULT:      -7.8      0.972      1.337
REMARK  Name = 
REMARK  10 active torsions:
REMARK  status: ('A' for Active; 'I' for Inactive)
REMARK    1  A    between atoms: C_1  and  O_2
REMARK    2  A    between atoms: O_2  and  C_3
REMARK    3  A    between atoms: C_6  and  N_7
REMARK    4  A    between atoms: N_10  and  C_11
REMARK    5  A    between atoms: C_15  and  C_16
REMARK    6  A    between atoms: C_16  and  C_17
REMARK    7  A    between atoms: C_17  and  C_18
REMARK    8  A    between atoms: C_18  and  C_19
REMARK    9  A    between atoms: C_19  and  C_20
REMARK   10  A    between atoms: N_29  and  C_30
REMARK                            x       y       z     vdW  Elec       q    Type
REMARK                         _______ _______ _______ _____ _____    ______ ____
ROOT
ATOM      1  C   UNL     1       6.988   5.262  17.625  0.00  0.00    +0.000 C 
ATOM      2  C   UNL     1       6.685   4.395  16.382  0.00  0.00    +0.000 C 
ATOM      3  C   UNL     1       5.196   4.220  16.054  0.00  0.00    +0.000 C 
ATOM      4  C   UNL     1       4.359   3.834  17.275  0.00  0.00    +0.000 C 
ATOM      5  C   UNL     1       4.550   4.807  18.441  0.00  0.00    +0.000 C 
ATOM      6  C   UNL     1       6.066   4.804  18.790  0.00  0.00    +0.000 C 
ENDROOT
BRANCH   1  10
ATOM      7  N   UNL     1       7.479   8.921  17.680  0.00  0.00    +0.000 N 
ATOM      8  C   UNL     1       7.841   7.596  17.883  0.00  0.00    +0.000 C 
ATOM      9  O   UNL     1       8.798   7.201  18.533  0.00  0.00    +0.000 OA
ATOM     10  N   UNL     1       6.917   6.712  17.335  0.00  0.00    +0.000 N 
ATOM     11  H   UNL     1       6.607   9.078  17.203  0.00  0.00    +0.000 HD
ATOM     12  H   UNL     1       6.579   6.977  16.422  0.00  0.00    +0.000 HD
BRANCH   7  16
ATOM     13  C   UNL     1       9.556  12.388  19.009  0.00  0.00    +0.000 A 
ATOM     14  C   UNL     1       9.697  11.184  19.692  0.00  0.00    +0.000 A 
ATOM     15  C   UNL     1       9.003  10.039  19.282  0.00  0.00    +0.000 A 
ATOM     16  C   UNL     1       8.145  10.073  18.182  0.00  0.00    +0.000 A 
ATOM     17  C   UNL     1       7.951  11.309  17.541  0.00  0.00    +0.000 A 
ATOM     18  C   UNL     1       8.651  12.462  17.953  0.00  0.00    +0.000 A 
BRANCH  13  20
ATOM     19  C   UNL     1      11.394  13.835  18.655  0.00  0.00    +0.000 C 
ATOM     20  O   UNL     1      10.316  13.418  19.486  0.00  0.00    +0.000 OA
ENDBRANCH  13  20
ENDBRANCH   7  16
ENDBRANCH   1  10
BRANCH   5  21
ATOM     21  C   UNL     1       4.105   6.256  18.174  0.00  0.00    +0.000 C 
BRANCH  21  22
ATOM     22  C   UNL     1       2.736   6.802  18.537  0.00  0.00    +0.000 C 
ATOM     23  N   UNL     1       2.491   6.857  19.971  0.00  0.00    +0.000 N 
ATOM     24  C   UNL     1       1.954   8.041  20.319  0.00  0.00    +0.000 C 
ATOM     25  N   UNL     1       1.632   8.401  21.502  0.00  0.00    +0.000 NA
ATOM     26  N   UNL     1       1.813   8.828  19.230  0.00  0.00    +0.000 N 
ATOM     27  C   UNL     1       1.072  10.060  19.170  0.00  0.00    +0.000 C 
ATOM     28  C   UNL     1       2.421   8.250  18.130  0.00  0.00    +0.000 C 
ATOM     29  O   UNL     1       2.579   8.748  17.024  0.00  0.00    +0.000 OA
ATOM     30  H   UNL     1       3.041   6.328  20.629  0.00  0.00    +0.000 HD
ATOM     31  H   UNL     1       1.828   7.629  22.145  0.00  0.00    +0.000 HD
BRANCH  22  32
ATOM     32  C   UNL     1       1.645   5.928  17.846  0.00  0.00    +0.000 C 
BRANCH  32  33
ATOM     33  C   UNL     1       1.801   4.401  17.934  0.00  0.00    +0.000 C 
BRANCH  33  34
ATOM     34  C   UNL     1       0.799   3.660  18.839  0.00  0.00    +0.000 C 
ATOM     35  C   UNL     1       1.020   2.141  18.849  0.00  0.00    +0.000 C 
ATOM     36  C   UNL     1       2.336   1.772  19.524  0.00  0.00    +0.000 C 
ATOM     37  C   UNL     1       2.388   2.316  20.948  0.00  0.00    +0.000 C 
ATOM     38  C   UNL     1       2.113   3.818  21.018  0.00  0.00    +0.000 C 
ATOM     39  C   UNL     1       0.840   4.207  20.274  0.00  0.00    +0.000 C 
ENDBRANCH  33  34
ENDBRANCH  32  33
ENDBRANCH  22  32
ENDBRANCH  21  22
ENDBRANCH   5  21
TORSDOF 8
ENDMDL
MODEL 3
REMARK VINA RESULT:      -7.8      5.019     10.109
REMARK  Name = 
REMARK  10 active torsions:
REMARK  status: ('A' for Active; 'I' for Inactive)
REMARK    1  A    between atoms: C_1  and  O_2
REMARK    2  A    between atoms: O_2  and  C_3
REMARK    3  A    between atoms: C_6  and  N_7
REMARK    4  A    between atoms: N_10  and  C_11
REMARK    5  A    between atoms: C_15  and  C_16
REMARK    6  A    between atoms: C_16  and  C_17
REMARK    7  A    between atoms: C_17  and  C_18
REMARK    8  A    between atoms: C_18  and  C_19
REMARK    9  A    between atoms: C_19  and  C_20
REMARK   10  A    between atoms: N_29  and  C_30
REMARK                            x       y       z     vdW  Elec       q    Type
REMARK                         _______ _______ _______ _____ _____    ______ ____
ROOT
ATOM      1  C   UNL     1      -1.603  12.334  23.131  0.00  0.00    +0.000 C 
ATOM      2  C   UNL     1      -3.079  12.679  23.433  0.00  0.00    +0.000 C 
ATOM      3  C   UNL     1      -3.711  13.721  22.502  0.00  0.00    +0.000 C 
ATOM      4  C   UNL     1      -2.832  14.959  22.310  0.00  0.00    +0.000 C 
ATOM      5  C   UNL     1      -1.417  14.600  21.847  0.00  0.00    +0.000 C 
ATOM      6  C   UNL     1      -0.812  13.658  22.926  0.00  0.00    +0.000 C 
ENDROOT
BRANCH   1  10
ATOM      7  N   UNL     1      -0.330   9.793  20.775  0.00  0.00    +0.000 N 
ATOM      8  C   UNL     1      -0.423  10.448  21.995  0.00  0.00    +0.000 C 
ATOM      9  O   UNL     1       0.346  10.328  22.938  0.00  0.00    +0.000 OA
ATOM     10  N   UNL     1      -1.462  11.371  22.015  0.00  0.00    +0.000 N 
ATOM     11  H   UNL     1      -0.986  10.075  20.065  0.00  0.00    +0.000 HD
ATOM     12  H   UNL     1      -2.316  11.046  21.586  0.00  0.00    +0.000 HD
BRANCH   7  16
ATOM     13  C   UNL     1       2.549   6.960  19.441  0.00  0.00    +0.000 A 
ATOM     14  C   UNL     1       1.940   6.805  20.683  0.00  0.00    +0.000 A 
ATOM     15  C   UNL     1       1.008   7.741  21.147  0.00  0.00    +0.000 A 
ATOM     16  C   UNL     1       0.666   8.857  20.382  0.00  0.00    +0.000 A 
ATOM     17  C   UNL     1       1.339   9.045  19.162  0.00  0.00    +0.000 A 
ATOM     18  C   UNL     1       2.278   8.103  18.694  0.00  0.00    +0.000 A 
BRANCH  13  20
ATOM     19  C   UNL     1       3.537   5.705  17.694  0.00  0.00    +0.000 C 
ATOM     20  O   UNL     1       3.411   5.959  19.090  0.00  0.00    +0.000 OA
ENDBRANCH  13  20
ENDBRANCH   7  16
ENDBRANCH   1  10
BRANCH   5  21
ATOM     21  C   UNL     1      -1.325  13.908  20.476  0.00  0.00    +0.000 C 
BRANCH  21  22
ATOM     22  C   UNL     1      -0.060  13.848  19.640  0.00  0.00    +0.000 C 
ATOM     23  N   UNL     1       0.175  15.048  18.851  0.00  0.00    +0.000 N 
ATOM     24  C   UNL     1       1.457  15.446  18.958  0.00  0.00    +0.000 C 
ATOM     25  N   UNL     1       1.976  16.468  18.392  0.00  0.00    +0.000 NA
ATOM     26  N   UNL     1       2.139  14.615  19.776  0.00  0.00    +0.000 N 
ATOM     27  C   UNL     1       3.567  14.584  19.949  0.00  0.00    +0.000 C 
ATOM     28  C   UNL     1       1.278  13.721  20.388  0.00  0.00    +0.000 C 
ATOM     29  O   UNL     1       1.547  12.917  21.269  0.00  0.00    +0.000 OA
ATOM     30  H   UNL     1      -0.555  15.713  18.656  0.00  0.00    +0.000 HD
ATOM     31  H   UNL     1       1.260  16.927  17.822  0.00  0.00    +0.000 HD
BRANCH  22  32
ATOM     32  C   UNL     1      -0.133  12.603  18.703  0.00  0.00    +0.000 C 
BRANCH  32  33
ATOM     33  C   UNL     1      -1.439  12.379  17.925  0.00  0.00    +0.000 C 
BRANCH  33  34
ATOM     34  C   UNL     1      -2.192  11.067  18.214  0.00  0.00    +0.000 C 
ATOM     35  C   UNL     1      -3.707  11.271  18.351  0.00  0.00    +0.000 C 
ATOM     36  C   UNL     1      -4.340  11.673  17.023  0.00  0.00    +0.000 C 
ATOM     37  C   UNL     1      -4.048  10.634  15.945  0.00  0.00    +0.000 C 
ATOM     38  C   UNL     1      -2.557  10.335  15.799  0.00  0.00    +0.000 C 
ATOM     39  C   UNL     1      -1.900  10.012  17.136  0.00  0.00    +0.000 C 
ENDBRANCH  33  34
ENDBRANCH  32  33
ENDBRANCH  22  32
ENDBRANCH  21  22
ENDBRANCH   5  21
TORSDOF 8
ENDMDL
MODEL 4
REMARK VINA RESULT:      -7.8      5.040      9.874
REMARK  Name = 
REMARK  10 active torsions:
REMARK  status: ('A' for Active; 'I' for Inactive)
REMARK    1  A    between atoms: C_1  and  O_2
REMARK    2  A    between atoms: O_2  and  C_3
REMARK    3  A    between atoms: C_6  and  N_7
REMARK    4  A    between atoms: N_10  and  C_11
REMARK    5  A    between atoms: C_15  and  C_16
REMARK    6  A    between atoms: C_16  and  C_17
REMARK    7  A    between atoms: C_17  and  C_18
REMARK    8  A    between atoms: C_18  and  C_19
REMARK    9  A    between atoms: C_19  and  C_20
REMARK   10  A    between atoms: N_29  and  C_30
REMARK                            x       y       z     vdW  Elec       q    Type
REMARK                         _______ _______ _______ _____ _____    ______ ____
ROOT
ATOM      1  C   UNL     1      -1.370  11.783  23.057  0.00  0.00    +0.000 C 
ATOM      2  C   UNL     1      -2.821  12.037  23.528  0.00  0.00    +0.000 C 
ATOM      3  C   UNL     1      -3.581  13.119  22.749  0.00  0.00    +0.000 C 
ATOM      4  C   UNL     1      -2.771  14.405  22.575  0.00  0.00    +0.000 C 
ATOM      5  C   UNL     1      -1.398  14.147  21.950  0.00  0.00    +0.000 C 
ATOM      6  C   UNL     1      -0.654  13.152  22.886  0.00  0.00    +0.000 C 
ENDROOT
BRANCH   1  10
ATOM      7  N   UNL     1      -0.207   9.656  20.273  0.00  0.00    +0.000 N 
ATOM      8  C   UNL     1      -0.142  10.228  21.536  0.00  0.00    +0.000 C 
ATOM      9  O   UNL     1       0.830  10.231  22.277  0.00  0.00    +0.000 OA
ATOM     10  N   UNL     1      -1.307  10.916  21.859  0.00  0.00    +0.000 N 
ATOM     11  H   UNL     1      -1.049   9.827  19.747  0.00  0.00    +0.000 HD
ATOM     12  H   UNL     1      -2.157  10.440  21.596  0.00  0.00    +0.000 HD
BRANCH   7  16
ATOM     13  C   UNL     1       3.021   7.615  18.399  0.00  0.00    +0.000 A 
ATOM     14  C   UNL     1       2.421   8.700  17.769  0.00  0.00    +0.000 A 
ATOM     15  C   UNL     1       1.342   9.369  18.361  0.00  0.00    +0.000 A 
ATOM     16  C   UNL     1       0.834   8.963  19.596  0.00  0.00    +0.000 A 
ATOM     17  C   UNL     1       1.398   7.822  20.192  0.00  0.00    +0.000 A 
ATOM     18  C   UNL     1       2.484   7.149  19.597  0.00  0.00    +0.000 A 
BRANCH  13  20
ATOM     19  C   UNL     1       4.076   5.659  17.586  0.00  0.00    +0.000 C 
ATOM     20  O   UNL     1       4.087   7.075  17.735  0.00  0.00    +0.000 OA
ENDBRANCH  13  20
ENDBRANCH   7  16
ENDBRANCH   1  10
BRANCH   5  21
ATOM     21  C   UNL     1      -1.418  13.567  20.524  0.00  0.00    +0.000 C 
BRANCH  21  22
ATOM     22  C   UNL     1      -0.354  13.851  19.479  0.00  0.00    +0.000 C 
ATOM     23  N   UNL     1      -0.549  15.110  18.776  0.00  0.00    +0.000 N 
ATOM     24  C   UNL     1       0.607  15.796  18.695  0.00  0.00    +0.000 C 
ATOM     25  N   UNL     1       0.766  16.938  18.145  0.00  0.00    +0.000 NA
ATOM     26  N   UNL     1       1.601  15.110  19.302  0.00  0.00    +0.000 N 
ATOM     27  C   UNL     1       3.006  15.411  19.220  0.00  0.00    +0.000 C 
ATOM     28  C   UNL     1       1.095  14.009  19.968  0.00  0.00    +0.000 C 
ATOM     29  O   UNL     1       1.701  13.249  20.711  0.00  0.00    +0.000 OA
ATOM     30  H   UNL     1      -1.433  15.592  18.774  0.00  0.00    +0.000 HD
ATOM     31  H   UNL     1      -0.130  17.241  17.752  0.00  0.00    +0.000 HD
BRANCH  22  32
ATOM     32  C   UNL     1      -0.323  12.672  18.458  0.00  0.00    +0.000 C 
BRANCH  32  33
ATOM     33  C   UNL     1      -1.613  12.382  17.674  0.00  0.00    +0.000 C 
BRANCH  33  34
ATOM     34  C   UNL     1      -2.337  11.064  18.011  0.00  0.00    +0.000 C 
ATOM     35  C   UNL     1      -3.862  11.224  18.069  0.00  0.00    +0.000 C 
ATOM     36  C   UNL     1      -4.446  11.524  16.693  0.00  0.00    +0.000 C 
ATOM     37  C   UNL     1      -4.074  10.433  15.694  0.00  0.00    +0.000 C 
ATOM     38  C   UNL     1      -2.569  10.177  15.631  0.00  0.00    +0.000 C 
ATOM     39  C   UNL     1      -1.962   9.957  17.013  0.00  0.00    +0.000 C 
ENDBRANCH  33  34
ENDBRANCH  32  33
ENDBRANCH  22  32
ENDBRANCH  21  22
ENDBRANCH   5  21
TORSDOF 8
ENDMDL
MODEL 5
REMARK VINA RESULT:      -7.6      4.435      8.405
REMARK  Name = 
REMARK  10 active torsions:
REMARK  status: ('A' for Active; 'I' for Inactive)
REMARK    1  A    between atoms: C_1  and  O_2
REMARK    2  A    between atoms: O_2  and  C_3
REMARK    3  A    between atoms: C_6  and  N_7
REMARK    4  A    between atoms: N_10  and  C_11
REMARK    5  A    between atoms: C_15  and  C_16
REMARK    6  A    between atoms: C_16  and  C_17
REMARK    7  A    between atoms: C_17  and  C_18
REMARK    8  A    between atoms: C_18  and  C_19
REMARK    9  A    between atoms: C_19  and  C_20
REMARK   10  A    between atoms: N_29  and  C_30
REMARK                            x       y       z     vdW  Elec       q    Type
REMARK                         _______ _______ _______ _____ _____    ______ ____
ROOT
ATOM      1  C   UNL     1       1.292   8.231  21.376  0.00  0.00    +0.000 C 
ATOM      2  C   UNL     1      -0.231   8.004  21.513  0.00  0.00    +0.000 C 
ATOM      3  C   UNL     1      -1.106   9.217  21.172  0.00  0.00    +0.000 C 
ATOM      4  C   UNL     1      -0.627  10.505  21.845  0.00  0.00    +0.000 C 
ATOM      5  C   UNL     1       0.848  10.797  21.555  0.00  0.00    +0.000 C 
ATOM      6  C   UNL     1       1.661   9.575  22.066  0.00  0.00    +0.000 C 
ENDROOT
BRANCH   1  10
ATOM      7  N   UNL     1       2.991   7.192  18.267  0.00  0.00    +0.000 N 
ATOM      8  C   UNL     1       2.451   7.007  19.533  0.00  0.00    +0.000 C 
ATOM      9  O   UNL     1       2.614   6.030  20.250  0.00  0.00    +0.000 OA
ATOM     10  N   UNL     1       1.756   8.127  19.974  0.00  0.00    +0.000 N 
ATOM     11  H   UNL     1       2.845   8.095  17.846  0.00  0.00    +0.000 HD
ATOM     12  H   UNL     1       1.177   8.562  19.270  0.00  0.00    +0.000 HD
BRANCH   7  16
ATOM     13  C   UNL     1       5.474   4.599  15.985  0.00  0.00    +0.000 A 
ATOM     14  C   UNL     1       4.367   4.093  16.659  0.00  0.00    +0.000 A 
ATOM     15  C   UNL     1       3.553   4.928  17.434  0.00  0.00    +0.000 A 
ATOM     16  C   UNL     1       3.830   6.290  17.557  0.00  0.00    +0.000 A 
ATOM     17  C   UNL     1       4.990   6.781  16.933  0.00  0.00    +0.000 A 
ATOM     18  C   UNL     1       5.810   5.940  16.153  0.00  0.00    +0.000 A 
BRANCH  13  20
ATOM     19  C   UNL     1       6.102   3.868  13.824  0.00  0.00    +0.000 C 
ATOM     20  O   UNL     1       6.164   3.688  15.235  0.00  0.00    +0.000 OA
ENDBRANCH  13  20
ENDBRANCH   7  16
ENDBRANCH   1  10
BRANCH   5  21
ATOM     21  C   UNL     1       1.196  11.042  20.077  0.00  0.00    +0.000 C 
BRANCH  21  22
ATOM     22  C   UNL     1       0.819  12.300  19.315  0.00  0.00    +0.000 C 
ATOM     23  N   UNL     1       0.154  13.301  20.135  0.00  0.00    +0.000 N 
ATOM     24  C   UNL     1       0.676  14.523  19.913  0.00  0.00    +0.000 C 
ATOM     25  N   UNL     1       0.313  15.609  20.482  0.00  0.00    +0.000 NA
ATOM     26  N   UNL     1       1.668  14.449  19.000  0.00  0.00    +0.000 N 
ATOM     27  C   UNL     1       2.298  15.565  18.345  0.00  0.00    +0.000 C 
ATOM     28  C   UNL     1       1.962  13.129  18.707  0.00  0.00    +0.000 C 
ATOM     29  O   UNL     1       2.881  12.710  18.017  0.00  0.00    +0.000 OA
ATOM     30  H   UNL     1      -0.266  13.075  21.022  0.00  0.00    +0.000 HD
ATOM     31  H   UNL     1      -0.458  15.403  21.122  0.00  0.00    +0.000 HD
BRANCH  22  32
ATOM     32  C   UNL     1      -0.094  11.907  18.113  0.00  0.00    +0.000 C 
BRANCH  32  33
ATOM     33  C   UNL     1      -1.612  12.066  18.297  0.00  0.00    +0.000 C 
BRANCH  33  34
ATOM     34  C   UNL     1      -2.445  10.770  18.272  0.00  0.00    +0.000 C 
ATOM     35  C   UNL     1      -3.956  11.037  18.270  0.00  0.00    +0.000 C 
ATOM     36  C   UNL     1      -4.408  11.688  16.968  0.00  0.00    +0.000 C 
ATOM     37  C   UNL     1      -4.028  10.824  15.768  0.00  0.00    +0.000 C 
ATOM     38  C   UNL     1      -2.543  10.468  15.742  0.00  0.00    +0.000 C 
ATOM     39  C   UNL     1      -2.065   9.891  17.070  0.00  0.00    +0.000 C 
ENDBRANCH  33  34
ENDBRANCH  32  33
ENDBRANCH  22  32
ENDBRANCH  21  22
ENDBRANCH   5  21
TORSDOF 8
ENDMDL
MODEL 6
REMARK VINA RESULT:      -7.6      5.595      9.559
REMARK  Name = 
REMARK  10 active torsions:
REMARK  status: ('A' for Active; 'I' for Inactive)
REMARK    1  A    between atoms: C_1  and  O_2
REMARK    2  A    between atoms: O_2  and  C_3
REMARK    3  A    between atoms: C_6  and  N_7
REMARK    4  A    between atoms: N_10  and  C_11
REMARK    5  A    between atoms: C_15  and  C_16
REMARK    6  A    between atoms: C_16  and  C_17
REMARK    7  A    between atoms: C_17  and  C_18
REMARK    8  A    between atoms: C_18  and  C_19
REMARK    9  A    between atoms: C_19  and  C_20
REMARK   10  A    between atoms: N_29  and  C_30
REMARK                            x       y       z     vdW  Elec       q    Type
REMARK                         _______ _______ _______ _____ _____    ______ ____
ROOT
ATOM      1  C   UNL     1      -3.153  11.936  18.421  0.00  0.00    +0.000 C 
ATOM      2  C   UNL     1      -4.264  10.925  18.054  0.00  0.00    +0.000 C 
ATOM      3  C   UNL     1      -3.780   9.497  17.769  0.00  0.00    +0.000 C 
ATOM      4  C   UNL     1      -2.586   9.453  16.813  0.00  0.00    +0.000 C 
ATOM      5  C   UNL     1      -1.429  10.337  17.287  0.00  0.00    +0.000 C 
ATOM      6  C   UNL     1      -1.984  11.784  17.407  0.00  0.00    +0.000 C 
ENDROOT
BRANCH   1  10
ATOM      7  N   UNL     1      -2.267  12.691  21.924  0.00  0.00    +0.000 N 
ATOM      8  C   UNL     1      -2.916  12.897  20.714  0.00  0.00    +0.000 C 
ATOM      9  O   UNL     1      -3.509  13.911  20.378  0.00  0.00    +0.000 OA
ATOM     10  N   UNL     1      -2.738  11.832  19.838  0.00  0.00    +0.000 N 
ATOM     11  H   UNL     1      -1.739  11.837  22.009  0.00  0.00    +0.000 HD
ATOM     12  H   UNL     1      -2.814  10.922  20.268  0.00  0.00    +0.000 HD
BRANCH   7  16
ATOM     13  C   UNL     1      -1.801  15.354  25.209  0.00  0.00    +0.000 A 
ATOM     14  C   UNL     1      -2.948  14.573  25.099  0.00  0.00    +0.000 A 
ATOM     15  C   UNL     1      -3.128  13.709  24.012  0.00  0.00    +0.000 A 
ATOM     16  C   UNL     1      -2.167  13.609  23.005  0.00  0.00    +0.000 A 
ATOM     17  C   UNL     1      -1.045  14.453  23.085  0.00  0.00    +0.000 A 
ATOM     18  C   UNL     1      -0.863  15.323  24.180  0.00  0.00    +0.000 A 
BRANCH  13  20
ATOM     19  C   UNL     1      -0.427  16.332  26.868  0.00  0.00    +0.000 C 
ATOM     20  O   UNL     1      -1.731  16.126  26.335  0.00  0.00    +0.000 OA
ENDBRANCH  13  20
ENDBRANCH   7  16
ENDBRANCH   1  10
BRANCH   5  21
ATOM     21  C   UNL     1      -0.797   9.935  18.632  0.00  0.00    +0.000 C 
BRANCH  21  22
ATOM     22  C   UNL     1       0.614  10.307  19.050  0.00  0.00    +0.000 C 
ATOM     23  N   UNL     1       1.440  10.788  17.952  0.00  0.00    +0.000 N 
ATOM     24  C   UNL     1       2.109  11.900  18.309  0.00  0.00    +0.000 C 
ATOM     25  N   UNL     1       2.910  12.565  17.568  0.00  0.00    +0.000 NA
ATOM     26  N   UNL     1       1.805  12.241  19.580  0.00  0.00    +0.000 N 
ATOM     27  C   UNL     1       2.489  13.224  20.377  0.00  0.00    +0.000 C 
ATOM     28  C   UNL     1       0.773  11.454  20.061  0.00  0.00    +0.000 C 
ATOM     29  O   UNL     1       0.180  11.578  21.123  0.00  0.00    +0.000 OA
ATOM     30  H   UNL     1       1.202  10.619  16.988  0.00  0.00    +0.000 HD
ATOM     31  H   UNL     1       2.979  12.100  16.658  0.00  0.00    +0.000 HD
BRANCH  22  32
ATOM     32  C   UNL     1       1.286   9.068  19.716  0.00  0.00    +0.000 C 
BRANCH  32  33
ATOM     33  C   UNL     1       1.931   8.028  18.785  0.00  0.00    +0.000 C 
BRANCH  33  34
ATOM     34  C   UNL     1       2.831   6.973  19.457  0.00  0.00    +0.000 C 
ATOM     35  C   UNL     1       2.085   5.667  19.764  0.00  0.00    +0.000 C 
ATOM     36  C   UNL     1       1.693   4.933  18.488  0.00  0.00    +0.000 C 
ATOM     37  C   UNL     1       2.920   4.643  17.628  0.00  0.00    +0.000 C 
ATOM     38  C   UNL     1       3.746   5.894  17.335  0.00  0.00    +0.000 C 
ATOM     39  C   UNL     1       4.073   6.680  18.601  0.00  0.00    +0.000 C 
ENDBRANCH  33  34
ENDBRANCH  32  33
ENDBRANCH  22  32
ENDBRANCH  21  22
ENDBRANCH   5  21
TORSDOF 8
ENDMDL
MODEL 7
REMARK VINA RESULT:      -7.5      0.484      1.237
REMARK  Name = 
REMARK  10 active torsions:
REMARK  status: ('A' for Active; 'I' for Inactive)
REMARK    1  A    between atoms: C_1  and  O_2
REMARK    2  A    between atoms: O_2  and  C_3
REMARK    3  A    between atoms: C_6  and  N_7
REMARK    4  A    between atoms: N_10  and  C_11
REMARK    5  A    between atoms: C_15  and  C_16
REMARK    6  A    between atoms: C_16  and  C_17
REMARK    7  A    between atoms: C_17  and  C_18
REMARK    8  A    between atoms: C_18  and  C_19
REMARK    9  A    between atoms: C_19  and  C_20
REMARK   10  A    between atoms: N_29  and  C_30
REMARK                            x       y       z     vdW  Elec       q    Type
REMARK                         _______ _______ _______ _____ _____    ______ ____
ROOT
ATOM      1  C   UNL     1       7.261   5.492  17.384  0.00  0.00    +0.000 C 
ATOM      2  C   UNL     1       6.844   5.692  15.908  0.00  0.00    +0.000 C 
ATOM      3  C   UNL     1       5.332   5.784  15.663  0.00  0.00    +0.000 C 
ATOM      4  C   UNL     1       4.547   4.674  16.365  0.00  0.00    +0.000 C 
ATOM      5  C   UNL     1       4.853   4.604  17.863  0.00  0.00    +0.000 C 
ATOM      6  C   UNL     1       6.384   4.367  18.003  0.00  0.00    +0.000 C 
ENDROOT
BRANCH   1  10
ATOM      7  N   UNL     1       7.990   8.881  18.654  0.00  0.00    +0.000 N 
ATOM      8  C   UNL     1       7.935   7.877  17.697  0.00  0.00    +0.000 C 
ATOM      9  O   UNL     1       8.484   7.891  16.605  0.00  0.00    +0.000 OA
ATOM     10  N   UNL     1       7.248   6.757  18.153  0.00  0.00    +0.000 N 
ATOM     11  H   UNL     1       7.566   8.675  19.543  0.00  0.00    +0.000 HD
ATOM     12  H   UNL     1       6.406   6.967  18.669  0.00  0.00    +0.000 HD
BRANCH   7  16
ATOM     13  C   UNL     1      10.086  12.551  18.168  0.00  0.00    +0.000 A 
ATOM     14  C   UNL     1      10.582  11.570  19.021  0.00  0.00    +0.000 A 
ATOM     15  C   UNL     1       9.893  10.367  19.211  0.00  0.00    +0.000 A 
ATOM     16  C   UNL     1       8.687  10.117  18.555  0.00  0.00    +0.000 A 
ATOM     17  C   UNL     1       8.155  11.140  17.751  0.00  0.00    +0.000 A 
ATOM     18  C   UNL     1       8.849  12.352  17.560  0.00  0.00    +0.000 A 
BRANCH  13  20
ATOM     19  C   UNL     1      11.898  13.814  19.017  0.00  0.00    +0.000 C 
ATOM     20  O   UNL     1      10.872  13.662  18.042  0.00  0.00    +0.000 OA
ENDBRANCH  13  20
ENDBRANCH   7  16
ENDBRANCH   1  10
BRANCH   5  21
ATOM     21  C   UNL     1       4.468   5.853  18.677  0.00  0.00    +0.000 C 
BRANCH  21  22
ATOM     22  C   UNL     1       3.037   6.265  18.969  0.00  0.00    +0.000 C 
ATOM     23  N   UNL     1       2.819   6.678  20.347  0.00  0.00    +0.000 N 
ATOM     24  C   UNL     1       2.104   7.818  20.397  0.00  0.00    +0.000 C 
ATOM     25  N   UNL     1       1.753   8.439  21.457  0.00  0.00    +0.000 NA
ATOM     26  N   UNL     1       1.811   8.242  19.148  0.00  0.00    +0.000 N 
ATOM     27  C   UNL     1       0.879   9.283  18.806  0.00  0.00    +0.000 C 
ATOM     28  C   UNL     1       2.481   7.479  18.207  0.00  0.00    +0.000 C 
ATOM     29  O   UNL     1       2.532   7.669  16.999  0.00  0.00    +0.000 OA
ATOM     30  H   UNL     1       3.462   6.442  21.086  0.00  0.00    +0.000 HD
ATOM     31  H   UNL     1       2.086   7.915  22.271  0.00  0.00    +0.000 HD
BRANCH  22  32
ATOM     32  C   UNL     1       2.088   5.080  18.613  0.00  0.00    +0.000 C 
BRANCH  32  33
ATOM     33  C   UNL     1       1.031   4.684  19.657  0.00  0.00    +0.000 C 
BRANCH  33  34
ATOM     34  C   UNL     1       0.837   3.174  19.896  0.00  0.00    +0.000 C 
ATOM     35  C   UNL     1       0.907   2.355  18.599  0.00  0.00    +0.000 C 
ATOM     36  C   UNL     1       2.311   2.369  18.004  0.00  0.00    +0.000 C 
ATOM     37  C   UNL     1       3.332   1.845  19.009  0.00  0.00    +0.000 C 
ATOM     38  C   UNL     1       3.274   2.577  20.349  0.00  0.00    +0.000 C 
ATOM     39  C   UNL     1       1.858   2.639  20.911  0.00  0.00    +0.000 C 
ENDBRANCH  33  34
ENDBRANCH  32  33
ENDBRANCH  22  32
ENDBRANCH  21  22
ENDBRANCH   5  21
TORSDOF 8
ENDMDL
MODEL 8
REMARK VINA RESULT:      -7.5      6.397     11.502
REMARK  Name = 
REMARK  10 active torsions:
REMARK  status: ('A' for Active; 'I' for Inactive)
REMARK    1  A    between atoms: C_1  and  O_2
REMARK    2  A    between atoms: O_2  and  C_3
REMARK    3  A    between atoms: C_6  and  N_7
REMARK    4  A    between atoms: N_10  and  C_11
REMARK    5  A    between atoms: C_15  and  C_16
REMARK    6  A    between atoms: C_16  and  C_17
REMARK    7  A    between atoms: C_17  and  C_18
REMARK    8  A    between atoms: C_18  and  C_19
REMARK    9  A    between atoms: C_19  and  C_20
REMARK   10  A    between atoms: N_29  and  C_30
REMARK                            x       y       z     vdW  Elec       q    Type
REMARK                         _______ _______ _______ _____ _____    ______ ____
ROOT
ATOM      1  C   UNL     1       0.919  15.827  21.205  0.00  0.00    +0.000 C 
ATOM      2  C   UNL     1       1.895  16.683  20.365  0.00  0.00    +0.000 C 
ATOM      3  C   UNL     1       2.598  15.940  19.222  0.00  0.00    +0.000 C 
ATOM      4  C   UNL     1       3.195  14.601  19.661  0.00  0.00    +0.000 C 
ATOM      5  C   UNL     1       2.163  13.700  20.344  0.00  0.00    +0.000 C 
ATOM      6  C   UNL     1       1.616  14.486  21.569  0.00  0.00    +0.000 C 
ENDROOT
BRANCH   1  10
ATOM      7  N   UNL     1      -2.611  15.020  20.485  0.00  0.00    +0.000 N 
ATOM      8  C   UNL     1      -1.532  15.351  21.293  0.00  0.00    +0.000 C 
ATOM      9  O   UNL     1      -1.505  15.304  22.514  0.00  0.00    +0.000 OA
ATOM     10  N   UNL     1      -0.398  15.663  20.550  0.00  0.00    +0.000 N 
ATOM     11  H   UNL     1      -2.442  15.016  19.492  0.00  0.00    +0.000 HD
ATOM     12  H   UNL     1      -0.577  16.236  19.739  0.00  0.00    +0.000 HD
BRANCH   7  16
ATOM     13  C   UNL     1      -6.470  13.606  21.583  0.00  0.00    +0.000 A 
ATOM     14  C   UNL     1      -6.120  14.933  21.813  0.00  0.00    +0.000 A 
ATOM     15  C   UNL     1      -4.846  15.409  21.479  0.00  0.00    +0.000 A 
ATOM     16  C   UNL     1      -3.889  14.566  20.912  0.00  0.00    +0.000 A 
ATOM     17  C   UNL     1      -4.224  13.211  20.749  0.00  0.00    +0.000 A 
ATOM     18  C   UNL     1      -5.507  12.731  21.085  0.00  0.00    +0.000 A 
BRANCH  13  20
ATOM     19  C   UNL     1      -7.904  12.169  22.799  0.00  0.00    +0.000 C 
ATOM     20  O   UNL     1      -7.754  13.278  21.918  0.00  0.00    +0.000 OA
ENDBRANCH  13  20
ENDBRANCH   7  16
ENDBRANCH   1  10
BRANCH   5  21
ATOM     21  C   UNL     1       0.978  13.265  19.463  0.00  0.00    +0.000 C 
BRANCH  21  22
ATOM     22  C   UNL     1       0.464  11.840  19.378  0.00  0.00    +0.000 C 
ATOM     23  N   UNL     1       0.862  11.148  18.162  0.00  0.00    +0.000 N 
ATOM     24  C   UNL     1       1.312   9.910  18.442  0.00  0.00    +0.000 C 
ATOM     25  N   UNL     1       1.741   9.057  17.592  0.00  0.00    +0.000 NA
ATOM     26  N   UNL     1       1.268   9.687  19.773  0.00  0.00    +0.000 N 
ATOM     27  C   UNL     1       1.448   8.415  20.422  0.00  0.00    +0.000 C 
ATOM     28  C   UNL     1       0.944  10.849  20.451  0.00  0.00    +0.000 C 
ATOM     29  O   UNL     1       0.935  11.023  21.661  0.00  0.00    +0.000 OA
ATOM     30  H   UNL     1       1.188  11.641  17.346  0.00  0.00    +0.000 HD
ATOM     31  H   UNL     1       1.666   9.460  16.655  0.00  0.00    +0.000 HD
BRANCH  22  32
ATOM     32  C   UNL     1      -1.092  11.858  19.494  0.00  0.00    +0.000 C 
BRANCH  32  33
ATOM     33  C   UNL     1      -1.898  11.755  18.189  0.00  0.00    +0.000 C 
BRANCH  33  34
ATOM     34  C   UNL     1      -2.709  10.460  17.986  0.00  0.00    +0.000 C 
ATOM     35  C   UNL     1      -4.220  10.716  17.895  0.00  0.00    +0.000 C 
ATOM     36  C   UNL     1      -4.582  11.479  16.625  0.00  0.00    +0.000 C 
ATOM     37  C   UNL     1      -4.104  10.730  15.385  0.00  0.00    +0.000 C 
ATOM     38  C   UNL     1      -2.616  10.387  15.439  0.00  0.00    +0.000 C 
ATOM     39  C   UNL     1      -2.230   9.696  16.743  0.00  0.00    +0.000 C 
ENDBRANCH  33  34
ENDBRANCH  32  33
ENDBRANCH  22  32
ENDBRANCH  21  22
ENDBRANCH   5  21
TORSDOF 8
ENDMDL
MODEL 9
REMARK VINA RESULT:      -7.4      0.615      1.005
REMARK  Name = 
REMARK  10 active torsions:
REMARK  status: ('A' for Active; 'I' for Inactive)
REMARK    1  A    between atoms: C_1  and  O_2
REMARK    2  A    between atoms: O_2  and  C_3
REMARK    3  A    between atoms: C_6  and  N_7
REMARK    4  A    between atoms: N_10  and  C_11
REMARK    5  A    between atoms: C_15  and  C_16
REMARK    6  A    between atoms: C_16  and  C_17
REMARK    7  A    between atoms: C_17  and  C_18
REMARK    8  A    between atoms: C_18  and  C_19
REMARK    9  A    between atoms: C_19  and  C_20
REMARK   10  A    between atoms: N_29  and  C_30
REMARK                            x       y       z     vdW  Elec       q    Type
REMARK                         _______ _______ _______ _____ _____    ______ ____
ROOT
ATOM      1  C   UNL     1       7.177   5.768  16.641  0.00  0.00    +0.000 C 
ATOM      2  C   UNL     1       6.311   5.524  15.385  0.00  0.00    +0.000 C 
ATOM      3  C   UNL     1       4.867   5.086  15.661  0.00  0.00    +0.000 C 
ATOM      4  C   UNL     1       4.775   3.952  16.685  0.00  0.00    +0.000 C 
ATOM      5  C   UNL     1       5.503   4.288  17.990  0.00  0.00    +0.000 C 
ATOM      6  C   UNL     1       6.985   4.576  17.620  0.00  0.00    +0.000 C 
ENDROOT
BRANCH   1  10
ATOM      7  N   UNL     1       7.571   9.166  18.032  0.00  0.00    +0.000 N 
ATOM      8  C   UNL     1       7.902   8.088  17.222  0.00  0.00    +0.000 C 
ATOM      9  O   UNL     1       8.948   7.942  16.607  0.00  0.00    +0.000 OA
ATOM     10  N   UNL     1       6.929   7.094  17.252  0.00  0.00    +0.000 N 
ATOM     11  H   UNL     1       6.711   9.089  18.549  0.00  0.00    +0.000 HD
ATOM     12  H   UNL     1       5.981   7.439  17.219  0.00  0.00    +0.000 HD
BRANCH   7  16
ATOM     13  C   UNL     1      10.041  12.571  18.662  0.00  0.00    +0.000 A 
ATOM     14  C   UNL     1      10.181  11.447  19.470  0.00  0.00    +0.000 A 
ATOM     15  C   UNL     1       9.361  10.327  19.292  0.00  0.00    +0.000 A 
ATOM     16  C   UNL     1       8.376  10.306  18.303  0.00  0.00    +0.000 A 
ATOM     17  C   UNL     1       8.191  11.472  17.539  0.00  0.00    +0.000 A 
ATOM     18  C   UNL     1       9.018  12.600  17.718  0.00  0.00    +0.000 A 
BRANCH  13  20
ATOM     19  C   UNL     1      12.280  13.187  19.118  0.00  0.00    +0.000 C 
ATOM     20  O   UNL     1      10.927  13.581  18.915  0.00  0.00    +0.000 OA
ENDBRANCH  13  20
ENDBRANCH   7  16
ENDBRANCH   1  10
BRANCH   5  21
ATOM     21  C   UNL     1       4.943   5.490  18.770  0.00  0.00    +0.000 C 
BRANCH  21  22
ATOM     22  C   UNL     1       3.492   5.933  18.717  0.00  0.00    +0.000 C 
ATOM     23  N   UNL     1       2.898   6.143  20.029  0.00  0.00    +0.000 N 
ATOM     24  C   UNL     1       2.211   7.300  20.063  0.00  0.00    +0.000 C 
ATOM     25  N   UNL     1       1.582   7.771  21.071  0.00  0.00    +0.000 NA
ATOM     26  N   UNL     1       2.287   7.924  18.867  0.00  0.00    +0.000 N 
ATOM     27  C   UNL     1       1.499   9.055  18.454  0.00  0.00    +0.000 C 
ATOM     28  C   UNL     1       3.186   7.278  18.038  0.00  0.00    +0.000 C 
ATOM     29  O   UNL     1       3.577   7.645  16.939  0.00  0.00    +0.000 OA
ATOM     30  H   UNL     1       3.305   5.762  20.869  0.00  0.00    +0.000 HD
ATOM     31  H   UNL     1       1.667   7.111  21.849  0.00  0.00    +0.000 HD
BRANCH  22  32
ATOM     32  C   UNL     1       2.668   4.870  17.927  0.00  0.00    +0.000 C 
BRANCH  32  33
ATOM     33  C   UNL     1       1.394   4.325  18.592  0.00  0.00    +0.000 C 
BRANCH  33  34
ATOM     34  C   UNL     1       1.352   2.807  18.852  0.00  0.00    +0.000 C 
ATOM     35  C   UNL     1       2.751   2.197  19.021  0.00  0.00    +0.000 C 
ATOM     36  C   UNL     1       3.424   2.684  20.299  0.00  0.00    +0.000 C 
ATOM     37  C   UNL     1       2.565   2.368  21.520  0.00  0.00    +0.000 C 
ATOM     38  C   UNL     1       1.136   2.895  21.391  0.00  0.00    +0.000 C 
ATOM     39  C   UNL     1       0.485   2.479  20.076  0.00  0.00    +0.000 C 
ENDBRANCH  33  34
ENDBRANCH  32  33
ENDBRANCH  22  32
ENDBRANCH  21  22
ENDBRANCH   5  21
TORSDOF 8
ENDMDL
