MODEL 1
REMARK VINA RESULT:      -8.3      0.000      0.000
REMARK  Name = 
REMARK  4 active torsions:
REMARK  status: ('A' for Active; 'I' for Inactive)
REMARK    1  A    between atoms: C_5  and  O_6
REMARK    2  A    between atoms: O_6  and  C_7
REMARK    3  A    between atoms: C_10  and  C_11
REMARK    4  A    between atoms: N_12  and  N_13
REMARK                            x       y       z     vdW  Elec       q    Type
REMARK                         _______ _______ _______ _____ _____    ______ ____
ROOT
ATOM      1  C   UNL     1       2.126   7.584  19.173  0.00  0.00    +0.000 A 
ATOM      2  C   UNL     1       2.212   6.649  18.130  0.00  0.00    +0.000 A 
ATOM      3  C   UNL     1       1.961   5.298  18.373  0.00  0.00    +0.000 A 
ATOM      4  C   UNL     1       1.695   4.877  19.674  0.00  0.00    +0.000 A 
ATOM      5  C   UNL     1       1.662   5.802  20.728  0.00  0.00    +0.000 A 
ATOM      6  C   UNL     1       1.891   7.155  20.478  0.00  0.00    +0.000 A 
ENDROOT
BRANCH   4   7
ATOM      7  C   UNL     1       1.409   3.446  19.910  0.00  0.00    +0.000 C 
ATOM      8  N   UNL     1       2.245   2.520  20.290  0.00  0.00    +0.000 NA
BRANCH   8   9
ATOM      9  N   UNL     1       3.564   2.874  20.291  0.00  0.00    +0.000 N 
ATOM     10  C   UNL     1       4.267   3.253  19.197  0.00  0.00    +0.000 A 
ATOM     11  N   UNL     1       5.203   4.164  19.302  0.00  0.00    +0.000 NA
ATOM     12  C   UNL     1       5.743   4.437  18.070  0.00  0.00    +0.000 A 
ATOM     13  C   UNL     1       6.701   5.431  17.817  0.00  0.00    +0.000 A 
ATOM     14  C   UNL     1       7.164   5.627  16.510  0.00  0.00    +0.000 A 
ATOM     15  C   UNL     1       6.704   4.814  15.480  0.00  0.00    +0.000 A 
ATOM     16 CL   UNL     1       7.293   5.072  13.883  0.00  0.00    +0.000 Cl
ATOM     17  C   UNL     1       5.764   3.802  15.708  0.00  0.00    +0.000 A 
ATOM     18  C   UNL     1       5.275   3.651  17.016  0.00  0.00    +0.000 A 
ATOM     19  S   UNL     1       4.066   2.583  17.624  0.00  0.00    +0.000 S 
ATOM     20  H   UNL     1       3.871   3.413  21.101  0.00  0.00    +0.000 HD
ENDBRANCH   8   9
ENDBRANCH   4   7
BRANCH   1  21
ATOM     21  O   UNL     1       2.265   8.943  18.981  0.00  0.00    +0.000 OA
BRANCH  21  26
ATOM     22 CL   UNL     1      -2.856  11.813  19.209  0.00  0.00    +0.000 Cl
ATOM     23  C   UNL     1      -1.318  11.050  19.120  0.00  0.00    +0.000 A 
ATOM     24  C   UNL     1      -0.430  11.169  20.187  0.00  0.00    +0.000 A 
ATOM     25  C   UNL     1       0.805  10.525  20.131  0.00  0.00    +0.000 A 
ATOM     26  C   UNL     1       1.118   9.708  19.038  0.00  0.00    +0.000 A 
ATOM     27  C   UNL     1       0.253   9.638  17.946  0.00  0.00    +0.000 A 
ATOM     28  C   UNL     1      -0.970  10.312  17.988  0.00  0.00    +0.000 A 
ENDBRANCH  21  26
ENDBRANCH   1  21
TORSDOF 4
ENDMDL
MODEL 2
REMARK VINA RESULT:      -7.7      5.790      9.329
REMARK  Name = 
REMARK  4 active torsions:
REMARK  status: ('A' for Active; 'I' for Inactive)
REMARK    1  A    between atoms: C_5  and  O_6
REMARK    2  A    between atoms: O_6  and  C_7
REMARK    3  A    between atoms: C_10  and  C_11
REMARK    4  A    between atoms: N_12  and  N_13
REMARK                            x       y       z     vdW  Elec       q    Type
REMARK                         _______ _______ _______ _____ _____    ______ ____
ROOT
ATOM      1  C   UNL     1       1.778   8.366  19.433  0.00  0.00    +0.000 A 
ATOM      2  C   UNL     1       1.146   8.895  20.569  0.00  0.00    +0.000 A 
ATOM      3  C   UNL     1       0.102   9.809  20.432  0.00  0.00    +0.000 A 
ATOM      4  C   UNL     1      -0.260  10.246  19.159  0.00  0.00    +0.000 A 
ATOM      5  C   UNL     1       0.406   9.760  18.025  0.00  0.00    +0.000 A 
ATOM      6  C   UNL     1       1.434   8.828  18.164  0.00  0.00    +0.000 A 
ENDROOT
BRANCH   4   7
ATOM      7  C   UNL     1      -1.384  11.198  19.031  0.00  0.00    +0.000 C 
ATOM      8  N   UNL     1      -1.396  12.332  18.385  0.00  0.00    +0.000 NA
BRANCH   8   9
ATOM      9  N   UNL     1      -0.185  12.771  17.933  0.00  0.00    +0.000 N 
ATOM     10  C   UNL     1       0.524  13.788  18.480  0.00  0.00    +0.000 A 
ATOM     11  N   UNL     1       1.834  13.739  18.496  0.00  0.00    +0.000 NA
ATOM     12  C   UNL     1       2.344  14.835  19.146  0.00  0.00    +0.000 A 
ATOM     13  C   UNL     1       3.705  15.042  19.420  0.00  0.00    +0.000 A 
ATOM     14  C   UNL     1       4.103  16.195  20.109  0.00  0.00    +0.000 A 
ATOM     15  C   UNL     1       3.156  17.144  20.480  0.00  0.00    +0.000 A 
ATOM     16 CL   UNL     1       3.672  18.556  21.320  0.00  0.00    +0.000 Cl
ATOM     17  C   UNL     1       1.796  16.971  20.201  0.00  0.00    +0.000 A 
ATOM     18  C   UNL     1       1.409  15.788  19.553  0.00  0.00    +0.000 A 
ATOM     19  S   UNL     1      -0.166  15.219  19.141  0.00  0.00    +0.000 S 
ATOM     20  H   UNL     1       0.451  12.044  17.607  0.00  0.00    +0.000 HD
ENDBRANCH   8   9
ENDBRANCH   4   7
BRANCH   1  21
ATOM     21  O   UNL     1       2.747   7.385  19.496  0.00  0.00    +0.000 OA
BRANCH  21  26
ATOM     22 CL   UNL     1       0.584   1.966  18.824  0.00  0.00    +0.000 Cl
ATOM     23  C   UNL     1       1.299   3.516  19.023  0.00  0.00    +0.000 A 
ATOM     24  C   UNL     1       1.865   4.158  17.924  0.00  0.00    +0.000 A 
ATOM     25  C   UNL     1       2.417   5.428  18.076  0.00  0.00    +0.000 A 
ATOM     26  C   UNL     1       2.338   6.081  19.312  0.00  0.00    +0.000 A 
ATOM     27  C   UNL     1       1.823   5.414  20.424  0.00  0.00    +0.000 A 
ATOM     28  C   UNL     1       1.302   4.127  20.278  0.00  0.00    +0.000 A 
ENDBRANCH  21  26
ENDBRANCH   1  21
TORSDOF 4
ENDMDL
MODEL 3
REMARK VINA RESULT:      -7.6      1.846      2.387
REMARK  Name = 
REMARK  4 active torsions:
REMARK  status: ('A' for Active; 'I' for Inactive)
REMARK    1  A    between atoms: C_5  and  O_6
REMARK    2  A    between atoms: O_6  and  C_7
REMARK    3  A    between atoms: C_10  and  C_11
REMARK    4  A    between atoms: N_12  and  N_13
REMARK                            x       y       z     vdW  Elec       q    Type
REMARK                         _______ _______ _______ _____ _____    ______ ____
ROOT
ATOM      1  C   UNL     1       2.016   6.481  20.336  0.00  0.00    +0.000 A 
ATOM      2  C   UNL     1       2.393   6.646  18.995  0.00  0.00    +0.000 A 
ATOM      3  C   UNL     1       2.261   5.592  18.091  0.00  0.00    +0.000 A 
ATOM      4  C   UNL     1       1.818   4.352  18.549  0.00  0.00    +0.000 A 
ATOM      5  C   UNL     1       1.493   4.169  19.900  0.00  0.00    +0.000 A 
ATOM      6  C   UNL     1       1.603   5.231  20.797  0.00  0.00    +0.000 A 
ENDROOT
BRANCH   4   7
ATOM      7  C   UNL     1       1.662   3.253  17.574  0.00  0.00    +0.000 C 
ATOM      8  N   UNL     1       2.468   2.246  17.374  0.00  0.00    +0.000 NA
BRANCH   8   9
ATOM      9  N   UNL     1       3.675   2.316  18.009  0.00  0.00    +0.000 N 
ATOM     10  C   UNL     1       4.552   3.342  17.896  0.00  0.00    +0.000 A 
ATOM     11  N   UNL     1       5.281   3.698  18.925  0.00  0.00    +0.000 NA
ATOM     12  C   UNL     1       6.052   4.789  18.609  0.00  0.00    +0.000 A 
ATOM     13  C   UNL     1       6.874   5.478  19.514  0.00  0.00    +0.000 A 
ATOM     14  C   UNL     1       7.601   6.592  19.076  0.00  0.00    +0.000 A 
ATOM     15  C   UNL     1       7.536   6.984  17.743  0.00  0.00    +0.000 A 
ATOM     16 CL   UNL     1       8.444   8.354  17.229  0.00  0.00    +0.000 Cl
ATOM     17  C   UNL     1       6.739   6.303  16.816  0.00  0.00    +0.000 A 
ATOM     18  C   UNL     1       5.980   5.218  17.283  0.00  0.00    +0.000 A 
ATOM     19  S   UNL     1       4.843   4.226  16.448  0.00  0.00    +0.000 S 
ATOM     20  H   UNL     1       3.690   1.954  18.962  0.00  0.00    +0.000 HD
ENDBRANCH   8   9
ENDBRANCH   4   7
BRANCH   1  21
ATOM     21  O   UNL     1       2.028   7.509  21.256  0.00  0.00    +0.000 OA
BRANCH  21  26
ATOM     22 CL   UNL     1      -1.550  12.139  20.733  0.00  0.00    +0.000 Cl
ATOM     23  C   UNL     1      -0.564  10.735  20.843  0.00  0.00    +0.000 A 
ATOM     24  C   UNL     1       0.183  10.331  19.739  0.00  0.00    +0.000 A 
ATOM     25  C   UNL     1       1.007   9.212  19.836  0.00  0.00    +0.000 A 
ATOM     26  C   UNL     1       1.134   8.542  21.059  0.00  0.00    +0.000 A 
ATOM     27  C   UNL     1       0.341   8.912  22.145  0.00  0.00    +0.000 A 
ATOM     28  C   UNL     1      -0.510  10.013  22.037  0.00  0.00    +0.000 A 
ENDBRANCH  21  26
ENDBRANCH   1  21
TORSDOF 4
ENDMDL
MODEL 4
REMARK VINA RESULT:      -7.5      5.825      8.665
REMARK  Name = 
REMARK  4 active torsions:
REMARK  status: ('A' for Active; 'I' for Inactive)
REMARK    1  A    between atoms: C_5  and  O_6
REMARK    2  A    between atoms: O_6  and  C_7
REMARK    3  A    between atoms: C_10  and  C_11
REMARK    4  A    between atoms: N_12  and  N_13
REMARK                            x       y       z     vdW  Elec       q    Type
REMARK                         _______ _______ _______ _____ _____    ______ ____
ROOT
ATOM      1  C   UNL     1       1.820   8.274  19.672  0.00  0.00    +0.000 A 
ATOM      2  C   UNL     1       1.612   9.079  18.542  0.00  0.00    +0.000 A 
ATOM      3  C   UNL     1       0.798  10.209  18.623  0.00  0.00    +0.000 A 
ATOM      4  C   UNL     1       0.136  10.489  19.817  0.00  0.00    +0.000 A 
ATOM      5  C   UNL     1       0.298   9.654  20.932  0.00  0.00    +0.000 A 
ATOM      6  C   UNL     1       1.131   8.539  20.855  0.00  0.00    +0.000 A 
ENDROOT
BRANCH   4   7
ATOM      7  C   UNL     1      -0.705  11.703  19.892  0.00  0.00    +0.000 C 
ATOM      8  N   UNL     1      -0.385  12.861  20.401  0.00  0.00    +0.000 NA
BRANCH   8   9
ATOM      9  N   UNL     1       0.785  12.899  21.103  0.00  0.00    +0.000 N 
ATOM     10  C   UNL     1       1.907  13.547  20.706  0.00  0.00    +0.000 A 
ATOM     11  N   UNL     1       2.686  14.114  21.594  0.00  0.00    +0.000 NA
ATOM     12  C   UNL     1       3.726  14.760  20.974  0.00  0.00    +0.000 A 
ATOM     13  C   UNL     1       4.687  15.545  21.630  0.00  0.00    +0.000 A 
ATOM     14  C   UNL     1       5.693  16.172  20.884  0.00  0.00    +0.000 A 
ATOM     15  C   UNL     1       5.758  15.981  19.508  0.00  0.00    +0.000 A 
ATOM     16 CL   UNL     1       7.008  16.758  18.614  0.00  0.00    +0.000 Cl
ATOM     17  C   UNL     1       4.825  15.188  18.832  0.00  0.00    +0.000 A 
ATOM     18  C   UNL     1       3.795  14.606  19.589  0.00  0.00    +0.000 A 
ATOM     19  S   UNL     1       2.449  13.658  19.076  0.00  0.00    +0.000 S 
ATOM     20  H   UNL     1       0.686  12.971  22.115  0.00  0.00    +0.000 HD
ENDBRANCH   8   9
ENDBRANCH   4   7
BRANCH   1  21
ATOM     21  O   UNL     1       2.689   7.202  19.685  0.00  0.00    +0.000 OA
BRANCH  21  26
ATOM     22 CL   UNL     1       0.800   1.739  18.642  0.00  0.00    +0.000 Cl
ATOM     23  C   UNL     1       1.268   3.364  18.951  0.00  0.00    +0.000 A 
ATOM     24  C   UNL     1       1.229   3.854  20.255  0.00  0.00    +0.000 A 
ATOM     25  C   UNL     1       1.637   5.161  20.512  0.00  0.00    +0.000 A 
ATOM     26  C   UNL     1       2.150   5.950  19.475  0.00  0.00    +0.000 A 
ATOM     27  C   UNL     1       2.132   5.478  18.163  0.00  0.00    +0.000 A 
ATOM     28  C   UNL     1       1.690   4.179  17.900  0.00  0.00    +0.000 A 
ENDBRANCH  21  26
ENDBRANCH   1  21
TORSDOF 4
ENDMDL
MODEL 5
REMARK VINA RESULT:      -7.5      5.385      8.742
REMARK  Name = 
REMARK  4 active torsions:
REMARK  status: ('A' for Active; 'I' for Inactive)
REMARK    1  A    between atoms: C_5  and  O_6
REMARK    2  A    between atoms: O_6  and  C_7
REMARK    3  A    between atoms: C_10  and  C_11
REMARK    4  A    between atoms: N_12  and  N_13
REMARK                            x       y       z     vdW  Elec       q    Type
REMARK                         _______ _______ _______ _____ _____    ______ ____
ROOT
ATOM      1  C   UNL     1       2.456   7.452  19.202  0.00  0.00    +0.000 A 
ATOM      2  C   UNL     1       2.249   8.132  17.992  0.00  0.00    +0.000 A 
ATOM      3  C   UNL     1       1.377   9.220  17.936  0.00  0.00    +0.000 A 
ATOM      4  C   UNL     1       0.659   9.579  19.075  0.00  0.00    +0.000 A 
ATOM      5  C   UNL     1       0.823   8.866  20.271  0.00  0.00    +0.000 A 
ATOM      6  C   UNL     1       1.713   7.794  20.331  0.00  0.00    +0.000 A 
ENDROOT
BRANCH   4   7
ATOM      7  C   UNL     1      -0.243  10.747  19.004  0.00  0.00    +0.000 C 
ATOM      8  N   UNL     1      -0.027  11.948  19.465  0.00  0.00    +0.000 NA
BRANCH   8   9
ATOM      9  N   UNL     1       1.074  12.090  20.260  0.00  0.00    +0.000 N 
ATOM     10  C   UNL     1       2.081  12.970  20.041  0.00  0.00    +0.000 A 
ATOM     11  N   UNL     1       2.691  13.534  21.054  0.00  0.00    +0.000 NA
ATOM     12  C   UNL     1       3.631  14.429  20.607  0.00  0.00    +0.000 A 
ATOM     13  C   UNL     1       4.393  15.269  21.433  0.00  0.00    +0.000 A 
ATOM     14  C   UNL     1       5.310  16.157  20.857  0.00  0.00    +0.000 A 
ATOM     15  C   UNL     1       5.489  16.173  19.478  0.00  0.00    +0.000 A 
ATOM     16 CL   UNL     1       6.627  17.269  18.794  0.00  0.00    +0.000 Cl
ATOM     17  C   UNL     1       4.756  15.332  18.633  0.00  0.00    +0.000 A 
ATOM     18  C   UNL     1       3.807  14.482  19.224  0.00  0.00    +0.000 A 
ATOM     19  S   UNL     1       2.687  13.397  18.488  0.00  0.00    +0.000 S 
ATOM     20  H   UNL     1       0.905  12.003  21.262  0.00  0.00    +0.000 HD
ENDBRANCH   8   9
ENDBRANCH   4   7
BRANCH   1  21
ATOM     21  O   UNL     1       3.377   6.435  19.348  0.00  0.00    +0.000 OA
BRANCH  21  26
ATOM     22 CL   UNL     1       5.915   4.002  14.643  0.00  0.00    +0.000 Cl
ATOM     23  C   UNL     1       5.104   4.738  15.968  0.00  0.00    +0.000 A 
ATOM     24  C   UNL     1       4.069   4.057  16.603  0.00  0.00    +0.000 A 
ATOM     25  C   UNL     1       3.431   4.638  17.697  0.00  0.00    +0.000 A 
ATOM     26  C   UNL     1       3.878   5.868  18.195  0.00  0.00    +0.000 A 
ATOM     27  C   UNL     1       4.874   6.575  17.521  0.00  0.00    +0.000 A 
ATOM     28  C   UNL     1       5.490   6.007  16.403  0.00  0.00    +0.000 A 
ENDBRANCH  21  26
ENDBRANCH   1  21
TORSDOF 4
ENDMDL
MODEL 6
REMARK VINA RESULT:      -7.5      4.918     10.084
REMARK  Name = 
REMARK  4 active torsions:
REMARK  status: ('A' for Active; 'I' for Inactive)
REMARK    1  A    between atoms: C_5  and  O_6
REMARK    2  A    between atoms: O_6  and  C_7
REMARK    3  A    between atoms: C_10  and  C_11
REMARK    4  A    between atoms: N_12  and  N_13
REMARK                            x       y       z     vdW  Elec       q    Type
REMARK                         _______ _______ _______ _____ _____    ______ ____
ROOT
ATOM      1  C   UNL     1       1.603   7.460  20.374  0.00  0.00    +0.000 A 
ATOM      2  C   UNL     1       2.042   7.716  19.066  0.00  0.00    +0.000 A 
ATOM      3  C   UNL     1       1.947   9.001  18.530  0.00  0.00    +0.000 A 
ATOM      4  C   UNL     1       1.346  10.010  19.280  0.00  0.00    +0.000 A 
ATOM      5  C   UNL     1       0.857   9.744  20.567  0.00  0.00    +0.000 A 
ATOM      6  C   UNL     1       0.975   8.464  21.109  0.00  0.00    +0.000 A 
ENDROOT
BRANCH   4   7
ATOM      7  C   UNL     1       1.274  11.370  18.706  0.00  0.00    +0.000 C 
ATOM      8  N   UNL     1       0.225  11.973  18.217  0.00  0.00    +0.000 NA
BRANCH   8   9
ATOM      9  N   UNL     1      -0.884  11.193  18.050  0.00  0.00    +0.000 N 
ATOM     10  C   UNL     1      -2.132  11.522  18.461  0.00  0.00    +0.000 A 
ATOM     11  N   UNL     1      -3.173  11.156  17.754  0.00  0.00    +0.000 NA
ATOM     12  C   UNL     1      -4.327  11.641  18.316  0.00  0.00    +0.000 A 
ATOM     13  C   UNL     1      -5.607  11.510  17.757  0.00  0.00    +0.000 A 
ATOM     14  C   UNL     1      -6.710  12.067  18.418  0.00  0.00    +0.000 A 
ATOM     15  C   UNL     1      -6.536  12.709  19.640  0.00  0.00    +0.000 A 
ATOM     16 CL   UNL     1      -7.908  13.379  20.435  0.00  0.00    +0.000 Cl
ATOM     17  C   UNL     1      -5.273  12.835  20.229  0.00  0.00    +0.000 A 
ATOM     18  C   UNL     1      -4.173  12.314  19.529  0.00  0.00    +0.000 A 
ATOM     19  S   UNL     1      -2.493  12.372  19.913  0.00  0.00    +0.000 S 
ATOM     20  H   UNL     1      -0.934  10.688  17.165  0.00  0.00    +0.000 HD
ENDBRANCH   8   9
ENDBRANCH   4   7
BRANCH   1  21
ATOM     21  O   UNL     1       1.760   6.239  20.997  0.00  0.00    +0.000 OA
BRANCH  21  26
ATOM     22 CL   UNL     1       3.521   1.525  17.967  0.00  0.00    +0.000 Cl
ATOM     23  C   UNL     1       2.980   2.941  18.777  0.00  0.00    +0.000 A 
ATOM     24  C   UNL     1       1.621   3.110  19.032  0.00  0.00    +0.000 A 
ATOM     25  C   UNL     1       1.184   4.243  19.716  0.00  0.00    +0.000 A 
ATOM     26  C   UNL     1       2.115   5.168  20.204  0.00  0.00    +0.000 A 
ATOM     27  C   UNL     1       3.468   5.027  19.896  0.00  0.00    +0.000 A 
ATOM     28  C   UNL     1       3.902   3.908  19.180  0.00  0.00    +0.000 A 
ENDBRANCH  21  26
ENDBRANCH   1  21
TORSDOF 4
ENDMDL
MODEL 7
REMARK VINA RESULT:      -7.5      5.706      8.650
REMARK  Name = 
REMARK  4 active torsions:
REMARK  status: ('A' for Active; 'I' for Inactive)
REMARK    1  A    between atoms: C_5  and  O_6
REMARK    2  A    between atoms: O_6  and  C_7
REMARK    3  A    between atoms: C_10  and  C_11
REMARK    4  A    between atoms: N_12  and  N_13
REMARK                            x       y       z     vdW  Elec       q    Type
REMARK                         _______ _______ _______ _____ _____    ______ ____
ROOT
ATOM      1  C   UNL     1       2.146   7.876  19.361  0.00  0.00    +0.000 A 
ATOM      2  C   UNL     1       1.516   8.322  20.533  0.00  0.00    +0.000 A 
ATOM      3  C   UNL     1       0.629   9.397  20.490  0.00  0.00    +0.000 A 
ATOM      4  C   UNL     1       0.429  10.070  19.287  0.00  0.00    +0.000 A 
ATOM      5  C   UNL     1       1.100   9.661  18.125  0.00  0.00    +0.000 A 
ATOM      6  C   UNL     1       1.968   8.571  18.166  0.00  0.00    +0.000 A 
ENDROOT
BRANCH   4   7
ATOM      7  C   UNL     1      -0.532  11.192  19.255  0.00  0.00    +0.000 C 
ATOM      8  N   UNL     1      -0.382  12.383  19.768  0.00  0.00    +0.000 NA
BRANCH   8   9
ATOM      9  N   UNL     1       0.703  12.547  20.580  0.00  0.00    +0.000 N 
ATOM     10  C   UNL     1       1.800  13.279  20.271  0.00  0.00    +0.000 A 
ATOM     11  N   UNL     1       2.434  13.940  21.208  0.00  0.00    +0.000 NA
ATOM     12  C   UNL     1       3.473  14.656  20.668  0.00  0.00    +0.000 A 
ATOM     13  C   UNL     1       4.292  15.543  21.384  0.00  0.00    +0.000 A 
ATOM     14  C   UNL     1       5.312  16.233  20.716  0.00  0.00    +0.000 A 
ATOM     15  C   UNL     1       5.533  16.005  19.362  0.00  0.00    +0.000 A 
ATOM     16 CL   UNL     1       6.797  16.860  18.566  0.00  0.00    +0.000 Cl
ATOM     17  C   UNL     1       4.744  15.110  18.630  0.00  0.00    +0.000 A 
ATOM     18  C   UNL     1       3.696  14.464  19.304  0.00  0.00    +0.000 A 
ATOM     19  S   UNL     1       2.495  13.385  18.699  0.00  0.00    +0.000 S 
ATOM     20  H   UNL     1       0.496  12.642  21.574  0.00  0.00    +0.000 HD
ENDBRANCH   8   9
ENDBRANCH   4   7
BRANCH   1  21
ATOM     21  O   UNL     1       2.955   6.759  19.317  0.00  0.00    +0.000 OA
BRANCH  21  26
ATOM     22 CL   UNL     1       0.688   1.366  18.797  0.00  0.00    +0.000 Cl
ATOM     23  C   UNL     1       1.268   2.976  18.957  0.00  0.00    +0.000 A 
ATOM     24  C   UNL     1       1.348   3.555  20.221  0.00  0.00    +0.000 A 
ATOM     25  C   UNL     1       1.848   4.848  20.356  0.00  0.00    +0.000 A 
ATOM     26  C   UNL     1       2.332   5.532  19.233  0.00  0.00    +0.000 A 
ATOM     27  C   UNL     1       2.196   4.973  17.962  0.00  0.00    +0.000 A 
ATOM     28  C   UNL     1       1.663   3.690  17.824  0.00  0.00    +0.000 A 
ENDBRANCH  21  26
ENDBRANCH   1  21
TORSDOF 4
ENDMDL
MODEL 8
REMARK VINA RESULT:      -7.4      1.274      1.553
REMARK  Name = 
REMARK  4 active torsions:
REMARK  status: ('A' for Active; 'I' for Inactive)
REMARK    1  A    between atoms: C_5  and  O_6
REMARK    2  A    between atoms: O_6  and  C_7
REMARK    3  A    between atoms: C_10  and  C_11
REMARK    4  A    between atoms: N_12  and  N_13
REMARK                            x       y       z     vdW  Elec       q    Type
REMARK                         _______ _______ _______ _____ _____    ______ ____
ROOT
ATOM      1  C   UNL     1       1.614   9.028  18.919  0.00  0.00    +0.000 A 
ATOM      2  C   UNL     1       1.992   7.954  18.098  0.00  0.00    +0.000 A 
ATOM      3  C   UNL     1       2.060   6.661  18.617  0.00  0.00    +0.000 A 
ATOM      4  C   UNL     1       1.819   6.457  19.974  0.00  0.00    +0.000 A 
ATOM      5  C   UNL     1       1.494   7.536  20.808  0.00  0.00    +0.000 A 
ATOM      6  C   UNL     1       1.404   8.824  20.281  0.00  0.00    +0.000 A 
ENDROOT
BRANCH   4   7
ATOM      7  C   UNL     1       1.872   5.077  20.502  0.00  0.00    +0.000 C 
ATOM      8  N   UNL     1       2.932   4.345  20.709  0.00  0.00    +0.000 NA
BRANCH   8   9
ATOM      9  N   UNL     1       4.103   4.841  20.211  0.00  0.00    +0.000 N 
ATOM     10  C   UNL     1       4.552   4.649  18.948  0.00  0.00    +0.000 A 
ATOM     11  N   UNL     1       5.222   5.596  18.339  0.00  0.00    +0.000 NA
ATOM     12  C   UNL     1       5.528   5.215  17.056  0.00  0.00    +0.000 A 
ATOM     13  C   UNL     1       6.156   6.033  16.105  0.00  0.00    +0.000 A 
ATOM     14  C   UNL     1       6.399   5.537  14.818  0.00  0.00    +0.000 A 
ATOM     15  C   UNL     1       6.053   4.227  14.502  0.00  0.00    +0.000 A 
ATOM     16 CL   UNL     1       6.367   3.638  12.915  0.00  0.00    +0.000 Cl
ATOM     17  C   UNL     1       5.444   3.383  15.438  0.00  0.00    +0.000 A 
ATOM     18  C   UNL     1       5.164   3.913  16.708  0.00  0.00    +0.000 A 
ATOM     19  S   UNL     1       4.355   3.193  18.050  0.00  0.00    +0.000 S 
ATOM     20  H   UNL     1       4.349   5.780  20.525  0.00  0.00    +0.000 HD
ENDBRANCH   8   9
ENDBRANCH   4   7
BRANCH   1  21
ATOM     21  O   UNL     1       1.432  10.311  18.446  0.00  0.00    +0.000 OA
BRANCH  21  26
ATOM     22 CL   UNL     1      -4.043  12.278  19.263  0.00  0.00    +0.000 Cl
ATOM     23  C   UNL     1      -2.428  11.768  18.964  0.00  0.00    +0.000 A 
ATOM     24  C   UNL     1      -1.371  12.444  19.570  0.00  0.00    +0.000 A 
ATOM     25  C   UNL     1      -0.064  12.012  19.354  0.00  0.00    +0.000 A 
ATOM     26  C   UNL     1       0.177  10.864  18.590  0.00  0.00    +0.000 A 
ATOM     27  C   UNL     1      -0.878  10.225  17.938  0.00  0.00    +0.000 A 
ATOM     28  C   UNL     1      -2.185  10.678  18.127  0.00  0.00    +0.000 A 
ENDBRANCH  21  26
ENDBRANCH   1  21
TORSDOF 4
ENDMDL
MODEL 9
REMARK VINA RESULT:      -7.4      1.362      1.864
REMARK  Name = 
REMARK  4 active torsions:
REMARK  status: ('A' for Active; 'I' for Inactive)
REMARK    1  A    between atoms: C_5  and  O_6
REMARK    2  A    between atoms: O_6  and  C_7
REMARK    3  A    between atoms: C_10  and  C_11
REMARK    4  A    between atoms: N_12  and  N_13
REMARK                            x       y       z     vdW  Elec       q    Type
REMARK                         _______ _______ _______ _____ _____    ______ ____
ROOT
ATOM      1  C   UNL     1       1.859   6.878  19.718  0.00  0.00    +0.000 A 
ATOM      2  C   UNL     1       1.478   6.077  20.805  0.00  0.00    +0.000 A 
ATOM      3  C   UNL     1       1.306   4.703  20.641  0.00  0.00    +0.000 A 
ATOM      4  C   UNL     1       1.447   4.144  19.373  0.00  0.00    +0.000 A 
ATOM      5  C   UNL     1       1.774   4.951  18.274  0.00  0.00    +0.000 A 
ATOM      6  C   UNL     1       1.968   6.321  18.445  0.00  0.00    +0.000 A 
ENDROOT
BRANCH   4   7
ATOM      7  C   UNL     1       1.284   2.682  19.221  0.00  0.00    +0.000 C 
ATOM      8  N   UNL     1       2.184   1.758  19.413  0.00  0.00    +0.000 NA
BRANCH   8   9
ATOM      9  N   UNL     1       3.463   2.202  19.596  0.00  0.00    +0.000 N 
ATOM     10  C   UNL     1       4.231   2.770  18.636  0.00  0.00    +0.000 A 
ATOM     11  N   UNL     1       5.073   3.723  18.949  0.00  0.00    +0.000 NA
ATOM     12  C   UNL     1       5.702   4.194  17.823  0.00  0.00    +0.000 A 
ATOM     13  C   UNL     1       6.593   5.278  17.796  0.00  0.00    +0.000 A 
ATOM     14  C   UNL     1       7.158   5.678  16.579  0.00  0.00    +0.000 A 
ATOM     15  C   UNL     1       6.866   4.977  15.414  0.00  0.00    +0.000 A 
ATOM     16 CL   UNL     1       7.579   5.485  13.931  0.00  0.00    +0.000 Cl
ATOM     17  C   UNL     1       5.997   3.880  15.416  0.00  0.00    +0.000 A 
ATOM     18  C   UNL     1       5.402   3.523  16.637  0.00  0.00    +0.000 A 
ATOM     19  S   UNL     1       4.235   2.301  16.980  0.00  0.00    +0.000 S 
ATOM     20  H   UNL     1       3.647   2.649  20.493  0.00  0.00    +0.000 HD
ENDBRANCH   8   9
ENDBRANCH   4   7
BRANCH   1  21
ATOM     21  O   UNL     1       2.141   8.224  19.834  0.00  0.00    +0.000 OA
BRANCH  21  26
ATOM     22 CL   UNL     1      -1.714  11.183  23.133  0.00  0.00    +0.000 Cl
ATOM     23  C   UNL     1      -0.525  10.380  22.186  0.00  0.00    +0.000 A 
ATOM     24  C   UNL     1       0.443   9.602  22.815  0.00  0.00    +0.000 A 
ATOM     25  C   UNL     1       1.388   8.925  22.047  0.00  0.00    +0.000 A 
ATOM     26  C   UNL     1       1.318   8.972  20.650  0.00  0.00    +0.000 A 
ATOM     27  C   UNL     1       0.385   9.799  20.024  0.00  0.00    +0.000 A 
ATOM     28  C   UNL     1      -0.541  10.505  20.796  0.00  0.00    +0.000 A 
ENDBRANCH  21  26
ENDBRANCH   1  21
TORSDOF 4
ENDMDL
