MODEL 1
REMARK VINA RESULT:      -8.4      0.000      0.000
REMARK  Name = 
REMARK  6 active torsions:
REMARK  status: ('A' for Active; 'I' for Inactive)
REMARK    1  A    between atoms: C_5  and  C_6
REMARK    2  A    between atoms: C_5  and  C_7
REMARK    3  A    between atoms: C_12  and  O_13
REMARK    4  A    between atoms: C_12  and  C_14
REMARK    5  A    between atoms: C_14  and  N_15
REMARK    6  A    between atoms: C_18  and  C_19
REMARK                            x       y       z     vdW  Elec       q    Type
REMARK                         _______ _______ _______ _____ _____    ______ ____
ROOT
ATOM      1  C   UNL     1      -3.122  14.345  22.217  0.00  0.00    +0.000 C 
ATOM      2  O   UNL     1      -3.416  15.246  21.423  0.00  0.00    +0.000 OA
ATOM      3  N   UNL     1      -2.331  13.295  21.774  0.00  0.00    +0.000 N 
ATOM      4  C   UNL     1      -1.733  13.402  20.435  0.00  0.00    +0.000 C 
ATOM      5  C   UNL     1      -0.239  13.078  20.483  0.00  0.00    +0.000 C 
ATOM      6  C   UNL     1       0.033  11.714  21.142  0.00  0.00    +0.000 C 
ATOM      7  C   UNL     1      -0.606  11.729  22.535  0.00  0.00    +0.000 C 
ATOM      8  C   UNL     1      -2.092  12.029  22.456  0.00  0.00    +0.000 C 
ENDROOT
BRANCH   1  13
ATOM      9  C   UNL     1      -7.756  14.049  24.228  0.00  0.00    +0.000 C 
ATOM     10  C   UNL     1      -6.524  14.128  23.703  0.00  0.00    +0.000 C 
ATOM     11  C   UNL     1      -5.930  15.422  23.224  0.00  0.00    +0.000 C 
ATOM     12  C   UNL     1      -4.548  15.666  23.844  0.00  0.00    +0.000 C 
ATOM     13  C   UNL     1      -3.566  14.456  23.707  0.00  0.00    +0.000 C 
ATOM     14  C   UNL     1      -2.320  14.814  24.549  0.00  0.00    +0.000 C 
ATOM     15  C   UNL     1      -4.296  13.216  24.283  0.00  0.00    +0.000 C 
ATOM     16  C   UNL     1      -5.623  12.933  23.584  0.00  0.00    +0.000 C 
ENDBRANCH   1  13
BRANCH   6  17
ATOM     17  O   UNL     1       1.446  11.600  21.350  0.00  0.00    +0.000 OA
ATOM     18  H   UNL     1       1.613  11.201  22.224  0.00  0.00    +0.000 HD
ENDBRANCH   6  17
BRANCH   6  19
ATOM     19  C   UNL     1      -0.488  10.554  20.237  0.00  0.00    +0.000 C 
BRANCH  19  20
ATOM     20  N   UNL     1       0.564   9.651  19.783  0.00  0.00    +0.000 N 
ATOM     21  C   UNL     1       1.060   9.719  18.508  0.00  0.00    +0.000 A 
ATOM     22  N   UNL     1       1.871   8.872  17.972  0.00  0.00    +0.000 NA
ATOM     23  C   UNL     1       2.269   7.807  18.753  0.00  0.00    +0.000 A 
ATOM     24  C   UNL     1       1.956   7.711  20.053  0.00  0.00    +0.000 A 
ATOM     25  C   UNL     1       1.015   8.677  20.638  0.00  0.00    +0.000 A 
ATOM     26  O   UNL     1       0.677   8.573  21.817  0.00  0.00    +0.000 OA
BRANCH  23  27
ATOM     27  C   UNL     1       3.075   6.743  18.093  0.00  0.00    +0.000 A 
ATOM     28  C   UNL     1       4.214   7.083  17.341  0.00  0.00    +0.000 A 
ATOM     29  C   UNL     1       4.949   6.105  16.658  0.00  0.00    +0.000 A 
ATOM     30  C   UNL     1       4.561   4.768  16.714  0.00  0.00    +0.000 A 
ATOM     31  C   UNL     1       3.435   4.410  17.447  0.00  0.00    +0.000 A 
ATOM     32  C   UNL     1       2.701   5.389  18.113  0.00  0.00    +0.000 A 
ATOM     33  F   UNL     1       1.596   4.988  18.763  0.00  0.00    +0.000 F 
ENDBRANCH  23  27
ENDBRANCH  19  20
ENDBRANCH   6  19
TORSDOF 5
ENDMDL
MODEL 2
REMARK VINA RESULT:      -8.3      3.959      6.732
REMARK  Name = 
REMARK  6 active torsions:
REMARK  status: ('A' for Active; 'I' for Inactive)
REMARK    1  A    between atoms: C_5  and  C_6
REMARK    2  A    between atoms: C_5  and  C_7
REMARK    3  A    between atoms: C_12  and  O_13
REMARK    4  A    between atoms: C_12  and  C_14
REMARK    5  A    between atoms: C_14  and  N_15
REMARK    6  A    between atoms: C_18  and  C_19
REMARK                            x       y       z     vdW  Elec       q    Type
REMARK                         _______ _______ _______ _____ _____    ______ ____
ROOT
ATOM      1  C   UNL     1       0.612   9.771  20.452  0.00  0.00    +0.000 C 
ATOM      2  O   UNL     1       0.379   9.775  21.666  0.00  0.00    +0.000 OA
ATOM      3  N   UNL     1       1.443   8.787  19.934  0.00  0.00    +0.000 N 
ATOM      4  C   UNL     1       1.856   7.696  20.827  0.00  0.00    +0.000 C 
ATOM      5  C   UNL     1       1.639   6.338  20.157  0.00  0.00    +0.000 C 
ATOM      6  C   UNL     1       2.321   6.261  18.779  0.00  0.00    +0.000 C 
ATOM      7  C   UNL     1       1.796   7.423  17.929  0.00  0.00    +0.000 C 
ATOM      8  C   UNL     1       2.045   8.758  18.607  0.00  0.00    +0.000 C 
ENDROOT
BRANCH   1  13
ATOM      9  C   UNL     1       1.182  14.792  20.193  0.00  0.00    +0.000 C 
ATOM     10  C   UNL     1       1.026  13.461  20.255  0.00  0.00    +0.000 C 
ATOM     11  C   UNL     1       0.042  12.804  21.180  0.00  0.00    +0.000 C 
ATOM     12  C   UNL     1      -0.869  11.827  20.426  0.00  0.00    +0.000 C 
ATOM     13  C   UNL     1      -0.100  10.803  19.527  0.00  0.00    +0.000 C 
ATOM     14  C   UNL     1      -1.176  10.050  18.713  0.00  0.00    +0.000 C 
ATOM     15  C   UNL     1       0.831  11.628  18.602  0.00  0.00    +0.000 C 
ATOM     16  C   UNL     1       1.798  12.520  19.376  0.00  0.00    +0.000 C 
ENDBRANCH   1  13
BRANCH   6  17
ATOM     17  O   UNL     1       1.878   5.060  18.136  0.00  0.00    +0.000 OA
ATOM     18  H   UNL     1       1.177   5.278  17.493  0.00  0.00    +0.000 HD
ENDBRANCH   6  17
BRANCH   6  19
ATOM     19  C   UNL     1       3.874   6.265  18.934  0.00  0.00    +0.000 C 
BRANCH  19  20
ATOM     20  N   UNL     1       4.579   5.778  17.754  0.00  0.00    +0.000 N 
ATOM     21  C   UNL     1       4.919   6.620  16.729  0.00  0.00    +0.000 A 
ATOM     22  N   UNL     1       5.399   6.257  15.588  0.00  0.00    +0.000 NA
ATOM     23  C   UNL     1       5.584   4.906  15.388  0.00  0.00    +0.000 A 
ATOM     24  C   UNL     1       5.415   4.003  16.365  0.00  0.00    +0.000 A 
ATOM     25  C   UNL     1       4.848   4.435  17.651  0.00  0.00    +0.000 A 
ATOM     26  O   UNL     1       4.638   3.612  18.542  0.00  0.00    +0.000 OA
BRANCH  23  27
ATOM     27  C   UNL     1       5.986   4.468  14.022  0.00  0.00    +0.000 A 
ATOM     28  C   UNL     1       5.157   3.604  13.284  0.00  0.00    +0.000 A 
ATOM     29  C   UNL     1       5.545   3.128  12.025  0.00  0.00    +0.000 A 
ATOM     30  C   UNL     1       6.770   3.506  11.479  0.00  0.00    +0.000 A 
ATOM     31  C   UNL     1       7.608   4.354  12.194  0.00  0.00    +0.000 A 
ATOM     32  C   UNL     1       7.222   4.814  13.450  0.00  0.00    +0.000 A 
ATOM     33  F   UNL     1       8.095   5.591  14.112  0.00  0.00    +0.000 F 
ENDBRANCH  23  27
ENDBRANCH  19  20
ENDBRANCH   6  19
TORSDOF 5
ENDMDL
MODEL 3
REMARK VINA RESULT:      -7.9      3.818      6.567
REMARK  Name = 
REMARK  6 active torsions:
REMARK  status: ('A' for Active; 'I' for Inactive)
REMARK    1  A    between atoms: C_5  and  C_6
REMARK    2  A    between atoms: C_5  and  C_7
REMARK    3  A    between atoms: C_12  and  O_13
REMARK    4  A    between atoms: C_12  and  C_14
REMARK    5  A    between atoms: C_14  and  N_15
REMARK    6  A    between atoms: C_18  and  C_19
REMARK                            x       y       z     vdW  Elec       q    Type
REMARK                         _______ _______ _______ _____ _____    ______ ____
ROOT
ATOM      1  C   UNL     1       0.558   9.724  20.410  0.00  0.00    +0.000 C 
ATOM      2  O   UNL     1       0.220   9.765  21.599  0.00  0.00    +0.000 OA
ATOM      3  N   UNL     1       1.423   8.721  19.994  0.00  0.00    +0.000 N 
ATOM      4  C   UNL     1       1.746   7.653  20.950  0.00  0.00    +0.000 C 
ATOM      5  C   UNL     1       1.577   6.278  20.302  0.00  0.00    +0.000 C 
ATOM      6  C   UNL     1       2.375   6.157  18.991  0.00  0.00    +0.000 C 
ATOM      7  C   UNL     1       1.936   7.297  18.067  0.00  0.00    +0.000 C 
ATOM      8  C   UNL     1       2.137   8.650  18.726  0.00  0.00    +0.000 C 
ENDROOT
BRANCH   1  13
ATOM      9  C   UNL     1       0.864  14.773  20.303  0.00  0.00    +0.000 C 
ATOM     10  C   UNL     1       0.779  13.435  20.324  0.00  0.00    +0.000 C 
ATOM     11  C   UNL     1      -0.296  12.704  21.077  0.00  0.00    +0.000 C 
ATOM     12  C   UNL     1      -1.020  11.694  20.178  0.00  0.00    +0.000 C 
ATOM     13  C   UNL     1      -0.062  10.734  19.397  0.00  0.00    +0.000 C 
ATOM     14  C   UNL     1      -0.952   9.939  18.417  0.00  0.00    +0.000 C 
ATOM     15  C   UNL     1       0.951  11.629  18.639  0.00  0.00    +0.000 C 
ATOM     16  C   UNL     1       1.732  12.557  19.565  0.00  0.00    +0.000 C 
ENDBRANCH   1  13
BRANCH   6  17
ATOM     17  O   UNL     1       1.980   4.941  18.346  0.00  0.00    +0.000 OA
ATOM     18  H   UNL     1       2.771   4.399  18.167  0.00  0.00    +0.000 HD
ENDBRANCH   6  17
BRANCH   6  19
ATOM     19  C   UNL     1       3.909   6.155  19.282  0.00  0.00    +0.000 C 
BRANCH  19  20
ATOM     20  N   UNL     1       4.723   5.843  18.112  0.00  0.00    +0.000 N 
ATOM     21  C   UNL     1       4.812   6.708  17.054  0.00  0.00    +0.000 A 
ATOM     22  N   UNL     1       5.376   6.454  15.922  0.00  0.00    +0.000 NA
ATOM     23  C   UNL     1       5.934   5.203  15.769  0.00  0.00    +0.000 A 
ATOM     24  C   UNL     1       6.026   4.326  16.779  0.00  0.00    +0.000 A 
ATOM     25  C   UNL     1       5.360   4.628  18.054  0.00  0.00    +0.000 A 
ATOM     26  O   UNL     1       5.390   3.813  18.976  0.00  0.00    +0.000 OA
BRANCH  23  27
ATOM     27  C   UNL     1       6.444   4.846  14.416  0.00  0.00    +0.000 A 
ATOM     28  C   UNL     1       7.615   5.446  13.921  0.00  0.00    +0.000 A 
ATOM     29  C   UNL     1       8.077   5.174  12.626  0.00  0.00    +0.000 A 
ATOM     30  C   UNL     1       7.376   4.297  11.801  0.00  0.00    +0.000 A 
ATOM     31  C   UNL     1       6.212   3.697  12.267  0.00  0.00    +0.000 A 
ATOM     32  C   UNL     1       5.752   3.981  13.551  0.00  0.00    +0.000 A 
ATOM     33  F   UNL     1       4.597   3.409  13.927  0.00  0.00    +0.000 F 
ENDBRANCH  23  27
ENDBRANCH  19  20
ENDBRANCH   6  19
TORSDOF 5
ENDMDL
MODEL 4
REMARK VINA RESULT:      -7.8      2.143      3.261
REMARK  Name = 
REMARK  6 active torsions:
REMARK  status: ('A' for Active; 'I' for Inactive)
REMARK    1  A    between atoms: C_5  and  C_6
REMARK    2  A    between atoms: C_5  and  C_7
REMARK    3  A    between atoms: C_12  and  O_13
REMARK    4  A    between atoms: C_12  and  C_14
REMARK    5  A    between atoms: C_14  and  N_15
REMARK    6  A    between atoms: C_18  and  C_19
REMARK                            x       y       z     vdW  Elec       q    Type
REMARK                         _______ _______ _______ _____ _____    ______ ____
ROOT
ATOM      1  C   UNL     1      -2.205  12.709  22.448  0.00  0.00    +0.000 C 
ATOM      2  O   UNL     1      -2.709  11.931  23.267  0.00  0.00    +0.000 OA
ATOM      3  N   UNL     1      -1.290  12.213  21.530  0.00  0.00    +0.000 N 
ATOM      4  C   UNL     1      -1.105  10.757  21.462  0.00  0.00    +0.000 C 
ATOM      5  C   UNL     1      -1.180  10.270  20.014  0.00  0.00    +0.000 C 
ATOM      6  C   UNL     1      -0.203  11.031  19.100  0.00  0.00    +0.000 C 
ATOM      7  C   UNL     1      -0.507  12.527  19.229  0.00  0.00    +0.000 C 
ATOM      8  C   UNL     1      -0.402  12.988  20.672  0.00  0.00    +0.000 C 
ENDROOT
BRANCH   1  13
ATOM      9  C   UNL     1      -1.713  16.341  25.936  0.00  0.00    +0.000 C 
ATOM     10  C   UNL     1      -1.846  15.384  25.006  0.00  0.00    +0.000 C 
ATOM     11  C   UNL     1      -3.022  14.450  24.970  0.00  0.00    +0.000 C 
ATOM     12  C   UNL     1      -3.679  14.430  23.583  0.00  0.00    +0.000 C 
ATOM     13  C   UNL     1      -2.675  14.194  22.406  0.00  0.00    +0.000 C 
ATOM     14  C   UNL     1      -3.480  14.402  21.104  0.00  0.00    +0.000 C 
ATOM     15  C   UNL     1      -1.555  15.255  22.551  0.00  0.00    +0.000 C 
ATOM     16  C   UNL     1      -0.848  15.191  23.902  0.00  0.00    +0.000 C 
ENDBRANCH   1  13
BRANCH   6  17
ATOM     17  O   UNL     1      -0.502  10.676  17.744  0.00  0.00    +0.000 OA
ATOM     18  H   UNL     1      -0.687  11.486  17.232  0.00  0.00    +0.000 HD
ENDBRANCH   6  17
BRANCH   6  19
ATOM     19  C   UNL     1       1.274  10.670  19.452  0.00  0.00    +0.000 C 
BRANCH  19  20
ATOM     20  N   UNL     1       1.548   9.237  19.419  0.00  0.00    +0.000 N 
ATOM     21  C   UNL     1       1.411   8.459  20.538  0.00  0.00    +0.000 A 
ATOM     22  N   UNL     1       1.776   7.227  20.644  0.00  0.00    +0.000 NA
ATOM     23  C   UNL     1       2.353   6.648  19.534  0.00  0.00    +0.000 A 
ATOM     24  C   UNL     1       2.414   7.268  18.347  0.00  0.00    +0.000 A 
ATOM     25  C   UNL     1       2.011   8.679  18.254  0.00  0.00    +0.000 A 
ATOM     26  O   UNL     1       2.108   9.280  17.183  0.00  0.00    +0.000 OA
BRANCH  23  27
ATOM     27  C   UNL     1       2.920   5.280  19.696  0.00  0.00    +0.000 A 
ATOM     28  C   UNL     1       4.243   5.012  19.301  0.00  0.00    +0.000 A 
ATOM     29  C   UNL     1       4.775   3.719  19.384  0.00  0.00    +0.000 A 
ATOM     30  C   UNL     1       3.997   2.668  19.864  0.00  0.00    +0.000 A 
ATOM     31  C   UNL     1       2.684   2.909  20.255  0.00  0.00    +0.000 A 
ATOM     32  C   UNL     1       2.157   4.195  20.159  0.00  0.00    +0.000 A 
ATOM     33  F   UNL     1       0.870   4.355  20.506  0.00  0.00    +0.000 F 
ENDBRANCH  23  27
ENDBRANCH  19  20
ENDBRANCH   6  19
TORSDOF 5
ENDMDL
MODEL 5
REMARK VINA RESULT:      -7.6      0.938      1.227
REMARK  Name = 
REMARK  6 active torsions:
REMARK  status: ('A' for Active; 'I' for Inactive)
REMARK    1  A    between atoms: C_5  and  C_6
REMARK    2  A    between atoms: C_5  and  C_7
REMARK    3  A    between atoms: C_12  and  O_13
REMARK    4  A    between atoms: C_12  and  C_14
REMARK    5  A    between atoms: C_14  and  N_15
REMARK    6  A    between atoms: C_18  and  C_19
REMARK                            x       y       z     vdW  Elec       q    Type
REMARK                         _______ _______ _______ _____ _____    ______ ____
ROOT
ATOM      1  C   UNL     1      -3.335  14.378  22.122  0.00  0.00    +0.000 C 
ATOM      2  O   UNL     1      -3.714  15.210  21.289  0.00  0.00    +0.000 OA
ATOM      3  N   UNL     1      -2.506  13.346  21.706  0.00  0.00    +0.000 N 
ATOM      4  C   UNL     1      -1.975  13.400  20.337  0.00  0.00    +0.000 C 
ATOM      5  C   UNL     1      -0.465  13.160  20.333  0.00  0.00    +0.000 C 
ATOM      6  C   UNL     1      -0.087  11.857  21.060  0.00  0.00    +0.000 C 
ATOM      7  C   UNL     1      -0.664  11.925  22.478  0.00  0.00    +0.000 C 
ATOM      8  C   UNL     1      -2.167  12.140  22.451  0.00  0.00    +0.000 C 
ENDROOT
BRANCH   1  13
ATOM      9  C   UNL     1      -7.838  13.887  24.377  0.00  0.00    +0.000 C 
ATOM     10  C   UNL     1      -6.640  14.018  23.787  0.00  0.00    +0.000 C 
ATOM     11  C   UNL     1      -6.168  15.316  23.196  0.00  0.00    +0.000 C 
ATOM     12  C   UNL     1      -4.782  15.702  23.728  0.00  0.00    +0.000 C 
ATOM     13  C   UNL     1      -3.718  14.559  23.622  0.00  0.00    +0.000 C 
ATOM     14  C   UNL     1      -2.467  15.064  24.375  0.00  0.00    +0.000 C 
ATOM     15  C   UNL     1      -4.326  13.312  24.313  0.00  0.00    +0.000 C 
ATOM     16  C   UNL     1      -5.658  12.886  23.702  0.00  0.00    +0.000 C 
ENDBRANCH   1  13
BRANCH   6  17
ATOM     17  O   UNL     1       1.338  11.832  21.207  0.00  0.00    +0.000 OA
ATOM     18  H   UNL     1       1.669  10.940  20.990  0.00  0.00    +0.000 HD
ENDBRANCH   6  17
BRANCH   6  19
ATOM     19  C   UNL     1      -0.582  10.615  20.253  0.00  0.00    +0.000 C 
BRANCH  19  20
ATOM     20  N   UNL     1       0.462   9.627  20.005  0.00  0.00    +0.000 N 
ATOM     21  C   UNL     1       1.050   9.505  18.774  0.00  0.00    +0.000 A 
ATOM     22  N   UNL     1       1.862   8.567  18.420  0.00  0.00    +0.000 NA
ATOM     23  C   UNL     1       2.160   7.608  19.365  0.00  0.00    +0.000 A 
ATOM     24  C   UNL     1       1.752   7.700  20.639  0.00  0.00    +0.000 A 
ATOM     25  C   UNL     1       0.811   8.766  21.015  0.00  0.00    +0.000 A 
ATOM     26  O   UNL     1       0.386   8.836  22.169  0.00  0.00    +0.000 OA
BRANCH  23  27
ATOM     27  C   UNL     1       2.967   6.439  18.917  0.00  0.00    +0.000 A 
ATOM     28  C   UNL     1       2.987   5.259  19.683  0.00  0.00    +0.000 A 
ATOM     29  C   UNL     1       3.789   4.171  19.316  0.00  0.00    +0.000 A 
ATOM     30  C   UNL     1       4.588   4.241  18.176  0.00  0.00    +0.000 A 
ATOM     31  C   UNL     1       4.589   5.400  17.408  0.00  0.00    +0.000 A 
ATOM     32  C   UNL     1       3.798   6.483  17.785  0.00  0.00    +0.000 A 
ATOM     33  F   UNL     1       3.878   7.590  17.031  0.00  0.00    +0.000 F 
ENDBRANCH  23  27
ENDBRANCH  19  20
ENDBRANCH   6  19
TORSDOF 5
ENDMDL
MODEL 6
REMARK VINA RESULT:      -7.6      1.046      1.140
REMARK  Name = 
REMARK  6 active torsions:
REMARK  status: ('A' for Active; 'I' for Inactive)
REMARK    1  A    between atoms: C_5  and  C_6
REMARK    2  A    between atoms: C_5  and  C_7
REMARK    3  A    between atoms: C_12  and  O_13
REMARK    4  A    between atoms: C_12  and  C_14
REMARK    5  A    between atoms: C_14  and  N_15
REMARK    6  A    between atoms: C_18  and  C_19
REMARK                            x       y       z     vdW  Elec       q    Type
REMARK                         _______ _______ _______ _____ _____    ______ ____
ROOT
ATOM      1  C   UNL     1      -4.132  13.701  21.001  0.00  0.00    +0.000 C 
ATOM      2  O   UNL     1      -4.923  13.883  20.068  0.00  0.00    +0.000 OA
ATOM      3  N   UNL     1      -3.102  12.787  20.835  0.00  0.00    +0.000 N 
ATOM      4  C   UNL     1      -2.896  12.218  19.496  0.00  0.00    +0.000 C 
ATOM      5  C   UNL     1      -1.425  12.308  19.090  0.00  0.00    +0.000 C 
ATOM      6  C   UNL     1      -0.497  11.680  20.146  0.00  0.00    +0.000 C 
ATOM      7  C   UNL     1      -0.777  12.366  21.486  0.00  0.00    +0.000 C 
ATOM      8  C   UNL     1      -2.239  12.240  21.875  0.00  0.00    +0.000 C 
ENDROOT
BRANCH   1  13
ATOM      9  C   UNL     1      -7.894  13.919  24.378  0.00  0.00    +0.000 C 
ATOM     10  C   UNL     1      -6.892  13.867  23.488  0.00  0.00    +0.000 C 
ATOM     11  C   UNL     1      -6.848  14.740  22.267  0.00  0.00    +0.000 C 
ATOM     12  C   UNL     1      -5.511  15.485  22.160  0.00  0.00    +0.000 C 
ATOM     13  C   UNL     1      -4.255  14.562  22.295  0.00  0.00    +0.000 C 
ATOM     14  C   UNL     1      -3.032  15.503  22.358  0.00  0.00    +0.000 C 
ATOM     15  C   UNL     1      -4.421  13.766  23.615  0.00  0.00    +0.000 C 
ATOM     16  C   UNL     1      -5.713  12.953  23.659  0.00  0.00    +0.000 C 
ENDBRANCH   1  13
BRANCH   6  17
ATOM     17  O   UNL     1       0.853  12.010  19.798  0.00  0.00    +0.000 OA
ATOM     18  H   UNL     1       0.892  12.253  18.853  0.00  0.00    +0.000 HD
ENDBRANCH   6  17
BRANCH   6  19
ATOM     19  C   UNL     1      -0.692  10.131  20.193  0.00  0.00    +0.000 C 
BRANCH  19  20
ATOM     20  N   UNL     1       0.454   9.383  19.688  0.00  0.00    +0.000 N 
ATOM     21  C   UNL     1       0.798   9.415  18.363  0.00  0.00    +0.000 A 
ATOM     22  N   UNL     1       1.690   8.672  17.801  0.00  0.00    +0.000 NA
ATOM     23  C   UNL     1       2.351   7.770  18.607  0.00  0.00    +0.000 A 
ATOM     24  C   UNL     1       2.195   7.744  19.939  0.00  0.00    +0.000 A 
ATOM     25  C   UNL     1       1.158   8.585  20.555  0.00  0.00    +0.000 A 
ATOM     26  O   UNL     1       0.966   8.537  21.771  0.00  0.00    +0.000 OA
BRANCH  23  27
ATOM     27  C   UNL     1       3.265   6.802  17.939  0.00  0.00    +0.000 A 
ATOM     28  C   UNL     1       4.368   7.266  17.201  0.00  0.00    +0.000 A 
ATOM     29  C   UNL     1       5.203   6.377  16.511  0.00  0.00    +0.000 A 
ATOM     30  C   UNL     1       4.952   5.008  16.546  0.00  0.00    +0.000 A 
ATOM     31  C   UNL     1       3.863   4.527  17.265  0.00  0.00    +0.000 A 
ATOM     32  C   UNL     1       3.030   5.417  17.939  0.00  0.00    +0.000 A 
ATOM     33  F   UNL     1       1.968   4.897  18.575  0.00  0.00    +0.000 F 
ENDBRANCH  23  27
ENDBRANCH  19  20
ENDBRANCH   6  19
TORSDOF 5
ENDMDL
MODEL 7
REMARK VINA RESULT:      -7.5      3.960      6.937
REMARK  Name = 
REMARK  6 active torsions:
REMARK  status: ('A' for Active; 'I' for Inactive)
REMARK    1  A    between atoms: C_5  and  C_6
REMARK    2  A    between atoms: C_5  and  C_7
REMARK    3  A    between atoms: C_12  and  O_13
REMARK    4  A    between atoms: C_12  and  C_14
REMARK    5  A    between atoms: C_14  and  N_15
REMARK    6  A    between atoms: C_18  and  C_19
REMARK                            x       y       z     vdW  Elec       q    Type
REMARK                         _______ _______ _______ _____ _____    ______ ____
ROOT
ATOM      1  C   UNL     1       1.353   9.425  20.047  0.00  0.00    +0.000 C 
ATOM      2  O   UNL     1       1.080   9.719  21.217  0.00  0.00    +0.000 OA
ATOM      3  N   UNL     1       1.876   8.167  19.779  0.00  0.00    +0.000 N 
ATOM      4  C   UNL     1       1.906   7.187  20.874  0.00  0.00    +0.000 C 
ATOM      5  C   UNL     1       1.325   5.849  20.418  0.00  0.00    +0.000 C 
ATOM      6  C   UNL     1       2.011   5.328  19.143  0.00  0.00    +0.000 C 
ATOM      7  C   UNL     1       1.892   6.413  18.068  0.00  0.00    +0.000 C 
ATOM      8  C   UNL     1       2.497   7.723  18.538  0.00  0.00    +0.000 C 
ENDROOT
BRANCH   1  13
ATOM      9  C   UNL     1      -2.931  11.953  19.124  0.00  0.00    +0.000 C 
ATOM     10  C   UNL     1      -1.791  11.287  19.362  0.00  0.00    +0.000 C 
ATOM     11  C   UNL     1      -1.526   9.915  18.812  0.00  0.00    +0.000 C 
ATOM     12  C   UNL     1      -0.181   9.858  18.077  0.00  0.00    +0.000 C 
ATOM     13  C   UNL     1       1.021  10.428  18.901  0.00  0.00    +0.000 C 
ATOM     14  C   UNL     1       2.227  10.465  17.937  0.00  0.00    +0.000 C 
ATOM     15  C   UNL     1       0.619  11.854  19.356  0.00  0.00    +0.000 C 
ATOM     16  C   UNL     1      -0.672  11.875  20.171  0.00  0.00    +0.000 C 
ENDBRANCH   1  13
BRANCH   6  17
ATOM     17  O   UNL     1       1.259   4.205  18.666  0.00  0.00    +0.000 OA
ATOM     18  H   UNL     1       0.619   4.507  17.994  0.00  0.00    +0.000 HD
ENDBRANCH   6  17
BRANCH   6  19
ATOM     19  C   UNL     1       3.487   4.917  19.443  0.00  0.00    +0.000 C 
BRANCH  19  20
ATOM     20  N   UNL     1       4.277   4.662  18.243  0.00  0.00    +0.000 N 
ATOM     21  C   UNL     1       5.085   5.627  17.705  0.00  0.00    +0.000 A 
ATOM     22  N   UNL     1       5.695   5.549  16.571  0.00  0.00    +0.000 NA
ATOM     23  C   UNL     1       5.513   4.392  15.842  0.00  0.00    +0.000 A 
ATOM     24  C   UNL     1       4.856   3.330  16.329  0.00  0.00    +0.000 A 
ATOM     25  C   UNL     1       4.152   3.449  17.614  0.00  0.00    +0.000 A 
ATOM     26  O   UNL     1       3.501   2.500  18.052  0.00  0.00    +0.000 OA
BRANCH  23  27
ATOM     27  C   UNL     1       6.082   4.358  14.466  0.00  0.00    +0.000 A 
ATOM     28  C   UNL     1       5.490   3.552  13.476  0.00  0.00    +0.000 A 
ATOM     29  C   UNL     1       6.046   3.454  12.194  0.00  0.00    +0.000 A 
ATOM     30  C   UNL     1       7.204   4.160  11.876  0.00  0.00    +0.000 A 
ATOM     31  C   UNL     1       7.809   4.958  12.840  0.00  0.00    +0.000 A 
ATOM     32  C   UNL     1       7.258   5.042  14.117  0.00  0.00    +0.000 A 
ATOM     33  F   UNL     1       7.915   5.790  15.018  0.00  0.00    +0.000 F 
ENDBRANCH  23  27
ENDBRANCH  19  20
ENDBRANCH   6  19
TORSDOF 5
ENDMDL
MODEL 8
REMARK VINA RESULT:      -7.5      2.211      3.442
REMARK  Name = 
REMARK  6 active torsions:
REMARK  status: ('A' for Active; 'I' for Inactive)
REMARK    1  A    between atoms: C_5  and  C_6
REMARK    2  A    between atoms: C_5  and  C_7
REMARK    3  A    between atoms: C_12  and  O_13
REMARK    4  A    between atoms: C_12  and  C_14
REMARK    5  A    between atoms: C_14  and  N_15
REMARK    6  A    between atoms: C_18  and  C_19
REMARK                            x       y       z     vdW  Elec       q    Type
REMARK                         _______ _______ _______ _____ _____    ______ ____
ROOT
ATOM      1  C   UNL     1      -2.072  12.889  22.433  0.00  0.00    +0.000 C 
ATOM      2  O   UNL     1      -2.588  12.144  23.275  0.00  0.00    +0.000 OA
ATOM      3  N   UNL     1      -1.177  12.348  21.520  0.00  0.00    +0.000 N 
ATOM      4  C   UNL     1      -1.030  10.886  21.487  0.00  0.00    +0.000 C 
ATOM      5  C   UNL     1      -1.129  10.366  20.052  0.00  0.00    +0.000 C 
ATOM      6  C   UNL     1      -0.142  11.079  19.111  0.00  0.00    +0.000 C 
ATOM      7  C   UNL     1      -0.406  12.585  19.206  0.00  0.00    +0.000 C 
ATOM      8  C   UNL     1      -0.278  13.078  20.636  0.00  0.00    +0.000 C 
ENDROOT
BRANCH   1  13
ATOM      9  C   UNL     1      -1.591  16.556  25.886  0.00  0.00    +0.000 C 
ATOM     10  C   UNL     1      -1.721  15.590  24.965  0.00  0.00    +0.000 C 
ATOM     11  C   UNL     1      -2.918  14.683  24.907  0.00  0.00    +0.000 C 
ATOM     12  C   UNL     1      -3.535  14.661  23.503  0.00  0.00    +0.000 C 
ATOM     13  C   UNL     1      -2.504  14.384  22.358  0.00  0.00    +0.000 C 
ATOM     14  C   UNL     1      -3.268  14.593  21.031  0.00  0.00    +0.000 C 
ATOM     15  C   UNL     1      -1.363  15.420  22.521  0.00  0.00    +0.000 C 
ATOM     16  C   UNL     1      -0.696  15.358  23.892  0.00  0.00    +0.000 C 
ENDBRANCH   1  13
BRANCH   6  17
ATOM     17  O   UNL     1      -0.461  10.699  17.768  0.00  0.00    +0.000 OA
ATOM     18  H   UNL     1       0.272  10.957  17.176  0.00  0.00    +0.000 HD
ENDBRANCH   6  17
BRANCH   6  19
ATOM     19  C   UNL     1       1.329  10.689  19.462  0.00  0.00    +0.000 C 
BRANCH  19  20
ATOM     20  N   UNL     1       1.578   9.252  19.413  0.00  0.00    +0.000 N 
ATOM     21  C   UNL     1       1.409   8.462  20.519  0.00  0.00    +0.000 A 
ATOM     22  N   UNL     1       1.751   7.222  20.615  0.00  0.00    +0.000 NA
ATOM     23  C   UNL     1       2.336   6.648  19.507  0.00  0.00    +0.000 A 
ATOM     24  C   UNL     1       2.428   7.282  18.329  0.00  0.00    +0.000 A 
ATOM     25  C   UNL     1       2.051   8.701  18.249  0.00  0.00    +0.000 A 
ATOM     26  O   UNL     1       2.177   9.314  17.188  0.00  0.00    +0.000 OA
BRANCH  23  27
ATOM     27  C   UNL     1       2.876   5.268  19.660  0.00  0.00    +0.000 A 
ATOM     28  C   UNL     1       2.144   4.296  20.366  0.00  0.00    +0.000 A 
ATOM     29  C   UNL     1       2.662   3.012  20.579  0.00  0.00    +0.000 A 
ATOM     30  C   UNL     1       3.922   2.674  20.090  0.00  0.00    +0.000 A 
ATOM     31  C   UNL     1       4.666   3.621  19.395  0.00  0.00    +0.000 A 
ATOM     32  C   UNL     1       4.151   4.899  19.197  0.00  0.00    +0.000 A 
ATOM     33  F   UNL     1       4.936   5.783  18.562  0.00  0.00    +0.000 F 
ENDBRANCH  23  27
ENDBRANCH  19  20
ENDBRANCH   6  19
TORSDOF 5
ENDMDL
MODEL 9
REMARK VINA RESULT:      -7.4      1.833      3.029
REMARK  Name = 
REMARK  6 active torsions:
REMARK  status: ('A' for Active; 'I' for Inactive)
REMARK    1  A    between atoms: C_5  and  C_6
REMARK    2  A    between atoms: C_5  and  C_7
REMARK    3  A    between atoms: C_12  and  O_13
REMARK    4  A    between atoms: C_12  and  C_14
REMARK    5  A    between atoms: C_14  and  N_15
REMARK    6  A    between atoms: C_18  and  C_19
REMARK                            x       y       z     vdW  Elec       q    Type
REMARK                         _______ _______ _______ _____ _____    ______ ____
ROOT
ATOM      1  C   UNL     1      -2.223  12.513  22.333  0.00  0.00    +0.000 C 
ATOM      2  O   UNL     1      -2.680  11.769  23.208  0.00  0.00    +0.000 OA
ATOM      3  N   UNL     1      -1.288  12.003  21.443  0.00  0.00    +0.000 N 
ATOM      4  C   UNL     1      -1.027  10.557  21.474  0.00  0.00    +0.000 C 
ATOM      5  C   UNL     1      -1.084   9.968  20.064  0.00  0.00    +0.000 C 
ATOM      6  C   UNL     1      -0.154  10.714  19.090  0.00  0.00    +0.000 C 
ATOM      7  C   UNL     1      -0.535  12.198  19.119  0.00  0.00    +0.000 C 
ATOM      8  C   UNL     1      -0.447  12.762  20.525  0.00  0.00    +0.000 C 
ENDROOT
BRANCH   1  13
ATOM      9  C   UNL     1      -1.928  16.391  25.570  0.00  0.00    +0.000 C 
ATOM     10  C   UNL     1      -2.010  15.368  24.706  0.00  0.00    +0.000 C 
ATOM     11  C   UNL     1      -3.135  14.373  24.735  0.00  0.00    +0.000 C 
ATOM     12  C   UNL     1      -3.787  14.227  23.354  0.00  0.00    +0.000 C 
ATOM     13  C   UNL     1      -2.771  13.966  22.193  0.00  0.00    +0.000 C 
ATOM     14  C   UNL     1      -3.584  14.043  20.882  0.00  0.00    +0.000 C 
ATOM     15  C   UNL     1      -1.708  15.092  22.264  0.00  0.00    +0.000 C 
ATOM     16  C   UNL     1      -1.001  15.155  23.615  0.00  0.00    +0.000 C 
ENDBRANCH   1  13
BRANCH   6  17
ATOM     17  O   UNL     1      -0.441  10.251  17.765  0.00  0.00    +0.000 OA
ATOM     18  H   UNL     1      -0.293   9.287  17.721  0.00  0.00    +0.000 HD
ENDBRANCH   6  17
BRANCH   6  19
ATOM     19  C   UNL     1       1.342  10.455  19.454  0.00  0.00    +0.000 C 
BRANCH  19  20
ATOM     20  N   UNL     1       1.744   9.061  19.310  0.00  0.00    +0.000 N 
ATOM     21  C   UNL     1       2.028   8.524  18.082  0.00  0.00    +0.000 A 
ATOM     22  N   UNL     1       2.238   7.274  17.839  0.00  0.00    +0.000 NA
ATOM     23  C   UNL     1       2.169   6.410  18.911  0.00  0.00    +0.000 A 
ATOM     24  C   UNL     1       2.034   6.837  20.175  0.00  0.00    +0.000 A 
ATOM     25  C   UNL     1       1.776   8.262  20.426  0.00  0.00    +0.000 A 
ATOM     26  O   UNL     1       1.598   8.664  21.576  0.00  0.00    +0.000 OA
BRANCH  23  27
ATOM     27  C   UNL     1       2.252   4.952  18.615  0.00  0.00    +0.000 A 
ATOM     28  C   UNL     1       3.138   4.479  17.630  0.00  0.00    +0.000 A 
ATOM     29  C   UNL     1       3.186   3.121  17.291  0.00  0.00    +0.000 A 
ATOM     30  C   UNL     1       2.349   2.208  17.929  0.00  0.00    +0.000 A 
ATOM     31  C   UNL     1       1.461   2.654  18.901  0.00  0.00    +0.000 A 
ATOM     32  C   UNL     1       1.410   4.008  19.226  0.00  0.00    +0.000 A 
ATOM     33  F   UNL     1       0.498   4.384  20.137  0.00  0.00    +0.000 F 
ENDBRANCH  23  27
ENDBRANCH  19  20
ENDBRANCH   6  19
TORSDOF 5
ENDMDL
