MODEL 1
REMARK VINA RESULT:      -6.8      0.000      0.000
REMARK  Name = 
REMARK  9 active torsions:
REMARK  status: ('A' for Active; 'I' for Inactive)
REMARK    1  A    between atoms: C_2  and  C_3
REMARK    2  A    between atoms: C_3  and  O_4
REMARK    3  A    between atoms: O_4  and  C_5
REMARK    4  A    between atoms: C_5  and  C_7
REMARK    5  A    between atoms: C_7  and  C_8
REMARK    6  A    between atoms: C_8  and  S_9
REMARK    7  A    between atoms: S_9  and  C_10
REMARK    8  A    between atoms: N_17  and  C_18
REMARK    9  A    between atoms: C_18  and  C_19
REMARK                            x       y       z     vdW  Elec       q    Type
REMARK                         _______ _______ _______ _____ _____    ______ ____
ROOT
ATOM      1  O   UNL     1       5.135   5.090  16.490  0.00  0.00    +0.000 OA
ENDROOT
BRANCH   1   2
ATOM      2  C   UNL     1       5.031   6.428  16.264  0.00  0.00    +0.000 C 
ATOM      3  O   UNL     1       5.112   6.958  15.164  0.00  0.00    +0.000 OA
BRANCH   2   4
ATOM      4  C   UNL     1       4.692   7.163  17.534  0.00  0.00    +0.000 C 
BRANCH   4   5
ATOM      5  C   UNL     1       3.254   6.922  17.963  0.00  0.00    +0.000 C 
BRANCH   5   6
ATOM      6  S   UNL     1       2.270   8.438  17.669  0.00  0.00    +0.000 S 
BRANCH   6   7
ATOM      7  C   UNL     1       1.551   8.774  19.270  0.00  0.00    +0.000 A 
ATOM      8  C   UNL     1       0.738   9.910  19.388  0.00  0.00    +0.000 A 
ATOM      9  C   UNL     1       0.104  10.220  20.596  0.00  0.00    +0.000 A 
ATOM     10  C   UNL     1       0.274   9.387  21.696  0.00  0.00    +0.000 A 
ATOM     11 CL   UNL     1      -0.510   9.757  23.181  0.00  0.00    +0.000 Cl
ATOM     12  C   UNL     1       1.067   8.247  21.593  0.00  0.00    +0.000 A 
ATOM     13  C   UNL     1       1.698   7.941  20.383  0.00  0.00    +0.000 A 
ENDBRANCH   6   7
ENDBRANCH   5   6
ENDBRANCH   4   5
ENDBRANCH   2   4
ENDBRANCH   1   2
BRANCH   1  14
ATOM     14  C   UNL     1       6.264   4.714  17.287  0.00  0.00    +0.000 C 
BRANCH  14  16
ATOM     15  O   UNL     1       6.197   4.808  19.710  0.00  0.00    +0.000 OA
ATOM     16  C   UNL     1       5.789   4.280  18.678  0.00  0.00    +0.000 C 
ATOM     17  N   UNL     1       4.893   3.235  18.679  0.00  0.00    +0.000 N 
ATOM     18  H   UNL     1       4.572   2.827  17.811  0.00  0.00    +0.000 HD
BRANCH  17  19
ATOM     19  C   UNL     1       4.349   2.694  19.907  0.00  0.00    +0.000 C 
BRANCH  19  20
ATOM     20  C   UNL     1       2.950   3.163  20.060  0.00  0.00    +0.000 A 
ATOM     21  C   UNL     1       2.378   4.253  20.684  0.00  0.00    +0.000 A 
ATOM     22  C   UNL     1       0.979   4.134  20.494  0.00  0.00    +0.000 A 
ATOM     23  C   UNL     1       0.788   2.981  19.770  0.00  0.00    +0.000 A 
ATOM     24  O   UNL     1       1.979   2.388  19.495  0.00  0.00    +0.000 OA
ENDBRANCH  19  20
ENDBRANCH  17  19
ENDBRANCH  14  16
ENDBRANCH   1  14
TORSDOF 9
ENDMDL
MODEL 2
REMARK VINA RESULT:      -6.5      1.403      1.794
REMARK  Name = 
REMARK  9 active torsions:
REMARK  status: ('A' for Active; 'I' for Inactive)
REMARK    1  A    between atoms: C_2  and  C_3
REMARK    2  A    between atoms: C_3  and  O_4
REMARK    3  A    between atoms: O_4  and  C_5
REMARK    4  A    between atoms: C_5  and  C_7
REMARK    5  A    between atoms: C_7  and  C_8
REMARK    6  A    between atoms: C_8  and  S_9
REMARK    7  A    between atoms: S_9  and  C_10
REMARK    8  A    between atoms: N_17  and  C_18
REMARK    9  A    between atoms: C_18  and  C_19
REMARK                            x       y       z     vdW  Elec       q    Type
REMARK                         _______ _______ _______ _____ _____    ______ ____
ROOT
ATOM      1  O   UNL     1       6.857   5.682  16.648  0.00  0.00    +0.000 OA
ENDROOT
BRANCH   1   2
ATOM      2  C   UNL     1       5.784   5.497  15.831  0.00  0.00    +0.000 C 
ATOM      3  O   UNL     1       5.551   4.471  15.207  0.00  0.00    +0.000 OA
BRANCH   2   4
ATOM      4  C   UNL     1       4.859   6.685  15.882  0.00  0.00    +0.000 C 
BRANCH   4   5
ATOM      5  C   UNL     1       4.667   7.194  17.301  0.00  0.00    +0.000 C 
BRANCH   5   6
ATOM      6  S   UNL     1       3.233   6.348  18.061  0.00  0.00    +0.000 S 
BRANCH   6   7
ATOM      7  C   UNL     1       2.277   7.696  18.742  0.00  0.00    +0.000 A 
ATOM      8  C   UNL     1       1.849   8.696  17.858  0.00  0.00    +0.000 A 
ATOM      9  C   UNL     1       1.061   9.763  18.304  0.00  0.00    +0.000 A 
ATOM     10  C   UNL     1       0.688   9.832  19.642  0.00  0.00    +0.000 A 
ATOM     11 CL   UNL     1      -0.287  11.135  20.195  0.00  0.00    +0.000 Cl
ATOM     12  C   UNL     1       1.094   8.839  20.531  0.00  0.00    +0.000 A 
ATOM     13  C   UNL     1       1.880   7.774  20.080  0.00  0.00    +0.000 A 
ENDBRANCH   6   7
ENDBRANCH   5   6
ENDBRANCH   4   5
ENDBRANCH   2   4
ENDBRANCH   1   2
BRANCH   1  14
ATOM     14  C   UNL     1       7.243   4.517  17.387  0.00  0.00    +0.000 C 
BRANCH  14  16
ATOM     15  O   UNL     1       6.626   5.201  19.631  0.00  0.00    +0.000 OA
ATOM     16  C   UNL     1       6.432   4.440  18.685  0.00  0.00    +0.000 C 
ATOM     17  N   UNL     1       5.491   3.436  18.715  0.00  0.00    +0.000 N 
ATOM     18  H   UNL     1       5.352   2.833  17.917  0.00  0.00    +0.000 HD
BRANCH  17  19
ATOM     19  C   UNL     1       4.642   3.217  19.869  0.00  0.00    +0.000 C 
BRANCH  19  20
ATOM     20  C   UNL     1       3.255   2.976  19.405  0.00  0.00    +0.000 A 
ATOM     21  C   UNL     1       2.720   2.452  18.246  0.00  0.00    +0.000 A 
ATOM     22  C   UNL     1       1.312   2.502  18.396  0.00  0.00    +0.000 A 
ATOM     23  C   UNL     1       1.079   3.055  19.633  0.00  0.00    +0.000 A 
ATOM     24  O   UNL     1       2.252   3.339  20.257  0.00  0.00    +0.000 OA
ENDBRANCH  19  20
ENDBRANCH  17  19
ENDBRANCH  14  16
ENDBRANCH   1  14
TORSDOF 9
ENDMDL
MODEL 3
REMARK VINA RESULT:      -6.4      3.680      6.734
REMARK  Name = 
REMARK  9 active torsions:
REMARK  status: ('A' for Active; 'I' for Inactive)
REMARK    1  A    between atoms: C_2  and  C_3
REMARK    2  A    between atoms: C_3  and  O_4
REMARK    3  A    between atoms: O_4  and  C_5
REMARK    4  A    between atoms: C_5  and  C_7
REMARK    5  A    between atoms: C_7  and  C_8
REMARK    6  A    between atoms: C_8  and  S_9
REMARK    7  A    between atoms: S_9  and  C_10
REMARK    8  A    between atoms: N_17  and  C_18
REMARK    9  A    between atoms: C_18  and  C_19
REMARK                            x       y       z     vdW  Elec       q    Type
REMARK                         _______ _______ _______ _____ _____    ______ ____
ROOT
ATOM      1  O   UNL     1       2.083   5.896  18.516  0.00  0.00    +0.000 OA
ENDROOT
BRANCH   1   2
ATOM      2  C   UNL     1       1.939   5.228  19.694  0.00  0.00    +0.000 C 
ATOM      3  O   UNL     1       1.777   5.761  20.783  0.00  0.00    +0.000 OA
BRANCH   2   4
ATOM      4  C   UNL     1       1.895   3.739  19.466  0.00  0.00    +0.000 C 
BRANCH   4   5
ATOM      5  C   UNL     1       2.074   3.385  17.999  0.00  0.00    +0.000 C 
BRANCH   5   6
ATOM      6  S   UNL     1       3.725   2.632  17.753  0.00  0.00    +0.000 S 
BRANCH   6   7
ATOM      7  C   UNL     1       4.803   4.050  17.607  0.00  0.00    +0.000 A 
ATOM      8  C   UNL     1       5.528   4.431  18.744  0.00  0.00    +0.000 A 
ATOM      9  C   UNL     1       6.424   5.504  18.701  0.00  0.00    +0.000 A 
ATOM     10  C   UNL     1       6.608   6.201  17.512  0.00  0.00    +0.000 A 
ATOM     11 CL   UNL     1       7.715   7.515  17.450  0.00  0.00    +0.000 Cl
ATOM     12  C   UNL     1       5.906   5.827  16.368  0.00  0.00    +0.000 A 
ATOM     13  C   UNL     1       5.011   4.753  16.416  0.00  0.00    +0.000 A 
ENDBRANCH   6   7
ENDBRANCH   5   6
ENDBRANCH   4   5
ENDBRANCH   2   4
ENDBRANCH   1   2
BRANCH   1  14
ATOM     14  C   UNL     1       2.949   7.034  18.587  0.00  0.00    +0.000 C 
BRANCH  14  16
ATOM     15  O   UNL     1       2.046   8.937  17.384  0.00  0.00    +0.000 OA
ATOM     16  C   UNL     1       2.124   8.317  18.442  0.00  0.00    +0.000 C 
ATOM     17  N   UNL     1       1.499   8.732  19.597  0.00  0.00    +0.000 N 
ATOM     18  H   UNL     1       1.577   8.194  20.449  0.00  0.00    +0.000 HD
BRANCH  17  19
ATOM     19  C   UNL     1       0.685   9.930  19.639  0.00  0.00    +0.000 C 
BRANCH  19  20
ATOM     20  C   UNL     1       0.126  10.081  21.004  0.00  0.00    +0.000 A 
ATOM     21  C   UNL     1      -0.666  11.040  21.604  0.00  0.00    +0.000 A 
ATOM     22  C   UNL     1      -0.846  10.627  22.947  0.00  0.00    +0.000 A 
ATOM     23  C   UNL     1      -0.153   9.448  23.081  0.00  0.00    +0.000 A 
ATOM     24  O   UNL     1       0.435   9.103  21.905  0.00  0.00    +0.000 OA
ENDBRANCH  19  20
ENDBRANCH  17  19
ENDBRANCH  14  16
ENDBRANCH   1  14
TORSDOF 9
ENDMDL
MODEL 4
REMARK VINA RESULT:      -6.4      1.283      1.720
REMARK  Name = 
REMARK  9 active torsions:
REMARK  status: ('A' for Active; 'I' for Inactive)
REMARK    1  A    between atoms: C_2  and  C_3
REMARK    2  A    between atoms: C_3  and  O_4
REMARK    3  A    between atoms: O_4  and  C_5
REMARK    4  A    between atoms: C_5  and  C_7
REMARK    5  A    between atoms: C_7  and  C_8
REMARK    6  A    between atoms: C_8  and  S_9
REMARK    7  A    between atoms: S_9  and  C_10
REMARK    8  A    between atoms: N_17  and  C_18
REMARK    9  A    between atoms: C_18  and  C_19
REMARK                            x       y       z     vdW  Elec       q    Type
REMARK                         _______ _______ _______ _____ _____    ______ ____
ROOT
ATOM      1  O   UNL     1       6.438   5.468  17.794  0.00  0.00    +0.000 OA
ENDROOT
BRANCH   1   2
ATOM      2  C   UNL     1       6.345   6.620  17.074  0.00  0.00    +0.000 C 
ATOM      3  O   UNL     1       7.280   7.371  16.835  0.00  0.00    +0.000 OA
BRANCH   2   4
ATOM      4  C   UNL     1       4.956   6.795  16.517  0.00  0.00    +0.000 C 
BRANCH   4   5
ATOM      5  C   UNL     1       4.098   7.686  17.400  0.00  0.00    +0.000 C 
BRANCH   5   6
ATOM      6  S   UNL     1       2.831   6.668  18.243  0.00  0.00    +0.000 S 
BRANCH   6   7
ATOM      7  C   UNL     1       1.945   7.859  19.237  0.00  0.00    +0.000 A 
ATOM      8  C   UNL     1       1.788   7.574  20.600  0.00  0.00    +0.000 A 
ATOM      9  C   UNL     1       1.143   8.475  21.455  0.00  0.00    +0.000 A 
ATOM     10  C   UNL     1       0.656   9.676  20.949  0.00  0.00    +0.000 A 
ATOM     11 CL   UNL     1      -0.129  10.791  21.996  0.00  0.00    +0.000 Cl
ATOM     12  C   UNL     1       0.816   9.981  19.600  0.00  0.00    +0.000 A 
ATOM     13  C   UNL     1       1.463   9.078  18.750  0.00  0.00    +0.000 A 
ENDBRANCH   6   7
ENDBRANCH   5   6
ENDBRANCH   4   5
ENDBRANCH   2   4
ENDBRANCH   1   2
BRANCH   1  14
ATOM     14  C   UNL     1       5.788   4.344  17.191  0.00  0.00    +0.000 C 
BRANCH  14  16
ATOM     15  O   UNL     1       5.398   3.594  19.465  0.00  0.00    +0.000 OA
ATOM     16  C   UNL     1       5.104   3.504  18.275  0.00  0.00    +0.000 C 
ATOM     17  N   UNL     1       4.156   2.624  17.805  0.00  0.00    +0.000 N 
ATOM     18  H   UNL     1       3.932   2.579  16.821  0.00  0.00    +0.000 HD
BRANCH  17  19
ATOM     19  C   UNL     1       3.418   1.748  18.693  0.00  0.00    +0.000 C 
BRANCH  19  20
ATOM     20  C   UNL     1       2.448   2.558  19.469  0.00  0.00    +0.000 A 
ATOM     21  C   UNL     1       1.393   3.373  19.113  0.00  0.00    +0.000 A 
ATOM     22  C   UNL     1       0.859   3.888  20.320  0.00  0.00    +0.000 A 
ATOM     23  C   UNL     1       1.623   3.357  21.333  0.00  0.00    +0.000 A 
ATOM     24  O   UNL     1       2.586   2.542  20.828  0.00  0.00    +0.000 OA
ENDBRANCH  19  20
ENDBRANCH  17  19
ENDBRANCH  14  16
ENDBRANCH   1  14
TORSDOF 9
ENDMDL
MODEL 5
REMARK VINA RESULT:      -6.3      1.768      4.570
REMARK  Name = 
REMARK  9 active torsions:
REMARK  status: ('A' for Active; 'I' for Inactive)
REMARK    1  A    between atoms: C_2  and  C_3
REMARK    2  A    between atoms: C_3  and  O_4
REMARK    3  A    between atoms: O_4  and  C_5
REMARK    4  A    between atoms: C_5  and  C_7
REMARK    5  A    between atoms: C_7  and  C_8
REMARK    6  A    between atoms: C_8  and  S_9
REMARK    7  A    between atoms: S_9  and  C_10
REMARK    8  A    between atoms: N_17  and  C_18
REMARK    9  A    between atoms: C_18  and  C_19
REMARK                            x       y       z     vdW  Elec       q    Type
REMARK                         _______ _______ _______ _____ _____    ______ ____
ROOT
ATOM      1  O   UNL     1       2.607   2.911  19.713  0.00  0.00    +0.000 OA
ENDROOT
BRANCH   1   2
ATOM      2  C   UNL     1       1.622   3.656  19.140  0.00  0.00    +0.000 C 
ATOM      3  O   UNL     1       1.123   3.429  18.046  0.00  0.00    +0.000 OA
BRANCH   2   4
ATOM      4  C   UNL     1       1.147   4.734  20.080  0.00  0.00    +0.000 C 
BRANCH   4   5
ATOM      5  C   UNL     1       2.284   5.639  20.525  0.00  0.00    +0.000 C 
BRANCH   5   6
ATOM      6  S   UNL     1       2.457   7.024  19.340  0.00  0.00    +0.000 S 
BRANCH   6   7
ATOM      7  C   UNL     1       1.479   8.322  20.083  0.00  0.00    +0.000 A 
ATOM      8  C   UNL     1       1.219   8.230  21.457  0.00  0.00    +0.000 A 
ATOM      9  C   UNL     1       0.497   9.227  22.122  0.00  0.00    +0.000 A 
ATOM     10  C   UNL     1       0.034  10.331  21.414  0.00  0.00    +0.000 A 
ATOM     11 CL   UNL     1      -0.846  11.564  22.227  0.00  0.00    +0.000 Cl
ATOM     12  C   UNL     1       0.295  10.445  20.050  0.00  0.00    +0.000 A 
ATOM     13  C   UNL     1       1.018   9.446  19.390  0.00  0.00    +0.000 A 
ENDBRANCH   6   7
ENDBRANCH   5   6
ENDBRANCH   4   5
ENDBRANCH   2   4
ENDBRANCH   1   2
BRANCH   1  14
ATOM     14  C   UNL     1       3.601   2.444  18.795  0.00  0.00    +0.000 C 
BRANCH  14  16
ATOM     15  O   UNL     1       5.508   3.893  19.182  0.00  0.00    +0.000 OA
ATOM     16  C   UNL     1       4.565   3.586  18.456  0.00  0.00    +0.000 C 
ATOM     17  N   UNL     1       4.275   4.255  17.288  0.00  0.00    +0.000 N 
ATOM     18  H   UNL     1       3.497   3.972  16.709  0.00  0.00    +0.000 HD
BRANCH  17  19
ATOM     19  C   UNL     1       5.080   5.366  16.822  0.00  0.00    +0.000 C 
BRANCH  19  20
ATOM     20  C   UNL     1       5.750   4.975  15.558  0.00  0.00    +0.000 A 
ATOM     21  C   UNL     1       5.407   4.126  14.525  0.00  0.00    +0.000 A 
ATOM     22  C   UNL     1       6.482   4.163  13.603  0.00  0.00    +0.000 A 
ATOM     23  C   UNL     1       7.410   5.028  14.132  0.00  0.00    +0.000 A 
ATOM     24  O   UNL     1       6.972   5.533  15.315  0.00  0.00    +0.000 OA
ENDBRANCH  19  20
ENDBRANCH  17  19
ENDBRANCH  14  16
ENDBRANCH   1  14
TORSDOF 9
ENDMDL
MODEL 6
REMARK VINA RESULT:      -6.2      1.105      1.345
REMARK  Name = 
REMARK  9 active torsions:
REMARK  status: ('A' for Active; 'I' for Inactive)
REMARK    1  A    between atoms: C_2  and  C_3
REMARK    2  A    between atoms: C_3  and  O_4
REMARK    3  A    between atoms: O_4  and  C_5
REMARK    4  A    between atoms: C_5  and  C_7
REMARK    5  A    between atoms: C_7  and  C_8
REMARK    6  A    between atoms: C_8  and  S_9
REMARK    7  A    between atoms: S_9  and  C_10
REMARK    8  A    between atoms: N_17  and  C_18
REMARK    9  A    between atoms: C_18  and  C_19
REMARK                            x       y       z     vdW  Elec       q    Type
REMARK                         _______ _______ _______ _____ _____    ______ ____
ROOT
ATOM      1  O   UNL     1       5.435   6.294  18.235  0.00  0.00    +0.000 OA
ENDROOT
BRANCH   1   2
ATOM      2  C   UNL     1       4.779   6.647  17.096  0.00  0.00    +0.000 C 
ATOM      3  O   UNL     1       5.315   6.854  16.016  0.00  0.00    +0.000 OA
BRANCH   2   4
ATOM      4  C   UNL     1       3.287   6.642  17.312  0.00  0.00    +0.000 C 
BRANCH   4   5
ATOM      5  C   UNL     1       2.895   7.398  18.571  0.00  0.00    +0.000 C 
BRANCH   5   6
ATOM      6  S   UNL     1       1.948   8.896  18.110  0.00  0.00    +0.000 S 
BRANCH   6   7
ATOM      7  C   UNL     1       1.125   9.344  19.632  0.00  0.00    +0.000 A 
ATOM      8  C   UNL     1       0.260  10.446  19.599  0.00  0.00    +0.000 A 
ATOM      9  C   UNL     1      -0.454  10.835  20.738  0.00  0.00    +0.000 A 
ATOM     10  C   UNL     1      -0.312  10.115  21.920  0.00  0.00    +0.000 A 
ATOM     11 CL   UNL     1      -1.193  10.583  23.320  0.00  0.00    +0.000 Cl
ATOM     12  C   UNL     1       0.533   9.009  21.966  0.00  0.00    +0.000 A 
ATOM     13  C   UNL     1       1.244   8.623  20.825  0.00  0.00    +0.000 A 
ENDBRANCH   6   7
ENDBRANCH   5   6
ENDBRANCH   4   5
ENDBRANCH   2   4
ENDBRANCH   1   2
BRANCH   1  14
ATOM     14  C   UNL     1       6.230   5.109  18.113  0.00  0.00    +0.000 C 
BRANCH  14  16
ATOM     15  O   UNL     1       4.771   3.429  17.148  0.00  0.00    +0.000 OA
ATOM     16  C   UNL     1       5.323   3.876  18.152  0.00  0.00    +0.000 C 
ATOM     17  N   UNL     1       5.154   3.326  19.402  0.00  0.00    +0.000 N 
ATOM     18  H   UNL     1       5.628   3.713  20.206  0.00  0.00    +0.000 HD
BRANCH  17  19
ATOM     19  C   UNL     1       4.322   2.160  19.620  0.00  0.00    +0.000 C 
BRANCH  19  20
ATOM     20  C   UNL     1       2.994   2.603  20.111  0.00  0.00    +0.000 A 
ATOM     21  C   UNL     1       1.845   3.033  19.480  0.00  0.00    +0.000 A 
ATOM     22  C   UNL     1       0.914   3.335  20.504  0.00  0.00    +0.000 A 
ATOM     23  C   UNL     1       1.555   3.073  21.692  0.00  0.00    +0.000 A 
ATOM     24  O   UNL     1       2.816   2.621  21.464  0.00  0.00    +0.000 OA
ENDBRANCH  19  20
ENDBRANCH  17  19
ENDBRANCH  14  16
ENDBRANCH   1  14
TORSDOF 9
ENDMDL
MODEL 7
REMARK VINA RESULT:      -6.2      1.780      4.488
REMARK  Name = 
REMARK  9 active torsions:
REMARK  status: ('A' for Active; 'I' for Inactive)
REMARK    1  A    between atoms: C_2  and  C_3
REMARK    2  A    between atoms: C_3  and  O_4
REMARK    3  A    between atoms: O_4  and  C_5
REMARK    4  A    between atoms: C_5  and  C_7
REMARK    5  A    between atoms: C_7  and  C_8
REMARK    6  A    between atoms: C_8  and  S_9
REMARK    7  A    between atoms: S_9  and  C_10
REMARK    8  A    between atoms: N_17  and  C_18
REMARK    9  A    between atoms: C_18  and  C_19
REMARK                            x       y       z     vdW  Elec       q    Type
REMARK                         _______ _______ _______ _____ _____    ______ ____
ROOT
ATOM      1  O   UNL     1       2.165   3.252  18.431  0.00  0.00    +0.000 OA
ENDROOT
BRANCH   1   2
ATOM      2  C   UNL     1       1.989   3.196  19.780  0.00  0.00    +0.000 C 
ATOM      3  O   UNL     1       1.427   2.286  20.374  0.00  0.00    +0.000 OA
BRANCH   2   4
ATOM      4  C   UNL     1       2.675   4.353  20.460  0.00  0.00    +0.000 C 
BRANCH   4   5
ATOM      5  C   UNL     1       1.762   5.562  20.581  0.00  0.00    +0.000 C 
BRANCH   5   6
ATOM      6  S   UNL     1       2.468   6.954  19.626  0.00  0.00    +0.000 S 
BRANCH   6   7
ATOM      7  C   UNL     1       1.535   8.363  20.208  0.00  0.00    +0.000 A 
ATOM      8  C   UNL     1       1.343   8.486  21.591  0.00  0.00    +0.000 A 
ATOM      9  C   UNL     1       0.660   9.581  22.129  0.00  0.00    +0.000 A 
ATOM     10  C   UNL     1       0.169  10.571  21.283  0.00  0.00    +0.000 A 
ATOM     11 CL   UNL     1      -0.663  11.925  21.939  0.00  0.00    +0.000 Cl
ATOM     12  C   UNL     1       0.363  10.472  19.908  0.00  0.00    +0.000 A 
ATOM     13  C   UNL     1       1.048   9.375  19.374  0.00  0.00    +0.000 A 
ENDBRANCH   6   7
ENDBRANCH   5   6
ENDBRANCH   4   5
ENDBRANCH   2   4
ENDBRANCH   1   2
BRANCH   1  14
ATOM     14  C   UNL     1       3.420   2.732  17.979  0.00  0.00    +0.000 C 
BRANCH  14  16
ATOM     15  O   UNL     1       3.700   4.913  16.956  0.00  0.00    +0.000 OA
ATOM     16  C   UNL     1       4.204   3.834  17.261  0.00  0.00    +0.000 C 
ATOM     17  N   UNL     1       5.508   3.509  16.961  0.00  0.00    +0.000 N 
ATOM     18  H   UNL     1       5.894   2.615  17.232  0.00  0.00    +0.000 HD
BRANCH  17  19
ATOM     19  C   UNL     1       6.389   4.432  16.275  0.00  0.00    +0.000 C 
BRANCH  19  20
ATOM     20  C   UNL     1       7.061   5.290  17.281  0.00  0.00    +0.000 A 
ATOM     21  C   UNL     1       7.392   6.630  17.316  0.00  0.00    +0.000 A 
ATOM     22  C   UNL     1       8.046   6.849  18.553  0.00  0.00    +0.000 A 
ATOM     23  C   UNL     1       8.073   5.631  19.192  0.00  0.00    +0.000 A 
ATOM     24  O   UNL     1       7.471   4.680  18.431  0.00  0.00    +0.000 OA
ENDBRANCH  19  20
ENDBRANCH  17  19
ENDBRANCH  14  16
ENDBRANCH   1  14
TORSDOF 9
ENDMDL
MODEL 8
REMARK VINA RESULT:      -6.2      0.719      1.233
REMARK  Name = 
REMARK  9 active torsions:
REMARK  status: ('A' for Active; 'I' for Inactive)
REMARK    1  A    between atoms: C_2  and  C_3
REMARK    2  A    between atoms: C_3  and  O_4
REMARK    3  A    between atoms: O_4  and  C_5
REMARK    4  A    between atoms: C_5  and  C_7
REMARK    5  A    between atoms: C_7  and  C_8
REMARK    6  A    between atoms: C_8  and  S_9
REMARK    7  A    between atoms: S_9  and  C_10
REMARK    8  A    between atoms: N_17  and  C_18
REMARK    9  A    between atoms: C_18  and  C_19
REMARK                            x       y       z     vdW  Elec       q    Type
REMARK                         _______ _______ _______ _____ _____    ______ ____
ROOT
ATOM      1  O   UNL     1       5.754   5.122  16.768  0.00  0.00    +0.000 OA
ENDROOT
BRANCH   1   2
ATOM      2  C   UNL     1       5.480   6.454  16.849  0.00  0.00    +0.000 C 
ATOM      3  O   UNL     1       6.323   7.339  16.876  0.00  0.00    +0.000 OA
BRANCH   2   4
ATOM      4  C   UNL     1       3.995   6.701  16.790  0.00  0.00    +0.000 C 
BRANCH   4   5
ATOM      5  C   UNL     1       3.465   7.284  18.090  0.00  0.00    +0.000 C 
BRANCH   5   6
ATOM      6  S   UNL     1       2.368   8.702  17.717  0.00  0.00    +0.000 S 
BRANCH   6   7
ATOM      7  C   UNL     1       1.521   8.981  19.265  0.00  0.00    +0.000 A 
ATOM      8  C   UNL     1       1.714   8.042  20.287  0.00  0.00    +0.000 A 
ATOM      9  C   UNL     1       1.120   8.210  21.542  0.00  0.00    +0.000 A 
ATOM     10  C   UNL     1       0.330   9.328  21.786  0.00  0.00    +0.000 A 
ATOM     11 CL   UNL     1      -0.396   9.545  23.330  0.00  0.00    +0.000 Cl
ATOM     12  C   UNL     1       0.138  10.279  20.786  0.00  0.00    +0.000 A 
ATOM     13  C   UNL     1       0.736  10.107  19.534  0.00  0.00    +0.000 A 
ENDBRANCH   6   7
ENDBRANCH   5   6
ENDBRANCH   4   5
ENDBRANCH   2   4
ENDBRANCH   1   2
BRANCH   1  14
ATOM     14  C   UNL     1       6.584   4.627  17.824  0.00  0.00    +0.000 C 
BRANCH  14  16
ATOM     15  O   UNL     1       5.512   5.084  19.951  0.00  0.00    +0.000 OA
ATOM     16  C   UNL     1       5.718   4.284  19.040  0.00  0.00    +0.000 C 
ATOM     17  N   UNL     1       5.212   3.004  19.043  0.00  0.00    +0.000 N 
ATOM     18  H   UNL     1       5.394   2.374  18.275  0.00  0.00    +0.000 HD
BRANCH  17  19
ATOM     19  C   UNL     1       4.380   2.512  20.122  0.00  0.00    +0.000 C 
BRANCH  19  20
ATOM     20  C   UNL     1       3.064   3.194  20.062  0.00  0.00    +0.000 A 
ATOM     21  C   UNL     1       2.298   3.861  20.997  0.00  0.00    +0.000 A 
ATOM     22  C   UNL     1       1.121   4.276  20.328  0.00  0.00    +0.000 A 
ATOM     23  C   UNL     1       1.243   3.834  19.031  0.00  0.00    +0.000 A 
ATOM     24  O   UNL     1       2.422   3.183  18.858  0.00  0.00    +0.000 OA
ENDBRANCH  19  20
ENDBRANCH  17  19
ENDBRANCH  14  16
ENDBRANCH   1  14
TORSDOF 9
ENDMDL
MODEL 9
REMARK VINA RESULT:      -6.2      2.195      4.919
REMARK  Name = 
REMARK  9 active torsions:
REMARK  status: ('A' for Active; 'I' for Inactive)
REMARK    1  A    between atoms: C_2  and  C_3
REMARK    2  A    between atoms: C_3  and  O_4
REMARK    3  A    between atoms: O_4  and  C_5
REMARK    4  A    between atoms: C_5  and  C_7
REMARK    5  A    between atoms: C_7  and  C_8
REMARK    6  A    between atoms: C_8  and  S_9
REMARK    7  A    between atoms: S_9  and  C_10
REMARK    8  A    between atoms: N_17  and  C_18
REMARK    9  A    between atoms: C_18  and  C_19
REMARK                            x       y       z     vdW  Elec       q    Type
REMARK                         _______ _______ _______ _____ _____    ______ ____
ROOT
ATOM      1  O   UNL     1       2.815   1.936  18.418  0.00  0.00    +0.000 OA
ENDROOT
BRANCH   1   2
ATOM      2  C   UNL     1       2.754   2.266  19.738  0.00  0.00    +0.000 C 
ATOM      3  O   UNL     1       3.709   2.267  20.502  0.00  0.00    +0.000 OA
BRANCH   2   4
ATOM      4  C   UNL     1       1.372   2.737  20.110  0.00  0.00    +0.000 C 
BRANCH   4   5
ATOM      5  C   UNL     1       1.157   4.200  19.758  0.00  0.00    +0.000 C 
BRANCH   5   6
ATOM      6  S   UNL     1       2.420   5.220  20.602  0.00  0.00    +0.000 S 
BRANCH   6   7
ATOM      7  C   UNL     1       2.010   6.883  20.093  0.00  0.00    +0.000 A 
ATOM      8  C   UNL     1       2.389   7.277  18.803  0.00  0.00    +0.000 A 
ATOM      9  C   UNL     1       2.068   8.548  18.314  0.00  0.00    +0.000 A 
ATOM     10  C   UNL     1       1.354   9.434  19.114  0.00  0.00    +0.000 A 
ATOM     11 CL   UNL     1       0.948  10.994  18.516  0.00  0.00    +0.000 Cl
ATOM     12  C   UNL     1       0.957   9.054  20.394  0.00  0.00    +0.000 A 
ATOM     13  C   UNL     1       1.280   7.782  20.878  0.00  0.00    +0.000 A 
ENDBRANCH   6   7
ENDBRANCH   5   6
ENDBRANCH   4   5
ENDBRANCH   2   4
ENDBRANCH   1   2
BRANCH   1  14
ATOM     14  C   UNL     1       4.104   2.121  17.824  0.00  0.00    +0.000 C 
BRANCH  14  16
ATOM     15  O   UNL     1       3.169   4.143  16.865  0.00  0.00    +0.000 OA
ATOM     16  C   UNL     1       4.174   3.503  17.167  0.00  0.00    +0.000 C 
ATOM     17  N   UNL     1       5.449   3.958  16.919  0.00  0.00    +0.000 N 
ATOM     18  H   UNL     1       6.255   3.410  17.187  0.00  0.00    +0.000 HD
BRANCH  17  19
ATOM     19  C   UNL     1       5.697   5.242  16.296  0.00  0.00    +0.000 C 
BRANCH  19  20
ATOM     20  C   UNL     1       6.645   6.010  17.139  0.00  0.00    +0.000 A 
ATOM     21  C   UNL     1       7.300   5.734  18.323  0.00  0.00    +0.000 A 
ATOM     22  C   UNL     1       8.059   6.887  18.638  0.00  0.00    +0.000 A 
ATOM     23  C   UNL     1       7.818   7.791  17.631  0.00  0.00    +0.000 A 
ATOM     24  O   UNL     1       6.966   7.266  16.712  0.00  0.00    +0.000 OA
ENDBRANCH  19  20
ENDBRANCH  17  19
ENDBRANCH  14  16
ENDBRANCH   1  14
TORSDOF 9
ENDMDL
