MODEL 1
REMARK VINA RESULT:      -7.8      0.000      0.000
REMARK  Name = 
REMARK  6 active torsions:
REMARK  status: ('A' for Active; 'I' for Inactive)
REMARK    1  A    between atoms: C_1  and  C_2
REMARK    2  A    between atoms: C_2  and  C_3
REMARK    3  A    between atoms: C_3  and  N_4
REMARK    4  A    between atoms: N_12  and  C_13
REMARK    5  A    between atoms: C_13  and  C_14
REMARK    6  A    between atoms: C_14  and  C_15
REMARK                            x       y       z     vdW  Elec       q    Type
REMARK                         _______ _______ _______ _____ _____    ______ ____
ROOT
ATOM      1  N   UNL     1       6.026   4.326  15.271  0.00  0.00    +0.000 N 
ATOM      2  C   UNL     1       7.171   5.071  15.306  0.00  0.00    +0.000 A 
ATOM      3  N   UNL     1       7.526   5.362  16.539  0.00  0.00    +0.000 NA
ATOM      4  C   UNL     1       6.571   4.756  17.333  0.00  0.00    +0.000 A 
ATOM      5  C   UNL     1       6.380   4.711  18.717  0.00  0.00    +0.000 A 
ATOM      6  N   UNL     1       7.199   5.376  19.607  0.00  0.00    +0.000 N 
ATOM      7  N   UNL     1       5.339   3.994  19.203  0.00  0.00    +0.000 NA
ATOM      8  C   UNL     1       4.519   3.341  18.351  0.00  0.00    +0.000 A 
ATOM      9  N   UNL     1       3.515   2.527  18.860  0.00  0.00    +0.000 N 
ATOM     10  N   UNL     1       4.599   3.361  17.005  0.00  0.00    +0.000 NA
ATOM     11  C   UNL     1       5.641   4.081  16.560  0.00  0.00    +0.000 A 
ATOM     12  H   UNL     1       8.061   5.770  19.251  0.00  0.00    +0.000 HD
ATOM     13  H   UNL     1       7.078   5.173  20.588  0.00  0.00    +0.000 HD
ATOM     14  H   UNL     1       2.887   2.314  18.097  0.00  0.00    +0.000 HD
ENDROOT
BRANCH   1  15
ATOM     15  C   UNL     1       5.347   3.883  14.067  0.00  0.00    +0.000 C 
BRANCH  15  17
ATOM     16  C   UNL     1       5.657   2.818  11.772  0.00  0.00    +0.000 C 
ATOM     17  C   UNL     1       6.266   3.694  12.858  0.00  0.00    +0.000 C 
ENDBRANCH  15  17
ENDBRANCH   1  15
BRANCH   9  18
ATOM     18  C   UNL     1       2.900   2.965  20.108  0.00  0.00    +0.000 C 
BRANCH  18  19
ATOM     19  C   UNL     1       1.602   3.726  19.795  0.00  0.00    +0.000 C 
BRANCH  19  20
ATOM     20  C   UNL     1       1.824   5.204  19.578  0.00  0.00    +0.000 A 
ATOM     21  C   UNL     1       1.702   6.110  20.645  0.00  0.00    +0.000 A 
ATOM     22  C   UNL     1       1.893   7.480  20.427  0.00  0.00    +0.000 A 
ATOM     23  C   UNL     1       2.199   7.951  19.151  0.00  0.00    +0.000 A 
ATOM     24  C   UNL     1       2.322   7.058  18.090  0.00  0.00    +0.000 A 
ATOM     25  C   UNL     1       2.134   5.690  18.302  0.00  0.00    +0.000 A 
ENDBRANCH  19  20
ENDBRANCH  18  19
ENDBRANCH   9  18
TORSDOF 5
ENDMDL
MODEL 2
REMARK VINA RESULT:      -7.6      0.673      1.229
REMARK  Name = 
REMARK  6 active torsions:
REMARK  status: ('A' for Active; 'I' for Inactive)
REMARK    1  A    between atoms: C_1  and  C_2
REMARK    2  A    between atoms: C_2  and  C_3
REMARK    3  A    between atoms: C_3  and  N_4
REMARK    4  A    between atoms: N_12  and  C_13
REMARK    5  A    between atoms: C_13  and  C_14
REMARK    6  A    between atoms: C_14  and  C_15
REMARK                            x       y       z     vdW  Elec       q    Type
REMARK                         _______ _______ _______ _____ _____    ______ ____
ROOT
ATOM      1  N   UNL     1       6.013   4.284  14.522  0.00  0.00    +0.000 N 
ATOM      2  C   UNL     1       7.083   5.132  14.447  0.00  0.00    +0.000 A 
ATOM      3  N   UNL     1       7.500   5.497  15.641  0.00  0.00    +0.000 NA
ATOM      4  C   UNL     1       6.668   4.832  16.523  0.00  0.00    +0.000 A 
ATOM      5  C   UNL     1       6.587   4.816  17.918  0.00  0.00    +0.000 A 
ATOM      6  N   UNL     1       7.404   5.584  18.724  0.00  0.00    +0.000 N 
ATOM      7  N   UNL     1       5.658   4.023  18.503  0.00  0.00    +0.000 NA
ATOM      8  C   UNL     1       4.843   3.269  17.734  0.00  0.00    +0.000 A 
ATOM      9  N   UNL     1       3.961   2.383  18.342  0.00  0.00    +0.000 N 
ATOM     10  N   UNL     1       4.818   3.250  16.387  0.00  0.00    +0.000 NA
ATOM     11  C   UNL     1       5.751   4.048  15.842  0.00  0.00    +0.000 A 
ATOM     12  H   UNL     1       8.195   6.044  18.291  0.00  0.00    +0.000 HD
ATOM     13  H   UNL     1       7.376   5.404  19.717  0.00  0.00    +0.000 HD
ATOM     14  H   UNL     1       3.300   2.087  17.636  0.00  0.00    +0.000 HD
ENDROOT
BRANCH   1  15
ATOM     15  C   UNL     1       5.292   3.740  13.386  0.00  0.00    +0.000 C 
BRANCH  15  17
ATOM     16  C   UNL     1       5.582   2.107  11.450  0.00  0.00    +0.000 C 
ATOM     17  C   UNL     1       6.186   3.259  12.241  0.00  0.00    +0.000 C 
ENDBRANCH  15  17
ENDBRANCH   1  15
BRANCH   9  18
ATOM     18  C   UNL     1       3.403   2.804  19.622  0.00  0.00    +0.000 C 
BRANCH  18  19
ATOM     19  C   UNL     1       2.026   3.446  19.389  0.00  0.00    +0.000 C 
BRANCH  19  20
ATOM     20  C   UNL     1       2.075   4.956  19.369  0.00  0.00    +0.000 A 
ATOM     21  C   UNL     1       2.437   5.644  18.200  0.00  0.00    +0.000 A 
ATOM     22  C   UNL     1       2.495   7.043  18.199  0.00  0.00    +0.000 A 
ATOM     23  C   UNL     1       2.199   7.758  19.360  0.00  0.00    +0.000 A 
ATOM     24  C   UNL     1       1.838   7.081  20.521  0.00  0.00    +0.000 A 
ATOM     25  C   UNL     1       1.777   5.685  20.527  0.00  0.00    +0.000 A 
ENDBRANCH  19  20
ENDBRANCH  18  19
ENDBRANCH   9  18
TORSDOF 5
ENDMDL
MODEL 3
REMARK VINA RESULT:      -7.6      1.387      2.098
REMARK  Name = 
REMARK  6 active torsions:
REMARK  status: ('A' for Active; 'I' for Inactive)
REMARK    1  A    between atoms: C_1  and  C_2
REMARK    2  A    between atoms: C_2  and  C_3
REMARK    3  A    between atoms: C_3  and  N_4
REMARK    4  A    between atoms: N_12  and  C_13
REMARK    5  A    between atoms: C_13  and  C_14
REMARK    6  A    between atoms: C_14  and  C_15
REMARK                            x       y       z     vdW  Elec       q    Type
REMARK                         _______ _______ _______ _____ _____    ______ ____
ROOT
ATOM      1  N   UNL     1       6.417   3.909  13.058  0.00  0.00    +0.000 N 
ATOM      2  C   UNL     1       7.349   4.839  12.695  0.00  0.00    +0.000 A 
ATOM      3  N   UNL     1       7.729   5.574  13.719  0.00  0.00    +0.000 NA
ATOM      4  C   UNL     1       7.019   5.073  14.795  0.00  0.00    +0.000 A 
ATOM      5  C   UNL     1       6.964   5.434  16.143  0.00  0.00    +0.000 A 
ATOM      6  N   UNL     1       7.674   6.499  16.662  0.00  0.00    +0.000 N 
ATOM      7  N   UNL     1       6.171   4.716  16.974  0.00  0.00    +0.000 NA
ATOM      8  C   UNL     1       5.461   3.675  16.487  0.00  0.00    +0.000 A 
ATOM      9  N   UNL     1       4.729   2.881  17.362  0.00  0.00    +0.000 N 
ATOM     10  N   UNL     1       5.417   3.280  15.199  0.00  0.00    +0.000 NA
ATOM     11  C   UNL     1       6.214   4.015  14.406  0.00  0.00    +0.000 A 
ATOM     12  H   UNL     1       8.382   6.923  16.077  0.00  0.00    +0.000 HD
ATOM     13  H   UNL     1       7.690   6.599  17.667  0.00  0.00    +0.000 HD
ATOM     14  H   UNL     1       4.107   2.315  16.801  0.00  0.00    +0.000 HD
ENDROOT
BRANCH   1  15
ATOM     15  C   UNL     1       5.763   2.978  12.157  0.00  0.00    +0.000 C 
BRANCH  15  17
ATOM     16  C   UNL     1       3.898   3.562  10.520  0.00  0.00    +0.000 C 
ATOM     17  C   UNL     1       4.267   3.235  11.960  0.00  0.00    +0.000 C 
ENDBRANCH  15  17
ENDBRANCH   1  15
BRANCH   9  18
ATOM     18  C   UNL     1       4.137   3.561  18.508  0.00  0.00    +0.000 C 
BRANCH  18  19
ATOM     19  C   UNL     1       2.760   4.118  18.113  0.00  0.00    +0.000 C 
BRANCH  19  20
ATOM     20  C   UNL     1       2.466   5.462  18.737  0.00  0.00    +0.000 A 
ATOM     21  C   UNL     1       2.002   5.549  20.060  0.00  0.00    +0.000 A 
ATOM     22  C   UNL     1       1.717   6.800  20.622  0.00  0.00    +0.000 A 
ATOM     23  C   UNL     1       1.888   7.962  19.869  0.00  0.00    +0.000 A 
ATOM     24  C   UNL     1       2.349   7.881  18.558  0.00  0.00    +0.000 A 
ATOM     25  C   UNL     1       2.637   6.636  17.994  0.00  0.00    +0.000 A 
ENDBRANCH  19  20
ENDBRANCH  18  19
ENDBRANCH   9  18
TORSDOF 5
ENDMDL
MODEL 4
REMARK VINA RESULT:      -7.6      4.611      7.099
REMARK  Name = 
REMARK  6 active torsions:
REMARK  status: ('A' for Active; 'I' for Inactive)
REMARK    1  A    between atoms: C_1  and  C_2
REMARK    2  A    between atoms: C_2  and  C_3
REMARK    3  A    between atoms: C_3  and  N_4
REMARK    4  A    between atoms: N_12  and  C_13
REMARK    5  A    between atoms: C_13  and  C_14
REMARK    6  A    between atoms: C_14  and  C_15
REMARK                            x       y       z     vdW  Elec       q    Type
REMARK                         _______ _______ _______ _____ _____    ______ ____
ROOT
ATOM      1  N   UNL     1       4.569   4.375  18.173  0.00  0.00    +0.000 N 
ATOM      2  C   UNL     1       4.300   3.475  17.181  0.00  0.00    +0.000 A 
ATOM      3  N   UNL     1       5.073   3.658  16.133  0.00  0.00    +0.000 NA
ATOM      4  C   UNL     1       5.893   4.716  16.480  0.00  0.00    +0.000 A 
ATOM      5  C   UNL     1       6.905   5.394  15.796  0.00  0.00    +0.000 A 
ATOM      6  N   UNL     1       7.260   5.094  14.496  0.00  0.00    +0.000 N 
ATOM      7  N   UNL     1       7.557   6.397  16.432  0.00  0.00    +0.000 NA
ATOM      8  C   UNL     1       7.221   6.713  17.701  0.00  0.00    +0.000 A 
ATOM      9  N   UNL     1       7.960   7.674  18.382  0.00  0.00    +0.000 N 
ATOM     10  N   UNL     1       6.234   6.147  18.424  0.00  0.00    +0.000 NA
ATOM     11  C   UNL     1       5.611   5.159  17.762  0.00  0.00    +0.000 A 
ATOM     12  H   UNL     1       6.886   4.246  14.089  0.00  0.00    +0.000 HD
ATOM     13  H   UNL     1       8.094   5.531  14.131  0.00  0.00    +0.000 HD
ATOM     14  H   UNL     1       7.433   7.927  19.207  0.00  0.00    +0.000 HD
ENDROOT
BRANCH   1  15
ATOM     15  C   UNL     1       3.862   4.470  19.437  0.00  0.00    +0.000 C 
BRANCH  15  17
ATOM     16  C   UNL     1       1.633   4.951  20.577  0.00  0.00    +0.000 C 
ATOM     17  C   UNL     1       2.506   5.175  19.350  0.00  0.00    +0.000 C 
ENDBRANCH  15  17
ENDBRANCH   1  15
BRANCH   9  18
ATOM     18  C   UNL     1       8.484   8.774  17.579  0.00  0.00    +0.000 C 
BRANCH  18  19
ATOM     19  C   UNL     1       8.195  10.104  18.292  0.00  0.00    +0.000 C 
BRANCH  19  20
ATOM     20  C   UNL     1       9.449  10.806  18.760  0.00  0.00    +0.000 A 
ATOM     21  C   UNL     1       9.649  11.078  20.123  0.00  0.00    +0.000 A 
ATOM     22  C   UNL     1      10.807  11.744  20.543  0.00  0.00    +0.000 A 
ATOM     23  C   UNL     1      11.763  12.145  19.609  0.00  0.00    +0.000 A 
ATOM     24  C   UNL     1      11.570  11.876  18.257  0.00  0.00    +0.000 A 
ATOM     25  C   UNL     1      10.417  11.211  17.833  0.00  0.00    +0.000 A 
ENDBRANCH  19  20
ENDBRANCH  18  19
ENDBRANCH   9  18
TORSDOF 5
ENDMDL
MODEL 5
REMARK VINA RESULT:      -7.5      1.366      2.736
REMARK  Name = 
REMARK  6 active torsions:
REMARK  status: ('A' for Active; 'I' for Inactive)
REMARK    1  A    between atoms: C_1  and  C_2
REMARK    2  A    between atoms: C_2  and  C_3
REMARK    3  A    between atoms: C_3  and  N_4
REMARK    4  A    between atoms: N_12  and  C_13
REMARK    5  A    between atoms: C_13  and  C_14
REMARK    6  A    between atoms: C_14  and  C_15
REMARK                            x       y       z     vdW  Elec       q    Type
REMARK                         _______ _______ _______ _____ _____    ______ ____
ROOT
ATOM      1  N   UNL     1       6.049   4.532  15.417  0.00  0.00    +0.000 N 
ATOM      2  C   UNL     1       7.362   4.231  15.648  0.00  0.00    +0.000 A 
ATOM      3  N   UNL     1       7.704   4.469  16.896  0.00  0.00    +0.000 NA
ATOM      4  C   UNL     1       6.545   4.925  17.498  0.00  0.00    +0.000 A 
ATOM      5  C   UNL     1       6.260   5.359  18.796  0.00  0.00    +0.000 A 
ATOM      6  N   UNL     1       7.219   5.439  19.785  0.00  0.00    +0.000 N 
ATOM      7  N   UNL     1       4.991   5.728  19.089  0.00  0.00    +0.000 NA
ATOM      8  C   UNL     1       4.037   5.665  18.135  0.00  0.00    +0.000 A 
ATOM      9  N   UNL     1       2.719   5.949  18.469  0.00  0.00    +0.000 N 
ATOM     10  N   UNL     1       4.226   5.303  16.850  0.00  0.00    +0.000 NA
ATOM     11  C   UNL     1       5.495   4.945  16.596  0.00  0.00    +0.000 A 
ATOM     12  H   UNL     1       8.119   5.010  19.606  0.00  0.00    +0.000 HD
ATOM     13  H   UNL     1       6.900   5.621  20.726  0.00  0.00    +0.000 HD
ATOM     14  H   UNL     1       2.210   6.068  17.604  0.00  0.00    +0.000 HD
ENDROOT
BRANCH   1  15
ATOM     15  C   UNL     1       5.376   4.427  14.135  0.00  0.00    +0.000 C 
BRANCH  15  17
ATOM     16  C   UNL     1       5.296   3.180  11.913  0.00  0.00    +0.000 C 
ATOM     17  C   UNL     1       6.162   3.657  13.070  0.00  0.00    +0.000 C 
ENDBRANCH  15  17
ENDBRANCH   1  15
BRANCH   9  18
ATOM     18  C   UNL     1       2.517   6.972  19.490  0.00  0.00    +0.000 C 
BRANCH  18  19
ATOM     19  C   UNL     1       1.659   6.393  20.625  0.00  0.00    +0.000 C 
BRANCH  19  20
ATOM     20  C   UNL     1       1.660   4.883  20.654  0.00  0.00    +0.000 A 
ATOM     21  C   UNL     1       0.822   4.151  19.796  0.00  0.00    +0.000 A 
ATOM     22  C   UNL     1       0.820   2.751  19.844  0.00  0.00    +0.000 A 
ATOM     23  C   UNL     1       1.644   2.079  20.747  0.00  0.00    +0.000 A 
ATOM     24  C   UNL     1       2.477   2.799  21.599  0.00  0.00    +0.000 A 
ATOM     25  C   UNL     1       2.484   4.196  21.554  0.00  0.00    +0.000 A 
ENDBRANCH  19  20
ENDBRANCH  18  19
ENDBRANCH   9  18
TORSDOF 5
ENDMDL
MODEL 6
REMARK VINA RESULT:      -7.5      1.393      2.628
REMARK  Name = 
REMARK  6 active torsions:
REMARK  status: ('A' for Active; 'I' for Inactive)
REMARK    1  A    between atoms: C_1  and  C_2
REMARK    2  A    between atoms: C_2  and  C_3
REMARK    3  A    between atoms: C_3  and  N_4
REMARK    4  A    between atoms: N_12  and  C_13
REMARK    5  A    between atoms: C_13  and  C_14
REMARK    6  A    between atoms: C_14  and  C_15
REMARK                            x       y       z     vdW  Elec       q    Type
REMARK                         _______ _______ _______ _____ _____    ______ ____
ROOT
ATOM      1  N   UNL     1       6.098   4.679  15.379  0.00  0.00    +0.000 N 
ATOM      2  C   UNL     1       7.398   4.330  15.617  0.00  0.00    +0.000 A 
ATOM      3  N   UNL     1       7.723   4.491  16.881  0.00  0.00    +0.000 NA
ATOM      4  C   UNL     1       6.566   4.947  17.487  0.00  0.00    +0.000 A 
ATOM      5  C   UNL     1       6.268   5.319  18.800  0.00  0.00    +0.000 A 
ATOM      6  N   UNL     1       7.210   5.319  19.810  0.00  0.00    +0.000 N 
ATOM      7  N   UNL     1       5.004   5.707  19.092  0.00  0.00    +0.000 NA
ATOM      8  C   UNL     1       4.067   5.723  18.119  0.00  0.00    +0.000 A 
ATOM      9  N   UNL     1       2.750   6.025  18.445  0.00  0.00    +0.000 N 
ATOM     10  N   UNL     1       4.270   5.424  16.820  0.00  0.00    +0.000 NA
ATOM     11  C   UNL     1       5.533   5.044  16.569  0.00  0.00    +0.000 A 
ATOM     12  H   UNL     1       8.101   4.876  19.623  0.00  0.00    +0.000 HD
ATOM     13  H   UNL     1       6.878   5.460  20.753  0.00  0.00    +0.000 HD
ATOM     14  H   UNL     1       2.261   6.204  17.579  0.00  0.00    +0.000 HD
ENDROOT
BRANCH   1  15
ATOM     15  C   UNL     1       5.447   4.661  14.082  0.00  0.00    +0.000 C 
BRANCH  15  17
ATOM     16  C   UNL     1       5.055   3.296  11.965  0.00  0.00    +0.000 C 
ATOM     17  C   UNL     1       6.006   3.621  13.108  0.00  0.00    +0.000 C 
ENDBRANCH  15  17
ENDBRANCH   1  15
BRANCH   9  18
ATOM     18  C   UNL     1       2.558   6.997  19.516  0.00  0.00    +0.000 C 
BRANCH  18  19
ATOM     19  C   UNL     1       1.562   6.433  20.540  0.00  0.00    +0.000 C 
BRANCH  19  20
ATOM     20  C   UNL     1       1.600   4.925  20.631  0.00  0.00    +0.000 A 
ATOM     21  C   UNL     1       2.499   4.284  21.499  0.00  0.00    +0.000 A 
ATOM     22  C   UNL     1       2.536   2.885  21.562  0.00  0.00    +0.000 A 
ATOM     23  C   UNL     1       1.686   2.124  20.760  0.00  0.00    +0.000 A 
ATOM     24  C   UNL     1       0.792   2.755  19.899  0.00  0.00    +0.000 A 
ATOM     25  C   UNL     1       0.749   4.150  19.833  0.00  0.00    +0.000 A 
ENDBRANCH  19  20
ENDBRANCH  18  19
ENDBRANCH   9  18
TORSDOF 5
ENDMDL
MODEL 7
REMARK VINA RESULT:      -7.5      1.376      2.347
REMARK  Name = 
REMARK  6 active torsions:
REMARK  status: ('A' for Active; 'I' for Inactive)
REMARK    1  A    between atoms: C_1  and  C_2
REMARK    2  A    between atoms: C_2  and  C_3
REMARK    3  A    between atoms: C_3  and  N_4
REMARK    4  A    between atoms: N_12  and  C_13
REMARK    5  A    between atoms: C_13  and  C_14
REMARK    6  A    between atoms: C_14  and  C_15
REMARK                            x       y       z     vdW  Elec       q    Type
REMARK                         _______ _______ _______ _____ _____    ______ ____
ROOT
ATOM      1  N   UNL     1       6.512   3.859  12.996  0.00  0.00    +0.000 N 
ATOM      2  C   UNL     1       7.459   4.774  12.632  0.00  0.00    +0.000 A 
ATOM      3  N   UNL     1       7.822   5.529  13.647  0.00  0.00    +0.000 NA
ATOM      4  C   UNL     1       7.085   5.058  14.718  0.00  0.00    +0.000 A 
ATOM      5  C   UNL     1       7.004   5.450  16.057  0.00  0.00    +0.000 A 
ATOM      6  N   UNL     1       7.710   6.522  16.567  0.00  0.00    +0.000 N 
ATOM      7  N   UNL     1       6.188   4.756  16.886  0.00  0.00    +0.000 NA
ATOM      8  C   UNL     1       5.482   3.709  16.407  0.00  0.00    +0.000 A 
ATOM      9  N   UNL     1       4.725   2.941  17.284  0.00  0.00    +0.000 N 
ATOM     10  N   UNL     1       5.462   3.286  15.128  0.00  0.00    +0.000 NA
ATOM     11  C   UNL     1       6.282   3.997  14.336  0.00  0.00    +0.000 A 
ATOM     12  H   UNL     1       8.434   6.928  15.987  0.00  0.00    +0.000 HD
ATOM     13  H   UNL     1       7.706   6.644  17.569  0.00  0.00    +0.000 HD
ATOM     14  H   UNL     1       4.111   2.366  16.723  0.00  0.00    +0.000 HD
ENDROOT
BRANCH   1  15
ATOM     15  C   UNL     1       5.871   2.912  12.102  0.00  0.00    +0.000 C 
BRANCH  15  17
ATOM     16  C   UNL     1       4.072   3.885  10.579  0.00  0.00    +0.000 C 
ATOM     17  C   UNL     1       4.377   3.162  11.883  0.00  0.00    +0.000 C 
ENDBRANCH  15  17
ENDBRANCH   1  15
BRANCH   9  18
ATOM     18  C   UNL     1       4.114   3.651  18.402  0.00  0.00    +0.000 C 
BRANCH  18  19
ATOM     19  C   UNL     1       2.783   4.267  17.945  0.00  0.00    +0.000 C 
BRANCH  19  20
ATOM     20  C   UNL     1       2.386   5.480  18.753  0.00  0.00    +0.000 A 
ATOM     21  C   UNL     1       2.567   6.774  18.236  0.00  0.00    +0.000 A 
ATOM     22  C   UNL     1       2.211   7.891  19.002  0.00  0.00    +0.000 A 
ATOM     23  C   UNL     1       1.681   7.724  20.282  0.00  0.00    +0.000 A 
ATOM     24  C   UNL     1       1.499   6.444  20.798  0.00  0.00    +0.000 A 
ATOM     25  C   UNL     1       1.851   5.326  20.038  0.00  0.00    +0.000 A 
ENDBRANCH  19  20
ENDBRANCH  18  19
ENDBRANCH   9  18
TORSDOF 5
ENDMDL
MODEL 8
REMARK VINA RESULT:      -7.5      4.647      7.105
REMARK  Name = 
REMARK  6 active torsions:
REMARK  status: ('A' for Active; 'I' for Inactive)
REMARK    1  A    between atoms: C_1  and  C_2
REMARK    2  A    between atoms: C_2  and  C_3
REMARK    3  A    between atoms: C_3  and  N_4
REMARK    4  A    between atoms: N_12  and  C_13
REMARK    5  A    between atoms: C_13  and  C_14
REMARK    6  A    between atoms: C_14  and  C_15
REMARK                            x       y       z     vdW  Elec       q    Type
REMARK                         _______ _______ _______ _____ _____    ______ ____
ROOT
ATOM      1  N   UNL     1       4.689   4.176  18.296  0.00  0.00    +0.000 N 
ATOM      2  C   UNL     1       4.376   3.390  17.222  0.00  0.00    +0.000 A 
ATOM      3  N   UNL     1       5.099   3.697  16.166  0.00  0.00    +0.000 NA
ATOM      4  C   UNL     1       5.930   4.716  16.593  0.00  0.00    +0.000 A 
ATOM      5  C   UNL     1       6.907   5.475  15.942  0.00  0.00    +0.000 A 
ATOM      6  N   UNL     1       7.201   5.326  14.602  0.00  0.00    +0.000 N 
ATOM      7  N   UNL     1       7.585   6.405  16.657  0.00  0.00    +0.000 NA
ATOM      8  C   UNL     1       7.308   6.575  17.968  0.00  0.00    +0.000 A 
ATOM      9  N   UNL     1       8.075   7.459  18.717  0.00  0.00    +0.000 N 
ATOM     10  N   UNL     1       6.358   5.922  18.667  0.00  0.00    +0.000 NA
ATOM     11  C   UNL     1       5.708   5.010  17.928  0.00  0.00    +0.000 A 
ATOM     12  H   UNL     1       6.811   4.526  14.120  0.00  0.00    +0.000 HD
ATOM     13  H   UNL     1       8.016   5.809  14.250  0.00  0.00    +0.000 HD
ATOM     14  H   UNL     1       7.587   7.613  19.589  0.00  0.00    +0.000 HD
ENDROOT
BRANCH   1  15
ATOM     15  C   UNL     1       4.042   4.122  19.594  0.00  0.00    +0.000 C 
BRANCH  15  17
ATOM     16  C   UNL     1       1.594   4.177  20.305  0.00  0.00    +0.000 C 
ATOM     17  C   UNL     1       2.756   4.947  19.693  0.00  0.00    +0.000 C 
ENDBRANCH  15  17
ENDBRANCH   1  15
BRANCH   9  18
ATOM     18  C   UNL     1       8.557   8.646  18.020  0.00  0.00    +0.000 C 
BRANCH  18  19
ATOM     19  C   UNL     1       8.933   9.722  19.051  0.00  0.00    +0.000 C 
BRANCH  19  20
ATOM     20  C   UNL     1       9.534  10.957  18.422  0.00  0.00    +0.000 A 
ATOM     21  C   UNL     1      10.925  11.078  18.272  0.00  0.00    +0.000 A 
ATOM     22  C   UNL     1      11.471  12.236  17.702  0.00  0.00    +0.000 A 
ATOM     23  C   UNL     1      10.636  13.274  17.287  0.00  0.00    +0.000 A 
ATOM     24  C   UNL     1       9.256  13.158  17.433  0.00  0.00    +0.000 A 
ATOM     25  C   UNL     1       8.707  12.005  17.999  0.00  0.00    +0.000 A 
ENDBRANCH  19  20
ENDBRANCH  18  19
ENDBRANCH   9  18
TORSDOF 5
ENDMDL
MODEL 9
REMARK VINA RESULT:      -7.5      4.687      7.141
REMARK  Name = 
REMARK  6 active torsions:
REMARK  status: ('A' for Active; 'I' for Inactive)
REMARK    1  A    between atoms: C_1  and  C_2
REMARK    2  A    between atoms: C_2  and  C_3
REMARK    3  A    between atoms: C_3  and  N_4
REMARK    4  A    between atoms: N_12  and  C_13
REMARK    5  A    between atoms: C_13  and  C_14
REMARK    6  A    between atoms: C_14  and  C_15
REMARK                            x       y       z     vdW  Elec       q    Type
REMARK                         _______ _______ _______ _____ _____    ______ ____
ROOT
ATOM      1  N   UNL     1       4.711   4.231  18.266  0.00  0.00    +0.000 N 
ATOM      2  C   UNL     1       4.418   3.445  17.187  0.00  0.00    +0.000 A 
ATOM      3  N   UNL     1       5.155   3.756  16.142  0.00  0.00    +0.000 NA
ATOM      4  C   UNL     1       5.975   4.779  16.582  0.00  0.00    +0.000 A 
ATOM      5  C   UNL     1       6.958   5.544  15.948  0.00  0.00    +0.000 A 
ATOM      6  N   UNL     1       7.273   5.398  14.612  0.00  0.00    +0.000 N 
ATOM      7  N   UNL     1       7.620   6.476  16.673  0.00  0.00    +0.000 NA
ATOM      8  C   UNL     1       7.324   6.642  17.980  0.00  0.00    +0.000 A 
ATOM      9  N   UNL     1       8.075   7.529  18.742  0.00  0.00    +0.000 N 
ATOM     10  N   UNL     1       6.366   5.984  18.664  0.00  0.00    +0.000 NA
ATOM     11  C   UNL     1       5.731   5.070  17.914  0.00  0.00    +0.000 A 
ATOM     12  H   UNL     1       6.894   4.596  14.123  0.00  0.00    +0.000 HD
ATOM     13  H   UNL     1       8.090   5.885  14.273  0.00  0.00    +0.000 HD
ATOM     14  H   UNL     1       7.573   7.680  19.607  0.00  0.00    +0.000 HD
ENDROOT
BRANCH   1  15
ATOM     15  C   UNL     1       4.045   4.172  19.554  0.00  0.00    +0.000 C 
BRANCH  15  17
ATOM     16  C   UNL     1       2.634   2.814  21.186  0.00  0.00    +0.000 C 
ATOM     17  C   UNL     1       3.403   2.820  19.872  0.00  0.00    +0.000 C 
ENDBRANCH  15  17
ENDBRANCH   1  15
BRANCH   9  18
ATOM     18  C   UNL     1       8.562   8.720  18.054  0.00  0.00    +0.000 C 
BRANCH  18  19
ATOM     19  C   UNL     1       9.090   9.724  19.090  0.00  0.00    +0.000 C 
BRANCH  19  20
ATOM     20  C   UNL     1       9.626  10.990  18.464  0.00  0.00    +0.000 A 
ATOM     21  C   UNL     1       8.752  12.002  18.036  0.00  0.00    +0.000 A 
ATOM     22  C   UNL     1       9.261  13.164  17.442  0.00  0.00    +0.000 A 
ATOM     23  C   UNL     1      10.636  13.317  17.267  0.00  0.00    +0.000 A 
ATOM     24  C   UNL     1      11.507  12.317  17.690  0.00  0.00    +0.000 A 
ATOM     25  C   UNL     1      11.005  11.158  18.285  0.00  0.00    +0.000 A 
ENDBRANCH  19  20
ENDBRANCH  18  19
ENDBRANCH   9  18
TORSDOF 5
ENDMDL
