MODEL 1
REMARK VINA RESULT:      -5.7      0.000      0.000
REMARK  Name = 
REMARK  7 active torsions:
REMARK  status: ('A' for Active; 'I' for Inactive)
REMARK    1  A    between atoms: C_1  and  O_2
REMARK    2  A    between atoms: O_2  and  C_3
REMARK    3  A    between atoms: C_5  and  C_6
REMARK    4  A    between atoms: C_6  and  O_7
REMARK    5  A    between atoms: C_8  and  O_9
REMARK    6  A    between atoms: O_9  and  C_10
REMARK    7  A    between atoms: C_11  and  N_12
REMARK                            x       y       z     vdW  Elec       q    Type
REMARK                         _______ _______ _______ _____ _____    ______ ____
ROOT
ATOM      1  C   UNL     1       2.520   6.410  19.715  0.00  0.00    +0.000 A 
ATOM      2  C   UNL     1       1.745   5.433  20.335  0.00  0.00    +0.000 A 
ATOM      3  C   UNL     1       2.119   4.073  20.330  0.00  0.00    +0.000 A 
ATOM      4  C   UNL     1       3.289   3.666  19.635  0.00  0.00    +0.000 A 
ATOM      5  C   UNL     1       4.056   4.671  19.027  0.00  0.00    +0.000 A 
ATOM      6  C   UNL     1       3.683   6.030  19.065  0.00  0.00    +0.000 A 
ENDROOT
BRANCH   5   7
ATOM      7  N   UNL     1       5.312   4.420  18.354  0.00  0.00    +0.000 N 
ATOM      8  O   UNL     1       6.331   4.361  19.057  0.00  0.00    +0.000 OA
ATOM      9  O   UNL     1       5.278   4.341  17.123  0.00  0.00    +0.000 OA
ENDBRANCH   5   7
BRANCH   1  11
ATOM     10  C   UNL     1       1.302   7.983  21.017  0.00  0.00    +0.000 C 
ATOM     11  O   UNL     1       2.041   7.682  19.838  0.00  0.00    +0.000 OA
ENDBRANCH   1  11
BRANCH   4  12
ATOM     12  O   UNL     1       3.469   2.314  19.668  0.00  0.00    +0.000 OA
ATOM     13  C   UNL     1       3.477   1.503  18.503  0.00  0.00    +0.000 C 
ENDBRANCH   4  12
BRANCH   3  14
ATOM     14  C   UNL     1       1.288   3.038  21.069  0.00  0.00    +0.000 C 
BRANCH  14  15
ATOM     15  O   UNL     1       1.961   2.443  22.175  0.00  0.00    +0.000 OA
ATOM     16  H   UNL     1       1.893   1.480  22.075  0.00  0.00    +0.000 HD
ENDBRANCH  14  15
ENDBRANCH   3  14
TORSDOF 5
ENDMDL
MODEL 2
REMARK VINA RESULT:      -5.7      1.631      3.630
REMARK  Name = 
REMARK  7 active torsions:
REMARK  status: ('A' for Active; 'I' for Inactive)
REMARK    1  A    between atoms: C_1  and  O_2
REMARK    2  A    between atoms: O_2  and  C_3
REMARK    3  A    between atoms: C_5  and  C_6
REMARK    4  A    between atoms: C_6  and  O_7
REMARK    5  A    between atoms: C_8  and  O_9
REMARK    6  A    between atoms: O_9  and  C_10
REMARK    7  A    between atoms: C_11  and  N_12
REMARK                            x       y       z     vdW  Elec       q    Type
REMARK                         _______ _______ _______ _____ _____    ______ ____
ROOT
ATOM      1  C   UNL     1       2.633   6.522  19.345  0.00  0.00    +0.000 A 
ATOM      2  C   UNL     1       3.692   6.142  18.525  0.00  0.00    +0.000 A 
ATOM      3  C   UNL     1       4.177   4.817  18.502  0.00  0.00    +0.000 A 
ATOM      4  C   UNL     1       3.613   3.845  19.371  0.00  0.00    +0.000 A 
ATOM      5  C   UNL     1       2.543   4.253  20.180  0.00  0.00    +0.000 A 
ATOM      6  C   UNL     1       2.051   5.573  20.170  0.00  0.00    +0.000 A 
ENDROOT
BRANCH   5   7
ATOM      7  N   UNL     1       1.817   3.357  21.054  0.00  0.00    +0.000 N 
ATOM      8  O   UNL     1       0.809   2.804  20.591  0.00  0.00    +0.000 OA
ATOM      9  O   UNL     1       2.226   3.258  22.215  0.00  0.00    +0.000 OA
ENDBRANCH   5   7
BRANCH   1  11
ATOM     10  C   UNL     1       2.388   8.423  17.939  0.00  0.00    +0.000 C 
ATOM     11  O   UNL     1       2.261   7.830  19.226  0.00  0.00    +0.000 OA
ENDBRANCH   1  11
BRANCH   4  12
ATOM     12  O   UNL     1       4.241   2.637  19.276  0.00  0.00    +0.000 OA
ATOM     13  C   UNL     1       3.648   1.499  18.671  0.00  0.00    +0.000 C 
ENDBRANCH   4  12
BRANCH   3  14
ATOM     14  C   UNL     1       5.291   4.415  17.551  0.00  0.00    +0.000 C 
BRANCH  14  15
ATOM     15  O   UNL     1       6.500   4.040  18.205  0.00  0.00    +0.000 OA
ATOM     16  H   UNL     1       7.223   4.541  17.793  0.00  0.00    +0.000 HD
ENDBRANCH  14  15
ENDBRANCH   3  14
TORSDOF 5
ENDMDL
MODEL 3
REMARK VINA RESULT:      -5.5      3.067      5.035
REMARK  Name = 
REMARK  7 active torsions:
REMARK  status: ('A' for Active; 'I' for Inactive)
REMARK    1  A    between atoms: C_1  and  O_2
REMARK    2  A    between atoms: O_2  and  C_3
REMARK    3  A    between atoms: C_5  and  C_6
REMARK    4  A    between atoms: C_6  and  O_7
REMARK    5  A    between atoms: C_8  and  O_9
REMARK    6  A    between atoms: O_9  and  C_10
REMARK    7  A    between atoms: C_11  and  N_12
REMARK                            x       y       z     vdW  Elec       q    Type
REMARK                         _______ _______ _______ _____ _____    ______ ____
ROOT
ATOM      1  C   UNL     1       6.598   4.408  15.605  0.00  0.00    +0.000 A 
ATOM      2  C   UNL     1       5.314   3.897  15.783  0.00  0.00    +0.000 A 
ATOM      3  C   UNL     1       4.648   3.977  17.024  0.00  0.00    +0.000 A 
ATOM      4  C   UNL     1       5.310   4.545  18.144  0.00  0.00    +0.000 A 
ATOM      5  C   UNL     1       6.598   5.060  17.935  0.00  0.00    +0.000 A 
ATOM      6  C   UNL     1       7.239   4.997  16.682  0.00  0.00    +0.000 A 
ENDROOT
BRANCH   5   7
ATOM      7  N   UNL     1       7.362   5.739  18.959  0.00  0.00    +0.000 N 
ATOM      8  O   UNL     1       7.327   5.265  20.103  0.00  0.00    +0.000 OA
ATOM      9  O   UNL     1       7.946   6.774  18.624  0.00  0.00    +0.000 OA
ENDBRANCH   5   7
BRANCH   1  11
ATOM     10  C   UNL     1       6.193   3.809  13.340  0.00  0.00    +0.000 C 
ATOM     11  O   UNL     1       7.090   4.283  14.338  0.00  0.00    +0.000 OA
ENDBRANCH   1  11
BRANCH   4  12
ATOM     12  O   UNL     1       4.557   4.480  19.281  0.00  0.00    +0.000 OA
ATOM     13  C   UNL     1       3.755   5.556  19.743  0.00  0.00    +0.000 C 
ENDBRANCH   4  12
BRANCH   3  14
ATOM     14  C   UNL     1       3.224   3.469  17.174  0.00  0.00    +0.000 C 
BRANCH  14  15
ATOM     15  O   UNL     1       3.126   2.221  17.856  0.00  0.00    +0.000 OA
ATOM     16  H   UNL     1       3.480   2.350  18.751  0.00  0.00    +0.000 HD
ENDBRANCH  14  15
ENDBRANCH   3  14
TORSDOF 5
ENDMDL
MODEL 4
REMARK VINA RESULT:      -5.4      3.128      5.523
REMARK  Name = 
REMARK  7 active torsions:
REMARK  status: ('A' for Active; 'I' for Inactive)
REMARK    1  A    between atoms: C_1  and  O_2
REMARK    2  A    between atoms: O_2  and  C_3
REMARK    3  A    between atoms: C_5  and  C_6
REMARK    4  A    between atoms: C_6  and  O_7
REMARK    5  A    between atoms: C_8  and  O_9
REMARK    6  A    between atoms: O_9  and  C_10
REMARK    7  A    between atoms: C_11  and  N_12
REMARK                            x       y       z     vdW  Elec       q    Type
REMARK                         _______ _______ _______ _____ _____    ______ ____
ROOT
ATOM      1  C   UNL     1       6.346   4.364  15.520  0.00  0.00    +0.000 A 
ATOM      2  C   UNL     1       6.986   5.119  16.499  0.00  0.00    +0.000 A 
ATOM      3  C   UNL     1       6.484   5.212  17.814  0.00  0.00    +0.000 A 
ATOM      4  C   UNL     1       5.266   4.564  18.150  0.00  0.00    +0.000 A 
ATOM      5  C   UNL     1       4.647   3.803  17.148  0.00  0.00    +0.000 A 
ATOM      6  C   UNL     1       5.177   3.697  15.846  0.00  0.00    +0.000 A 
ENDROOT
BRANCH   5   7
ATOM      7  N   UNL     1       3.447   3.023  17.364  0.00  0.00    +0.000 N 
ATOM      8  O   UNL     1       2.377   3.505  16.968  0.00  0.00    +0.000 OA
ATOM      9  O   UNL     1       3.576   1.960  17.979  0.00  0.00    +0.000 OA
ENDBRANCH   5   7
BRANCH   1  11
ATOM     10  C   UNL     1       6.262   3.784  13.216  0.00  0.00    +0.000 C 
ATOM     11  O   UNL     1       6.977   4.349  14.309  0.00  0.00    +0.000 OA
ENDBRANCH   1  11
BRANCH   4  12
ATOM     12  O   UNL     1       4.883   4.811  19.437  0.00  0.00    +0.000 OA
ATOM     13  C   UNL     1       3.657   5.439  19.775  0.00  0.00    +0.000 C 
ENDBRANCH   4  12
BRANCH   3  14
ATOM     14  C   UNL     1       7.236   5.991  18.879  0.00  0.00    +0.000 C 
BRANCH  14  15
ATOM     15  O   UNL     1       7.481   5.248  20.071  0.00  0.00    +0.000 OA
ATOM     16  H   UNL     1       7.027   4.395  19.981  0.00  0.00    +0.000 HD
ENDBRANCH  14  15
ENDBRANCH   3  14
TORSDOF 5
ENDMDL
MODEL 5
REMARK VINA RESULT:      -5.4      1.937      4.028
REMARK  Name = 
REMARK  7 active torsions:
REMARK  status: ('A' for Active; 'I' for Inactive)
REMARK    1  A    between atoms: C_1  and  O_2
REMARK    2  A    between atoms: O_2  and  C_3
REMARK    3  A    between atoms: C_5  and  C_6
REMARK    4  A    between atoms: C_6  and  O_7
REMARK    5  A    between atoms: C_8  and  O_9
REMARK    6  A    between atoms: O_9  and  C_10
REMARK    7  A    between atoms: C_11  and  N_12
REMARK                            x       y       z     vdW  Elec       q    Type
REMARK                         _______ _______ _______ _____ _____    ______ ____
ROOT
ATOM      1  C   UNL     1       4.767   5.134  16.916  0.00  0.00    +0.000 A 
ATOM      2  C   UNL     1       3.949   6.135  17.435  0.00  0.00    +0.000 A 
ATOM      3  C   UNL     1       3.138   5.919  18.568  0.00  0.00    +0.000 A 
ATOM      4  C   UNL     1       3.104   4.637  19.177  0.00  0.00    +0.000 A 
ATOM      5  C   UNL     1       3.943   3.650  18.641  0.00  0.00    +0.000 A 
ATOM      6  C   UNL     1       4.769   3.889  17.525  0.00  0.00    +0.000 A 
ENDROOT
BRANCH   5   7
ATOM      7  N   UNL     1       4.076   2.323  19.203  0.00  0.00    +0.000 N 
ATOM      8  O   UNL     1       4.831   2.192  20.176  0.00  0.00    +0.000 OA
ATOM      9  O   UNL     1       3.471   1.412  18.631  0.00  0.00    +0.000 OA
ENDBRANCH   5   7
BRANCH   1  11
ATOM     10  C   UNL     1       6.815   4.942  15.725  0.00  0.00    +0.000 C 
ATOM     11  O   UNL     1       5.515   5.510  15.839  0.00  0.00    +0.000 OA
ENDBRANCH   1  11
BRANCH   4  12
ATOM     12  O   UNL     1       2.217   4.577  20.214  0.00  0.00    +0.000 OA
ATOM     13  C   UNL     1       1.022   3.814  20.170  0.00  0.00    +0.000 C 
ENDBRANCH   4  12
BRANCH   3  14
ATOM     14  C   UNL     1       2.304   7.047  19.152  0.00  0.00    +0.000 C 
BRANCH  14  15
ATOM     15  O   UNL     1       2.476   7.224  20.555  0.00  0.00    +0.000 OA
ATOM     16  H   UNL     1       3.426   7.161  20.744  0.00  0.00    +0.000 HD
ENDBRANCH  14  15
ENDBRANCH   3  14
TORSDOF 5
ENDMDL
MODEL 6
REMARK VINA RESULT:      -5.3      2.305      3.890
REMARK  Name = 
REMARK  7 active torsions:
REMARK  status: ('A' for Active; 'I' for Inactive)
REMARK    1  A    between atoms: C_1  and  O_2
REMARK    2  A    between atoms: O_2  and  C_3
REMARK    3  A    between atoms: C_5  and  C_6
REMARK    4  A    between atoms: C_6  and  O_7
REMARK    5  A    between atoms: C_8  and  O_9
REMARK    6  A    between atoms: O_9  and  C_10
REMARK    7  A    between atoms: C_11  and  N_12
REMARK                            x       y       z     vdW  Elec       q    Type
REMARK                         _______ _______ _______ _____ _____    ______ ____
ROOT
ATOM      1  C   UNL     1       3.151   6.952  17.888  0.00  0.00    +0.000 A 
ATOM      2  C   UNL     1       4.457   6.494  17.738  0.00  0.00    +0.000 A 
ATOM      3  C   UNL     1       4.806   5.148  17.974  0.00  0.00    +0.000 A 
ATOM      4  C   UNL     1       3.818   4.233  18.425  0.00  0.00    +0.000 A 
ATOM      5  C   UNL     1       2.508   4.717  18.559  0.00  0.00    +0.000 A 
ATOM      6  C   UNL     1       2.171   6.060  18.292  0.00  0.00    +0.000 A 
ENDROOT
BRANCH   5   7
ATOM      7  N   UNL     1       1.384   3.886  18.930  0.00  0.00    +0.000 N 
ATOM      8  O   UNL     1       0.973   3.077  18.088  0.00  0.00    +0.000 OA
ATOM      9  O   UNL     1       0.883   4.090  20.040  0.00  0.00    +0.000 OA
ENDBRANCH   5   7
BRANCH   1  11
ATOM     10  C   UNL     1       1.829   8.911  18.149  0.00  0.00    +0.000 C 
ATOM     11  O   UNL     1       2.971   8.271  17.589  0.00  0.00    +0.000 OA
ENDBRANCH   1  11
BRANCH   4  12
ATOM     12  O   UNL     1       4.332   2.993  18.673  0.00  0.00    +0.000 OA
ATOM     13  C   UNL     1       4.327   2.394  19.959  0.00  0.00    +0.000 C 
ENDBRANCH   4  12
BRANCH   3  14
ATOM     14  C   UNL     1       6.226   4.662  17.741  0.00  0.00    +0.000 C 
BRANCH  14  15
ATOM     15  O   UNL     1       6.352   3.748  16.655  0.00  0.00    +0.000 OA
ATOM     16  H   UNL     1       5.550   3.200  16.640  0.00  0.00    +0.000 HD
ENDBRANCH  14  15
ENDBRANCH   3  14
TORSDOF 5
ENDMDL
MODEL 7
REMARK VINA RESULT:      -5.2      1.963      2.232
REMARK  Name = 
REMARK  7 active torsions:
REMARK  status: ('A' for Active; 'I' for Inactive)
REMARK    1  A    between atoms: C_1  and  O_2
REMARK    2  A    between atoms: O_2  and  C_3
REMARK    3  A    between atoms: C_5  and  C_6
REMARK    4  A    between atoms: C_6  and  O_7
REMARK    5  A    between atoms: C_8  and  O_9
REMARK    6  A    between atoms: O_9  and  C_10
REMARK    7  A    between atoms: C_11  and  N_12
REMARK                            x       y       z     vdW  Elec       q    Type
REMARK                         _______ _______ _______ _____ _____    ______ ____
ROOT
ATOM      1  C   UNL     1       3.376   6.901  17.793  0.00  0.00    +0.000 A 
ATOM      2  C   UNL     1       2.340   6.072  18.215  0.00  0.00    +0.000 A 
ATOM      3  C   UNL     1       2.559   4.718  18.547  0.00  0.00    +0.000 A 
ATOM      4  C   UNL     1       3.856   4.158  18.404  0.00  0.00    +0.000 A 
ATOM      5  C   UNL     1       4.883   5.017  17.986  0.00  0.00    +0.000 A 
ATOM      6  C   UNL     1       4.653   6.374  17.685  0.00  0.00    +0.000 A 
ENDROOT
BRANCH   5   7
ATOM      7  N   UNL     1       6.267   4.610  17.873  0.00  0.00    +0.000 N 
ATOM      8  O   UNL     1       6.667   4.264  16.753  0.00  0.00    +0.000 OA
ATOM      9  O   UNL     1       6.927   4.585  18.916  0.00  0.00    +0.000 OA
ENDBRANCH   5   7
BRANCH   1  11
ATOM     10  C   UNL     1       1.946   8.723  18.326  0.00  0.00    +0.000 C 
ATOM     11  O   UNL     1       3.009   8.191  17.544  0.00  0.00    +0.000 OA
ENDBRANCH   1  11
BRANCH   4  12
ATOM     12  O   UNL     1       3.881   2.825  18.697  0.00  0.00    +0.000 OA
ATOM     13  C   UNL     1       4.411   2.306  19.906  0.00  0.00    +0.000 C 
ENDBRANCH   4  12
BRANCH   3  14
ATOM     14  C   UNL     1       1.422   3.853  19.066  0.00  0.00    +0.000 C 
BRANCH  14  15
ATOM     15  O   UNL     1       1.008   2.840  18.153  0.00  0.00    +0.000 OA
ATOM     16  H   UNL     1       1.808   2.406  17.815  0.00  0.00    +0.000 HD
ENDBRANCH  14  15
ENDBRANCH   3  14
TORSDOF 5
ENDMDL
MODEL 8
REMARK VINA RESULT:      -5.2      2.070      3.768
REMARK  Name = 
REMARK  7 active torsions:
REMARK  status: ('A' for Active; 'I' for Inactive)
REMARK    1  A    between atoms: C_1  and  O_2
REMARK    2  A    between atoms: O_2  and  C_3
REMARK    3  A    between atoms: C_5  and  C_6
REMARK    4  A    between atoms: C_6  and  O_7
REMARK    5  A    between atoms: C_8  and  O_9
REMARK    6  A    between atoms: O_9  and  C_10
REMARK    7  A    between atoms: C_11  and  N_12
REMARK                            x       y       z     vdW  Elec       q    Type
REMARK                         _______ _______ _______ _____ _____    ______ ____
ROOT
ATOM      1  C   UNL     1       3.097   7.039  18.182  0.00  0.00    +0.000 A 
ATOM      2  C   UNL     1       4.050   6.364  17.424  0.00  0.00    +0.000 A 
ATOM      3  C   UNL     1       4.319   4.993  17.617  0.00  0.00    +0.000 A 
ATOM      4  C   UNL     1       3.645   4.280  18.643  0.00  0.00    +0.000 A 
ATOM      5  C   UNL     1       2.685   4.981  19.386  0.00  0.00    +0.000 A 
ATOM      6  C   UNL     1       2.407   6.345  19.162  0.00  0.00    +0.000 A 
ENDROOT
BRANCH   5   7
ATOM      7  N   UNL     1       1.862   4.369  20.408  0.00  0.00    +0.000 N 
ATOM      8  O   UNL     1       0.722   4.012  20.081  0.00  0.00    +0.000 OA
ATOM      9  O   UNL     1       2.342   4.304  21.544  0.00  0.00    +0.000 OA
ENDBRANCH   5   7
BRANCH   1  11
ATOM     10  C   UNL     1       1.633   8.907  18.040  0.00  0.00    +0.000 C 
ATOM     11  O   UNL     1       2.930   8.352  17.851  0.00  0.00    +0.000 OA
ENDBRANCH   1  11
BRANCH   4  12
ATOM     12  O   UNL     1       4.071   2.987  18.744  0.00  0.00    +0.000 OA
ATOM     13  C   UNL     1       3.282   1.876  18.350  0.00  0.00    +0.000 C 
ENDBRANCH   4  12
BRANCH   3  14
ATOM     14  C   UNL     1       5.318   4.266  16.732  0.00  0.00    +0.000 C 
BRANCH  14  15
ATOM     15  O   UNL     1       6.556   3.980  17.376  0.00  0.00    +0.000 OA
ATOM     16  H   UNL     1       6.365   3.803  18.312  0.00  0.00    +0.000 HD
ENDBRANCH  14  15
ENDBRANCH   3  14
TORSDOF 5
ENDMDL
MODEL 9
REMARK VINA RESULT:      -5.2      2.315      4.362
REMARK  Name = 
REMARK  7 active torsions:
REMARK  status: ('A' for Active; 'I' for Inactive)
REMARK    1  A    between atoms: C_1  and  O_2
REMARK    2  A    between atoms: O_2  and  C_3
REMARK    3  A    between atoms: C_5  and  C_6
REMARK    4  A    between atoms: C_6  and  O_7
REMARK    5  A    between atoms: C_8  and  O_9
REMARK    6  A    between atoms: O_9  and  C_10
REMARK    7  A    between atoms: C_11  and  N_12
REMARK                            x       y       z     vdW  Elec       q    Type
REMARK                         _______ _______ _______ _____ _____    ______ ____
ROOT
ATOM      1  C   UNL     1       4.878   5.231  16.781  0.00  0.00    +0.000 A 
ATOM      2  C   UNL     1       4.338   3.949  16.840  0.00  0.00    +0.000 A 
ATOM      3  C   UNL     1       3.124   3.684  17.507  0.00  0.00    +0.000 A 
ATOM      4  C   UNL     1       2.448   4.734  18.185  0.00  0.00    +0.000 A 
ATOM      5  C   UNL     1       3.009   6.016  18.101  0.00  0.00    +0.000 A 
ATOM      6  C   UNL     1       4.209   6.270  17.407  0.00  0.00    +0.000 A 
ENDROOT
BRANCH   5   7
ATOM      7  N   UNL     1       2.393   7.196  18.671  0.00  0.00    +0.000 N 
ATOM      8  O   UNL     1       2.351   7.274  19.906  0.00  0.00    +0.000 OA
ATOM      9  O   UNL     1       1.904   8.007  17.879  0.00  0.00    +0.000 OA
ENDBRANCH   5   7
BRANCH   1  11
ATOM     10  C   UNL     1       6.488   4.155  15.402  0.00  0.00    +0.000 C 
ATOM     11  O   UNL     1       6.039   5.328  16.070  0.00  0.00    +0.000 OA
ENDBRANCH   1  11
BRANCH   4  12
ATOM     12  O   UNL     1       1.331   4.297  18.836  0.00  0.00    +0.000 OA
ATOM     13  C   UNL     1       1.253   4.177  20.248  0.00  0.00    +0.000 C 
ENDBRANCH   4  12
BRANCH   3  14
ATOM     14  C   UNL     1       2.524   2.288  17.502  0.00  0.00    +0.000 C 
BRANCH  14  15
ATOM     15  O   UNL     1       2.858   1.514  18.651  0.00  0.00    +0.000 OA
ATOM     16  H   UNL     1       3.692   1.055  18.461  0.00  0.00    +0.000 HD
ENDBRANCH  14  15
ENDBRANCH   3  14
TORSDOF 5
ENDMDL
