MODEL 1
REMARK VINA RESULT:      -8.0      0.000      0.000
REMARK  Name = 
REMARK  10 active torsions:
REMARK  status: ('A' for Active; 'I' for Inactive)
REMARK    1  A    between atoms: C_8  and  O_9
REMARK    2  A    between atoms: C_11  and  C_12
REMARK    3  A    between atoms: C_12  and  O_13
REMARK    4  A    between atoms: C_12  and  C_14
REMARK    5  A    between atoms: C_14  and  N_15
REMARK    6  A    between atoms: N_15  and  C_16
REMARK    7  A    between atoms: C_16  and  C_17
REMARK    8  A    between atoms: C_17  and  C_18
REMARK    9  A    between atoms: C_18  and  C_19
REMARK   10  A    between atoms: C_24  and  O_25
REMARK                            x       y       z     vdW  Elec       q    Type
REMARK                         _______ _______ _______ _____ _____    ______ ____
ROOT
ATOM      1  C   UNL     1       4.004   3.101  18.298  0.00  0.00    +0.000 C 
ENDROOT
BRANCH   1  11
ATOM      2  O   UNL     1       7.455   5.227  13.336  0.00  0.00    +0.000 OA
ATOM      3  C   UNL     1       6.900   5.075  14.421  0.00  0.00    +0.000 C 
ATOM      4  C   UNL     1       5.469   4.578  14.579  0.00  0.00    +0.000 C 
ATOM      5  O   UNL     1       5.178   3.848  15.763  0.00  0.00    +0.000 OA
ATOM      6  C   UNL     1       5.753   4.373  16.895  0.00  0.00    +0.000 A 
ATOM      7  C   UNL     1       6.913   5.165  16.831  0.00  0.00    +0.000 A 
ATOM      8  C   UNL     1       7.524   5.631  17.994  0.00  0.00    +0.000 A 
ATOM      9  C   UNL     1       6.978   5.285  19.223  0.00  0.00    +0.000 A 
ATOM     10  C   UNL     1       5.844   4.484  19.304  0.00  0.00    +0.000 A 
ATOM     11  C   UNL     1       5.210   4.014  18.140  0.00  0.00    +0.000 A 
ATOM     12  N   UNL     1       7.501   5.442  15.594  0.00  0.00    +0.000 N 
ATOM     13  H   UNL     1       8.411   5.876  15.527  0.00  0.00    +0.000 HD
BRANCH   9  14
ATOM     14  O   UNL     1       7.539   5.700  20.395  0.00  0.00    +0.000 OA
ATOM     15  H   UNL     1       6.844   5.788  21.069  0.00  0.00    +0.000 HD
ENDBRANCH   9  14
ENDBRANCH   1  11
BRANCH   1  16
ATOM     16  O   UNL     1       4.126   1.909  17.524  0.00  0.00    +0.000 OA
ATOM     17  H   UNL     1       5.040   1.605  17.698  0.00  0.00    +0.000 HD
ENDBRANCH   1  16
BRANCH   1  18
ATOM     18  C   UNL     1       3.695   2.745  19.778  0.00  0.00    +0.000 C 
BRANCH  18  19
ATOM     19  N   UNL     1       2.270   2.463  20.049  0.00  0.00    +0.000 NA
ATOM     20  H   UNL     1       2.172   1.493  20.355  0.00  0.00    +0.000 HD
BRANCH  19  21
ATOM     21  C   UNL     1       1.767   3.359  21.093  0.00  0.00    +0.000 C 
BRANCH  21  22
ATOM     22  C   UNL     1       1.284   4.683  20.497  0.00  0.00    +0.000 C 
BRANCH  22  23
ATOM     23  C   UNL     1       2.305   5.788  20.782  0.00  0.00    +0.000 C 
BRANCH  23  24
ATOM     24  C   UNL     1       2.217   6.928  19.798  0.00  0.00    +0.000 A 
ATOM     25  C   UNL     1       2.848   6.818  18.549  0.00  0.00    +0.000 A 
ATOM     26  C   UNL     1       2.795   7.866  17.630  0.00  0.00    +0.000 A 
ATOM     27  C   UNL     1       2.106   9.035  17.945  0.00  0.00    +0.000 A 
ATOM     28  C   UNL     1       1.459   9.154  19.176  0.00  0.00    +0.000 A 
ATOM     29  C   UNL     1       1.514   8.101  20.089  0.00  0.00    +0.000 A 
BRANCH  29  30
ATOM     30  O   UNL     1       0.879   8.209  21.295  0.00  0.00    +0.000 OA
ATOM     31  H   UNL     1       1.326   8.892  21.819  0.00  0.00    +0.000 HD
ENDBRANCH  29  30
ENDBRANCH  23  24
ENDBRANCH  22  23
ENDBRANCH  21  22
ENDBRANCH  19  21
ENDBRANCH  18  19
ENDBRANCH   1  18
TORSDOF 10
ENDMDL
MODEL 2
REMARK VINA RESULT:      -7.5      0.961      1.425
REMARK  Name = 
REMARK  10 active torsions:
REMARK  status: ('A' for Active; 'I' for Inactive)
REMARK    1  A    between atoms: C_8  and  O_9
REMARK    2  A    between atoms: C_11  and  C_12
REMARK    3  A    between atoms: C_12  and  O_13
REMARK    4  A    between atoms: C_12  and  C_14
REMARK    5  A    between atoms: C_14  and  N_15
REMARK    6  A    between atoms: N_15  and  C_16
REMARK    7  A    between atoms: C_16  and  C_17
REMARK    8  A    between atoms: C_17  and  C_18
REMARK    9  A    between atoms: C_18  and  C_19
REMARK   10  A    between atoms: C_24  and  O_25
REMARK                            x       y       z     vdW  Elec       q    Type
REMARK                         _______ _______ _______ _____ _____    ______ ____
ROOT
ATOM      1  C   UNL     1       4.015   3.123  18.250  0.00  0.00    +0.000 C 
ENDROOT
BRANCH   1  11
ATOM      2  O   UNL     1       7.523   5.173  13.297  0.00  0.00    +0.000 OA
ATOM      3  C   UNL     1       6.962   5.034  14.380  0.00  0.00    +0.000 C 
ATOM      4  C   UNL     1       5.521   4.566  14.534  0.00  0.00    +0.000 C 
ATOM      5  O   UNL     1       5.212   3.844  15.718  0.00  0.00    +0.000 OA
ATOM      6  C   UNL     1       5.794   4.357  16.851  0.00  0.00    +0.000 A 
ATOM      7  C   UNL     1       6.970   5.125  16.791  0.00  0.00    +0.000 A 
ATOM      8  C   UNL     1       7.587   5.579  17.954  0.00  0.00    +0.000 A 
ATOM      9  C   UNL     1       7.030   5.246  19.182  0.00  0.00    +0.000 A 
ATOM     10  C   UNL     1       5.880   4.468  19.260  0.00  0.00    +0.000 A 
ATOM     11  C   UNL     1       5.240   4.010  18.095  0.00  0.00    +0.000 A 
ATOM     12  N   UNL     1       7.567   5.390  15.554  0.00  0.00    +0.000 N 
ATOM     13  H   UNL     1       8.486   5.804  15.490  0.00  0.00    +0.000 HD
BRANCH   9  14
ATOM     14  O   UNL     1       7.596   5.649  20.355  0.00  0.00    +0.000 OA
ATOM     15  H   UNL     1       7.664   4.888  20.956  0.00  0.00    +0.000 HD
ENDBRANCH   9  14
ENDBRANCH   1  11
BRANCH   1  16
ATOM     16  O   UNL     1       4.305   1.752  17.979  0.00  0.00    +0.000 OA
ATOM     17  H   UNL     1       3.834   1.571  17.140  0.00  0.00    +0.000 HD
ENDBRANCH   1  16
BRANCH   1  18
ATOM     18  C   UNL     1       3.333   3.256  19.638  0.00  0.00    +0.000 C 
BRANCH  18  19
ATOM     19  N   UNL     1       2.256   4.267  19.691  0.00  0.00    +0.000 NA
ATOM     20  H   UNL     1       2.623   5.128  20.100  0.00  0.00    +0.000 HD
BRANCH  19  21
ATOM     21  C   UNL     1       1.755   4.542  18.342  0.00  0.00    +0.000 C 
BRANCH  21  22
ATOM     22  C   UNL     1       2.221   5.914  17.850  0.00  0.00    +0.000 C 
BRANCH  22  23
ATOM     23  C   UNL     1       2.725   6.749  19.031  0.00  0.00    +0.000 C 
BRANCH  23  24
ATOM     24  C   UNL     1       1.965   8.041  19.195  0.00  0.00    +0.000 A 
ATOM     25  C   UNL     1       1.728   8.855  18.077  0.00  0.00    +0.000 A 
ATOM     26  C   UNL     1       1.043  10.063  18.208  0.00  0.00    +0.000 A 
ATOM     27  C   UNL     1       0.580  10.470  19.457  0.00  0.00    +0.000 A 
ATOM     28  C   UNL     1       0.792   9.665  20.577  0.00  0.00    +0.000 A 
ATOM     29  C   UNL     1       1.477   8.457  20.438  0.00  0.00    +0.000 A 
BRANCH  29  30
ATOM     30  O   UNL     1       1.684   7.660  21.530  0.00  0.00    +0.000 OA
ATOM     31  H   UNL     1       1.001   6.971  21.542  0.00  0.00    +0.000 HD
ENDBRANCH  29  30
ENDBRANCH  23  24
ENDBRANCH  22  23
ENDBRANCH  21  22
ENDBRANCH  19  21
ENDBRANCH  18  19
ENDBRANCH   1  18
TORSDOF 10
ENDMDL
MODEL 3
REMARK VINA RESULT:      -7.4      1.363      1.871
REMARK  Name = 
REMARK  10 active torsions:
REMARK  status: ('A' for Active; 'I' for Inactive)
REMARK    1  A    between atoms: C_8  and  O_9
REMARK    2  A    between atoms: C_11  and  C_12
REMARK    3  A    between atoms: C_12  and  O_13
REMARK    4  A    between atoms: C_12  and  C_14
REMARK    5  A    between atoms: C_14  and  N_15
REMARK    6  A    between atoms: N_15  and  C_16
REMARK    7  A    between atoms: C_16  and  C_17
REMARK    8  A    between atoms: C_17  and  C_18
REMARK    9  A    between atoms: C_18  and  C_19
REMARK   10  A    between atoms: C_24  and  O_25
REMARK                            x       y       z     vdW  Elec       q    Type
REMARK                         _______ _______ _______ _____ _____    ______ ____
ROOT
ATOM      1  C   UNL     1       4.288   3.064  18.245  0.00  0.00    +0.000 C 
ENDROOT
BRANCH   1  11
ATOM      2  O   UNL     1       7.552   5.278  13.196  0.00  0.00    +0.000 OA
ATOM      3  C   UNL     1       7.012   5.122  14.287  0.00  0.00    +0.000 C 
ATOM      4  C   UNL     1       5.625   4.521  14.470  0.00  0.00    +0.000 C 
ATOM      5  O   UNL     1       5.394   3.812  15.679  0.00  0.00    +0.000 OA
ATOM      6  C   UNL     1       5.930   4.418  16.790  0.00  0.00    +0.000 A 
ATOM      7  C   UNL     1       7.025   5.295  16.694  0.00  0.00    +0.000 A 
ATOM      8  C   UNL     1       7.600   5.847  17.836  0.00  0.00    +0.000 A 
ATOM      9  C   UNL     1       7.085   5.502  19.079  0.00  0.00    +0.000 A 
ATOM     10  C   UNL     1       6.017   4.618  19.193  0.00  0.00    +0.000 A 
ATOM     11  C   UNL     1       5.419   4.061  18.049  0.00  0.00    +0.000 A 
ATOM     12  N   UNL     1       7.586   5.574  15.444  0.00  0.00    +0.000 N 
ATOM     13  H   UNL     1       8.459   6.074  15.358  0.00  0.00    +0.000 HD
BRANCH   9  14
ATOM     14  O   UNL     1       7.615   5.999  20.234  0.00  0.00    +0.000 OA
ATOM     15  H   UNL     1       7.352   6.929  20.333  0.00  0.00    +0.000 HD
ENDBRANCH   9  14
ENDBRANCH   1  11
BRANCH   1  16
ATOM     16  O   UNL     1       4.388   1.954  17.354  0.00  0.00    +0.000 OA
ATOM     17  H   UNL     1       4.946   2.287  16.622  0.00  0.00    +0.000 HD
ENDBRANCH   1  16
BRANCH   1  18
ATOM     18  C   UNL     1       4.160   2.561  19.708  0.00  0.00    +0.000 C 
BRANCH  18  19
ATOM     19  N   UNL     1       2.824   2.032  20.054  0.00  0.00    +0.000 NA
ATOM     20  H   UNL     1       2.789   1.036  19.830  0.00  0.00    +0.000 HD
BRANCH  19  21
ATOM     21  C   UNL     1       2.559   2.222  21.482  0.00  0.00    +0.000 C 
BRANCH  21  22
ATOM     22  C   UNL     1       1.554   3.353  21.709  0.00  0.00    +0.000 C 
BRANCH  22  23
ATOM     23  C   UNL     1       0.854   3.703  20.392  0.00  0.00    +0.000 C 
BRANCH  23  24
ATOM     24  C   UNL     1       1.454   4.913  19.720  0.00  0.00    +0.000 A 
ATOM     25  C   UNL     1       1.831   6.022  20.493  0.00  0.00    +0.000 A 
ATOM     26  C   UNL     1       2.372   7.158  19.890  0.00  0.00    +0.000 A 
ATOM     27  C   UNL     1       2.548   7.199  18.509  0.00  0.00    +0.000 A 
ATOM     28  C   UNL     1       2.194   6.098  17.728  0.00  0.00    +0.000 A 
ATOM     29  C   UNL     1       1.656   4.963  18.337  0.00  0.00    +0.000 A 
BRANCH  29  30
ATOM     30  O   UNL     1       1.312   3.879  17.578  0.00  0.00    +0.000 OA
ATOM     31  H   UNL     1       1.684   3.084  17.991  0.00  0.00    +0.000 HD
ENDBRANCH  29  30
ENDBRANCH  23  24
ENDBRANCH  22  23
ENDBRANCH  21  22
ENDBRANCH  19  21
ENDBRANCH  18  19
ENDBRANCH   1  18
TORSDOF 10
ENDMDL
MODEL 4
REMARK VINA RESULT:      -7.3      1.392      1.781
REMARK  Name = 
REMARK  10 active torsions:
REMARK  status: ('A' for Active; 'I' for Inactive)
REMARK    1  A    between atoms: C_8  and  O_9
REMARK    2  A    between atoms: C_11  and  C_12
REMARK    3  A    between atoms: C_12  and  O_13
REMARK    4  A    between atoms: C_12  and  C_14
REMARK    5  A    between atoms: C_14  and  N_15
REMARK    6  A    between atoms: N_15  and  C_16
REMARK    7  A    between atoms: C_16  and  C_17
REMARK    8  A    between atoms: C_17  and  C_18
REMARK    9  A    between atoms: C_18  and  C_19
REMARK   10  A    between atoms: C_24  and  O_25
REMARK                            x       y       z     vdW  Elec       q    Type
REMARK                         _______ _______ _______ _____ _____    ______ ____
ROOT
ATOM      1  C   UNL     1       4.138   2.712  17.623  0.00  0.00    +0.000 C 
ENDROOT
BRANCH   1  11
ATOM      2  O   UNL     1       7.784   5.372  13.076  0.00  0.00    +0.000 OA
ATOM      3  C   UNL     1       7.150   5.123  14.096  0.00  0.00    +0.000 C 
ATOM      4  C   UNL     1       5.774   4.471  14.102  0.00  0.00    +0.000 C 
ATOM      5  O   UNL     1       5.455   3.672  15.233  0.00  0.00    +0.000 OA
ATOM      6  C   UNL     1       5.861   4.213  16.429  0.00  0.00    +0.000 A 
ATOM      7  C   UNL     1       6.928   5.127  16.499  0.00  0.00    +0.000 A 
ATOM      8  C   UNL     1       7.373   5.612  17.727  0.00  0.00    +0.000 A 
ATOM      9  C   UNL     1       6.755   5.166  18.887  0.00  0.00    +0.000 A 
ATOM     10  C   UNL     1       5.713   4.245  18.838  0.00  0.00    +0.000 A 
ATOM     11  C   UNL     1       5.246   3.754  17.606  0.00  0.00    +0.000 A 
ATOM     12  N   UNL     1       7.595   5.510  15.332  0.00  0.00    +0.000 N 
ATOM     13  H   UNL     1       8.454   6.040  15.364  0.00  0.00    +0.000 HD
BRANCH   9  14
ATOM     14  O   UNL     1       7.155   5.595  20.119  0.00  0.00    +0.000 OA
ATOM     15  H   UNL     1       8.071   5.310  20.275  0.00  0.00    +0.000 HD
ENDBRANCH   9  14
ENDBRANCH   1  11
BRANCH   1  16
ATOM     16  O   UNL     1       4.031   2.060  18.887  0.00  0.00    +0.000 OA
ATOM     17  H   UNL     1       3.408   1.324  18.723  0.00  0.00    +0.000 HD
ENDBRANCH   1  16
BRANCH   1  18
ATOM     18  C   UNL     1       2.757   3.280  17.199  0.00  0.00    +0.000 C 
BRANCH  18  19
ATOM     19  N   UNL     1       2.438   4.599  17.782  0.00  0.00    +0.000 NA
ATOM     20  H   UNL     1       2.047   5.202  17.055  0.00  0.00    +0.000 HD
BRANCH  19  21
ATOM     21  C   UNL     1       1.467   4.451  18.869  0.00  0.00    +0.000 C 
BRANCH  21  22
ATOM     22  C   UNL     1       2.013   5.027  20.178  0.00  0.00    +0.000 C 
BRANCH  22  23
ATOM     23  C   UNL     1       2.938   6.211  19.881  0.00  0.00    +0.000 C 
BRANCH  23  24
ATOM     24  C   UNL     1       2.183   7.497  19.657  0.00  0.00    +0.000 A 
ATOM     25  C   UNL     1       1.435   8.055  20.705  0.00  0.00    +0.000 A 
ATOM     26  C   UNL     1       0.715   9.235  20.516  0.00  0.00    +0.000 A 
ATOM     27  C   UNL     1       0.737   9.875  19.278  0.00  0.00    +0.000 A 
ATOM     28  C   UNL     1       1.489   9.342  18.231  0.00  0.00    +0.000 A 
ATOM     29  C   UNL     1       2.209   8.163  18.428  0.00  0.00    +0.000 A 
BRANCH  29  30
ATOM     30  O   UNL     1       2.952   7.638  17.407  0.00  0.00    +0.000 OA
ATOM     31  H   UNL     1       3.659   8.265  17.186  0.00  0.00    +0.000 HD
ENDBRANCH  29  30
ENDBRANCH  23  24
ENDBRANCH  22  23
ENDBRANCH  21  22
ENDBRANCH  19  21
ENDBRANCH  18  19
ENDBRANCH   1  18
TORSDOF 10
ENDMDL
MODEL 5
REMARK VINA RESULT:      -7.2      4.146      7.013
REMARK  Name = 
REMARK  10 active torsions:
REMARK  status: ('A' for Active; 'I' for Inactive)
REMARK    1  A    between atoms: C_8  and  O_9
REMARK    2  A    between atoms: C_11  and  C_12
REMARK    3  A    between atoms: C_12  and  O_13
REMARK    4  A    between atoms: C_12  and  C_14
REMARK    5  A    between atoms: C_14  and  N_15
REMARK    6  A    between atoms: N_15  and  C_16
REMARK    7  A    between atoms: C_16  and  C_17
REMARK    8  A    between atoms: C_17  and  C_18
REMARK    9  A    between atoms: C_18  and  C_19
REMARK   10  A    between atoms: C_24  and  O_25
REMARK                            x       y       z     vdW  Elec       q    Type
REMARK                         _______ _______ _______ _____ _____    ______ ____
ROOT
ATOM      1  C   UNL     1       5.351   5.885  16.157  0.00  0.00    +0.000 C 
ENDROOT
BRANCH   1  11
ATOM      2  O   UNL     1       1.631   1.811  19.414  0.00  0.00    +0.000 OA
ATOM      3  C   UNL     1       2.267   2.783  19.018  0.00  0.00    +0.000 C 
ATOM      4  C   UNL     1       3.670   2.697  18.432  0.00  0.00    +0.000 C 
ATOM      5  O   UNL     1       4.014   3.677  17.462  0.00  0.00    +0.000 OA
ATOM      6  C   UNL     1       3.575   4.942  17.770  0.00  0.00    +0.000 A 
ATOM      7  C   UNL     1       2.469   5.153  18.612  0.00  0.00    +0.000 A 
ATOM      8  C   UNL     1       1.993   6.439  18.858  0.00  0.00    +0.000 A 
ATOM      9  C   UNL     1       2.620   7.514  18.243  0.00  0.00    +0.000 A 
ATOM     10  C   UNL     1       3.701   7.322  17.389  0.00  0.00    +0.000 A 
ATOM     11  C   UNL     1       4.200   6.031  17.139  0.00  0.00    +0.000 A 
ATOM     12  N   UNL     1       1.796   4.059  19.165  0.00  0.00    +0.000 N 
ATOM     13  H   UNL     1       0.914   4.170  19.645  0.00  0.00    +0.000 HD
BRANCH   9  14
ATOM     14  O   UNL     1       2.191   8.795  18.434  0.00  0.00    +0.000 OA
ATOM     15  H   UNL     1       1.734   8.855  19.290  0.00  0.00    +0.000 HD
ENDBRANCH   9  14
ENDBRANCH   1  11
BRANCH   1  16
ATOM     16  O   UNL     1       5.334   6.897  15.151  0.00  0.00    +0.000 OA
ATOM     17  H   UNL     1       4.859   7.642  15.573  0.00  0.00    +0.000 HD
ENDBRANCH   1  16
BRANCH   1  18
ATOM     18  C   UNL     1       6.742   5.844  16.845  0.00  0.00    +0.000 C 
BRANCH  18  19
ATOM     19  N   UNL     1       7.527   7.087  16.702  0.00  0.00    +0.000 NA
ATOM     20  H   UNL     1       6.974   7.776  16.188  0.00  0.00    +0.000 HD
BRANCH  19  21
ATOM     21  C   UNL     1       7.872   7.623  18.022  0.00  0.00    +0.000 C 
BRANCH  21  22
ATOM     22  C   UNL     1       8.326   9.081  17.923  0.00  0.00    +0.000 C 
BRANCH  22  23
ATOM     23  C   UNL     1       8.978   9.515  19.239  0.00  0.00    +0.000 C 
BRANCH  23  24
ATOM     24  C   UNL     1       9.664  10.855  19.133  0.00  0.00    +0.000 A 
ATOM     25  C   UNL     1      10.094  11.318  17.880  0.00  0.00    +0.000 A 
ATOM     26  C   UNL     1      10.746  12.546  17.761  0.00  0.00    +0.000 A 
ATOM     27  C   UNL     1      10.971  13.329  18.891  0.00  0.00    +0.000 A 
ATOM     28  C   UNL     1      10.534  12.890  20.142  0.00  0.00    +0.000 A 
ATOM     29  C   UNL     1       9.881  11.662  20.254  0.00  0.00    +0.000 A 
BRANCH  29  30
ATOM     30  O   UNL     1       9.445  11.229  21.475  0.00  0.00    +0.000 OA
ATOM     31  H   UNL     1       8.612  11.679  21.683  0.00  0.00    +0.000 HD
ENDBRANCH  29  30
ENDBRANCH  23  24
ENDBRANCH  22  23
ENDBRANCH  21  22
ENDBRANCH  19  21
ENDBRANCH  18  19
ENDBRANCH   1  18
TORSDOF 10
ENDMDL
MODEL 6
REMARK VINA RESULT:      -7.1      4.116      6.746
REMARK  Name = 
REMARK  10 active torsions:
REMARK  status: ('A' for Active; 'I' for Inactive)
REMARK    1  A    between atoms: C_8  and  O_9
REMARK    2  A    between atoms: C_11  and  C_12
REMARK    3  A    between atoms: C_12  and  O_13
REMARK    4  A    between atoms: C_12  and  C_14
REMARK    5  A    between atoms: C_14  and  N_15
REMARK    6  A    between atoms: N_15  and  C_16
REMARK    7  A    between atoms: C_16  and  C_17
REMARK    8  A    between atoms: C_17  and  C_18
REMARK    9  A    between atoms: C_18  and  C_19
REMARK   10  A    between atoms: C_24  and  O_25
REMARK                            x       y       z     vdW  Elec       q    Type
REMARK                         _______ _______ _______ _____ _____    ______ ____
ROOT
ATOM      1  C   UNL     1       5.567   5.762  16.091  0.00  0.00    +0.000 C 
ENDROOT
BRANCH   1  11
ATOM      2  O   UNL     1       1.458   8.567  20.129  0.00  0.00    +0.000 OA
ATOM      3  C   UNL     1       2.118   7.773  19.466  0.00  0.00    +0.000 C 
ATOM      4  C   UNL     1       2.462   7.974  17.996  0.00  0.00    +0.000 C 
ATOM      5  O   UNL     1       3.684   7.407  17.546  0.00  0.00    +0.000 OA
ATOM      6  C   UNL     1       3.934   6.153  18.048  0.00  0.00    +0.000 A 
ATOM      7  C   UNL     1       3.369   5.720  19.260  0.00  0.00    +0.000 A 
ATOM      8  C   UNL     1       3.688   4.471  19.791  0.00  0.00    +0.000 A 
ATOM      9  C   UNL     1       4.589   3.664  19.109  0.00  0.00    +0.000 A 
ATOM     10  C   UNL     1       5.174   4.087  17.920  0.00  0.00    +0.000 A 
ATOM     11  C   UNL     1       4.855   5.339  17.367  0.00  0.00    +0.000 A 
ATOM     12  N   UNL     1       2.524   6.571  19.978  0.00  0.00    +0.000 N 
ATOM     13  H   UNL     1       2.227   6.350  20.918  0.00  0.00    +0.000 HD
BRANCH   9  14
ATOM     14  O   UNL     1       4.950   2.438  19.585  0.00  0.00    +0.000 OA
ATOM     15  H   UNL     1       4.639   2.346  20.502  0.00  0.00    +0.000 HD
ENDBRANCH   9  14
ENDBRANCH   1  11
BRANCH   1  16
ATOM     16  O   UNL     1       5.037   6.973  15.554  0.00  0.00    +0.000 OA
ATOM     17  H   UNL     1       4.253   7.157  16.111  0.00  0.00    +0.000 HD
ENDBRANCH   1  16
BRANCH   1  18
ATOM     18  C   UNL     1       7.106   5.885  16.260  0.00  0.00    +0.000 C 
BRANCH  18  19
ATOM     19  N   UNL     1       7.561   7.209  16.732  0.00  0.00    +0.000 NA
ATOM     20  H   UNL     1       6.843   7.906  16.521  0.00  0.00    +0.000 HD
BRANCH  19  21
ATOM     21  C   UNL     1       7.801   7.177  18.177  0.00  0.00    +0.000 C 
BRANCH  21  22
ATOM     22  C   UNL     1       8.615   8.391  18.627  0.00  0.00    +0.000 C 
BRANCH  22  23
ATOM     23  C   UNL     1       8.214   9.622  17.809  0.00  0.00    +0.000 C 
BRANCH  23  24
ATOM     24  C   UNL     1       8.964  10.864  18.221  0.00  0.00    +0.000 A 
ATOM     25  C   UNL     1      10.062  10.757  19.087  0.00  0.00    +0.000 A 
ATOM     26  C   UNL     1      10.761  11.894  19.495  0.00  0.00    +0.000 A 
ATOM     27  C   UNL     1      10.373  13.152  19.038  0.00  0.00    +0.000 A 
ATOM     28  C   UNL     1       9.293  13.274  18.163  0.00  0.00    +0.000 A 
ATOM     29  C   UNL     1       8.601  12.133  17.757  0.00  0.00    +0.000 A 
BRANCH  29  30
ATOM     30  O   UNL     1       7.545  12.245  16.896  0.00  0.00    +0.000 OA
ATOM     31  H   UNL     1       7.566  13.128  16.496  0.00  0.00    +0.000 HD
ENDBRANCH  29  30
ENDBRANCH  23  24
ENDBRANCH  22  23
ENDBRANCH  21  22
ENDBRANCH  19  21
ENDBRANCH  18  19
ENDBRANCH   1  18
TORSDOF 10
ENDMDL
MODEL 7
REMARK VINA RESULT:      -7.1      1.650      3.170
REMARK  Name = 
REMARK  10 active torsions:
REMARK  status: ('A' for Active; 'I' for Inactive)
REMARK    1  A    between atoms: C_8  and  O_9
REMARK    2  A    between atoms: C_11  and  C_12
REMARK    3  A    between atoms: C_12  and  O_13
REMARK    4  A    between atoms: C_12  and  C_14
REMARK    5  A    between atoms: C_14  and  N_15
REMARK    6  A    between atoms: N_15  and  C_16
REMARK    7  A    between atoms: C_16  and  C_17
REMARK    8  A    between atoms: C_17  and  C_18
REMARK    9  A    between atoms: C_18  and  C_19
REMARK   10  A    between atoms: C_24  and  O_25
REMARK                            x       y       z     vdW  Elec       q    Type
REMARK                         _______ _______ _______ _____ _____    ______ ____
ROOT
ATOM      1  C   UNL     1       3.533   3.697  17.263  0.00  0.00    +0.000 C 
ENDROOT
BRANCH   1  11
ATOM      2  O   UNL     1       8.296   7.850  18.318  0.00  0.00    +0.000 OA
ATOM      3  C   UNL     1       7.595   6.915  17.942  0.00  0.00    +0.000 C 
ATOM      4  C   UNL     1       6.627   6.164  18.846  0.00  0.00    +0.000 C 
ATOM      5  O   UNL     1       5.474   5.614  18.224  0.00  0.00    +0.000 OA
ATOM      6  C   UNL     1       5.724   5.031  17.005  0.00  0.00    +0.000 A 
ATOM      7  C   UNL     1       6.826   5.412  16.219  0.00  0.00    +0.000 A 
ATOM      8  C   UNL     1       7.025   4.861  14.955  0.00  0.00    +0.000 A 
ATOM      9  C   UNL     1       6.106   3.938  14.473  0.00  0.00    +0.000 A 
ATOM     10  C   UNL     1       4.999   3.567  15.229  0.00  0.00    +0.000 A 
ATOM     11  C   UNL     1       4.789   4.106  16.510  0.00  0.00    +0.000 A 
ATOM     12  N   UNL     1       7.701   6.400  16.679  0.00  0.00    +0.000 N 
ATOM     13  H   UNL     1       8.407   6.801  16.078  0.00  0.00    +0.000 HD
BRANCH   9  14
ATOM     14  O   UNL     1       6.241   3.375  13.238  0.00  0.00    +0.000 OA
ATOM     15  H   UNL     1       6.423   4.072  12.586  0.00  0.00    +0.000 HD
ENDBRANCH   9  14
ENDBRANCH   1  11
BRANCH   1  16
ATOM     16  O   UNL     1       2.558   3.107  16.404  0.00  0.00    +0.000 OA
ATOM     17  H   UNL     1       1.712   3.500  16.701  0.00  0.00    +0.000 HD
ENDBRANCH   1  16
BRANCH   1  18
ATOM     18  C   UNL     1       3.818   2.759  18.467  0.00  0.00    +0.000 C 
BRANCH  18  19
ATOM     19  N   UNL     1       3.880   3.448  19.772  0.00  0.00    +0.000 NA
ATOM     20  H   UNL     1       4.143   4.425  19.624  0.00  0.00    +0.000 HD
BRANCH  19  21
ATOM     21  C   UNL     1       2.577   3.388  20.439  0.00  0.00    +0.000 C 
BRANCH  21  22
ATOM     22  C   UNL     1       1.833   4.720  20.315  0.00  0.00    +0.000 C 
BRANCH  22  23
ATOM     23  C   UNL     1       2.837   5.865  20.151  0.00  0.00    +0.000 C 
BRANCH  23  24
ATOM     24  C   UNL     1       2.168   7.192  19.889  0.00  0.00    +0.000 A 
ATOM     25  C   UNL     1       1.358   7.768  20.879  0.00  0.00    +0.000 A 
ATOM     26  C   UNL     1       0.715   8.986  20.653  0.00  0.00    +0.000 A 
ATOM     27  C   UNL     1       0.878   9.645  19.436  0.00  0.00    +0.000 A 
ATOM     28  C   UNL     1       1.694   9.093  18.447  0.00  0.00    +0.000 A 
ATOM     29  C   UNL     1       2.335   7.876  18.681  0.00  0.00    +0.000 A 
BRANCH  29  30
ATOM     30  O   UNL     1       3.140   7.332  17.719  0.00  0.00    +0.000 OA
ATOM     31  H   UNL     1       2.709   6.535  17.372  0.00  0.00    +0.000 HD
ENDBRANCH  29  30
ENDBRANCH  23  24
ENDBRANCH  22  23
ENDBRANCH  21  22
ENDBRANCH  19  21
ENDBRANCH  18  19
ENDBRANCH   1  18
TORSDOF 10
ENDMDL
MODEL 8
REMARK VINA RESULT:      -7.1      1.654      3.265
REMARK  Name = 
REMARK  10 active torsions:
REMARK  status: ('A' for Active; 'I' for Inactive)
REMARK    1  A    between atoms: C_8  and  O_9
REMARK    2  A    between atoms: C_11  and  C_12
REMARK    3  A    between atoms: C_12  and  O_13
REMARK    4  A    between atoms: C_12  and  C_14
REMARK    5  A    between atoms: C_14  and  N_15
REMARK    6  A    between atoms: N_15  and  C_16
REMARK    7  A    between atoms: C_16  and  C_17
REMARK    8  A    between atoms: C_17  and  C_18
REMARK    9  A    between atoms: C_18  and  C_19
REMARK   10  A    between atoms: C_24  and  O_25
REMARK                            x       y       z     vdW  Elec       q    Type
REMARK                         _______ _______ _______ _____ _____    ______ ____
ROOT
ATOM      1  C   UNL     1       4.492   2.933  17.819  0.00  0.00    +0.000 C 
ENDROOT
BRANCH   1  11
ATOM      2  O   UNL     1       8.242   8.112  18.220  0.00  0.00    +0.000 OA
ATOM      3  C   UNL     1       7.716   7.046  17.915  0.00  0.00    +0.000 C 
ATOM      4  C   UNL     1       7.190   6.039  18.930  0.00  0.00    +0.000 C 
ATOM      5  O   UNL     1       6.089   5.240  18.519  0.00  0.00    +0.000 OA
ATOM      6  C   UNL     1       6.182   4.787  17.226  0.00  0.00    +0.000 A 
ATOM      7  C   UNL     1       6.949   5.465  16.262  0.00  0.00    +0.000 A 
ATOM      8  C   UNL     1       6.977   5.033  14.938  0.00  0.00    +0.000 A 
ATOM      9  C   UNL     1       6.218   3.926  14.578  0.00  0.00    +0.000 A 
ATOM     10  C   UNL     1       5.436   3.258  15.514  0.00  0.00    +0.000 A 
ATOM     11  C   UNL     1       5.406   3.676  16.857  0.00  0.00    +0.000 A 
ATOM     12  N   UNL     1       7.647   6.623  16.616  0.00  0.00    +0.000 N 
ATOM     13  H   UNL     1       8.079   7.213  15.919  0.00  0.00    +0.000 HD
BRANCH   9  14
ATOM     14  O   UNL     1       6.194   3.464  13.295  0.00  0.00    +0.000 OA
ATOM     15  H   UNL     1       5.346   3.017  13.132  0.00  0.00    +0.000 HD
ENDBRANCH   9  14
ENDBRANCH   1  11
BRANCH   1  16
ATOM     16  O   UNL     1       4.995   2.940  19.154  0.00  0.00    +0.000 OA
ATOM     17  H   UNL     1       4.200   2.807  19.708  0.00  0.00    +0.000 HD
ENDBRANCH   1  16
BRANCH   1  18
ATOM     18  C   UNL     1       3.029   3.452  17.799  0.00  0.00    +0.000 C 
BRANCH  18  19
ATOM     19  N   UNL     1       2.292   3.236  19.061  0.00  0.00    +0.000 NA
ATOM     20  H   UNL     1       2.952   2.972  19.795  0.00  0.00    +0.000 HD
BRANCH  19  21
ATOM     21  C   UNL     1       1.590   4.461  19.453  0.00  0.00    +0.000 C 
BRANCH  21  22
ATOM     22  C   UNL     1       2.557   5.480  20.058  0.00  0.00    +0.000 C 
BRANCH  22  23
ATOM     23  C   UNL     1       2.746   6.657  19.096  0.00  0.00    +0.000 C 
BRANCH  23  24
ATOM     24  C   UNL     1       1.967   7.879  19.512  0.00  0.00    +0.000 A 
ATOM     25  C   UNL     1       1.487   7.983  20.826  0.00  0.00    +0.000 A 
ATOM     26  C   UNL     1       0.749   9.097  21.228  0.00  0.00    +0.000 A 
ATOM     27  C   UNL     1       0.487  10.123  20.323  0.00  0.00    +0.000 A 
ATOM     28  C   UNL     1       0.972  10.043  19.017  0.00  0.00    +0.000 A 
ATOM     29  C   UNL     1       1.711   8.928  18.622  0.00  0.00    +0.000 A 
BRANCH  29  30
ATOM     30  O   UNL     1       2.194   8.845  17.345  0.00  0.00    +0.000 OA
ATOM     31  H   UNL     1       3.041   9.317  17.306  0.00  0.00    +0.000 HD
ENDBRANCH  29  30
ENDBRANCH  23  24
ENDBRANCH  22  23
ENDBRANCH  21  22
ENDBRANCH  19  21
ENDBRANCH  18  19
ENDBRANCH   1  18
TORSDOF 10
ENDMDL
MODEL 9
REMARK VINA RESULT:      -7.0      4.693      7.266
REMARK  Name = 
REMARK  10 active torsions:
REMARK  status: ('A' for Active; 'I' for Inactive)
REMARK    1  A    between atoms: C_8  and  O_9
REMARK    2  A    between atoms: C_11  and  C_12
REMARK    3  A    between atoms: C_12  and  O_13
REMARK    4  A    between atoms: C_12  and  C_14
REMARK    5  A    between atoms: C_14  and  N_15
REMARK    6  A    between atoms: N_15  and  C_16
REMARK    7  A    between atoms: C_16  and  C_17
REMARK    8  A    between atoms: C_17  and  C_18
REMARK    9  A    between atoms: C_18  and  C_19
REMARK   10  A    between atoms: C_24  and  O_25
REMARK                            x       y       z     vdW  Elec       q    Type
REMARK                         _______ _______ _______ _____ _____    ______ ____
ROOT
ATOM      1  C   UNL     1       5.819   5.859  16.311  0.00  0.00    +0.000 C 
ENDROOT
BRANCH   1  11
ATOM      2  O   UNL     1       1.399   8.527  20.104  0.00  0.00    +0.000 OA
ATOM      3  C   UNL     1       2.110   7.755  19.468  0.00  0.00    +0.000 C 
ATOM      4  C   UNL     1       2.570   8.009  18.039  0.00  0.00    +0.000 C 
ATOM      5  O   UNL     1       3.825   7.455  17.668  0.00  0.00    +0.000 OA
ATOM      6  C   UNL     1       4.034   6.183  18.143  0.00  0.00    +0.000 A 
ATOM      7  C   UNL     1       3.373   5.707  19.289  0.00  0.00    +0.000 A 
ATOM      8  C   UNL     1       3.649   4.440  19.798  0.00  0.00    +0.000 A 
ATOM      9  C   UNL     1       4.602   3.656  19.162  0.00  0.00    +0.000 A 
ATOM     10  C   UNL     1       5.281   4.119  18.040  0.00  0.00    +0.000 A 
ATOM     11  C   UNL     1       5.007   5.392  17.509  0.00  0.00    +0.000 A 
ATOM     12  N   UNL     1       2.473   6.534  19.968  0.00  0.00    +0.000 N 
ATOM     13  H   UNL     1       2.102   6.280  20.872  0.00  0.00    +0.000 HD
BRANCH   9  14
ATOM     14  O   UNL     1       4.924   2.412  19.621  0.00  0.00    +0.000 OA
ATOM     15  H   UNL     1       4.338   1.757  19.208  0.00  0.00    +0.000 HD
ENDBRANCH   9  14
ENDBRANCH   1  11
BRANCH   1  16
ATOM     16  O   UNL     1       5.063   6.701  15.443  0.00  0.00    +0.000 OA
ATOM     17  H   UNL     1       5.720   7.340  15.099  0.00  0.00    +0.000 HD
ENDBRANCH   1  16
BRANCH   1  18
ATOM     18  C   UNL     1       7.147   6.559  16.706  0.00  0.00    +0.000 C 
BRANCH  18  19
ATOM     19  N   UNL     1       6.969   7.858  17.387  0.00  0.00    +0.000 NA
ATOM     20  H   UNL     1       6.256   7.763  18.112  0.00  0.00    +0.000 HD
BRANCH  19  21
ATOM     21  C   UNL     1       8.231   8.288  17.995  0.00  0.00    +0.000 C 
BRANCH  21  22
ATOM     22  C   UNL     1       8.421   9.800  17.859  0.00  0.00    +0.000 C 
BRANCH  22  23
ATOM     23  C   UNL     1       9.301  10.321  19.000  0.00  0.00    +0.000 C 
BRANCH  23  24
ATOM     24  C   UNL     1       9.619  11.789  18.864  0.00  0.00    +0.000 A 
ATOM     25  C   UNL     1       8.914  12.727  19.634  0.00  0.00    +0.000 A 
ATOM     26  C   UNL     1       9.179  14.091  19.512  0.00  0.00    +0.000 A 
ATOM     27  C   UNL     1      10.157  14.535  18.625  0.00  0.00    +0.000 A 
ATOM     28  C   UNL     1      10.879  13.614  17.864  0.00  0.00    +0.000 A 
ATOM     29  C   UNL     1      10.610  12.251  17.993  0.00  0.00    +0.000 A 
BRANCH  29  30
ATOM     30  O   UNL     1      11.318  11.342  17.255  0.00  0.00    +0.000 OA
ATOM     31  H   UNL     1      12.103  11.784  16.894  0.00  0.00    +0.000 HD
ENDBRANCH  29  30
ENDBRANCH  23  24
ENDBRANCH  22  23
ENDBRANCH  21  22
ENDBRANCH  19  21
ENDBRANCH  18  19
ENDBRANCH   1  18
TORSDOF 10
ENDMDL
