MODEL 1
REMARK VINA RESULT:      -7.7      0.000      0.000
REMARK  Name = 
REMARK  11 active torsions:
REMARK  status: ('A' for Active; 'I' for Inactive)
REMARK    1  A    between atoms: C_1  and  O_2
REMARK    2  A    between atoms: O_2  and  C_3
REMARK    3  A    between atoms: C_6  and  C_7
REMARK    4  A    between atoms: C_7  and  C_8
REMARK    5  A    between atoms: C_8  and  N_9
REMARK    6  A    between atoms: C_10  and  C_12
REMARK    7  A    between atoms: N_14  and  C_15
REMARK    8  A    between atoms: C_15  and  C_16
REMARK    9  A    between atoms: C_16  and  C_17
REMARK   10  A    between atoms: C_16  and  S_22
REMARK   11  A    between atoms: S_22  and  C_25
REMARK                            x       y       z     vdW  Elec       q    Type
REMARK                         _______ _______ _______ _____ _____    ______ ____
ROOT
ATOM      1  C   UNL     1       2.282   8.634  17.959  0.00  0.00    +0.000 C 
ATOM      2  O   UNL     1       2.991   9.010  17.037  0.00  0.00    +0.000 OA
ATOM      3  N   UNL     1       2.463   7.485  18.695  0.00  0.00    +0.000 N 
ATOM      4  H   UNL     1       1.761   7.294  19.408  0.00  0.00    +0.000 HD
ENDROOT
BRANCH   1   6
ATOM      5  N   UNL     1       0.025   9.509  17.504  0.00  0.00    +0.000 N 
ATOM      6  C   UNL     1       1.062   9.477  18.411  0.00  0.00    +0.000 C 
ATOM      7  O   UNL     1       1.088  10.044  19.493  0.00  0.00    +0.000 OA
ATOM      8  H   UNL     1       0.143   8.988  16.640  0.00  0.00    +0.000 HD
BRANCH   5   9
ATOM      9  C   UNL     1      -1.176  10.282  17.767  0.00  0.00    +0.000 C 
BRANCH   9  10
ATOM     10  C   UNL     1      -2.236  10.144  16.673  0.00  0.00    +0.000 C 
BRANCH  10  14
ATOM     11  C   UNL     1      -6.163  11.429  17.971  0.00  0.00    +0.000 A 
ATOM     12  C   UNL     1      -5.526  10.356  18.596  0.00  0.00    +0.000 A 
ATOM     13  C   UNL     1      -4.250   9.951  18.192  0.00  0.00    +0.000 A 
ATOM     14  C   UNL     1      -3.597  10.605  17.141  0.00  0.00    +0.000 A 
ATOM     15  C   UNL     1      -4.248  11.671  16.506  0.00  0.00    +0.000 A 
ATOM     16  C   UNL     1      -5.523  12.081  16.919  0.00  0.00    +0.000 A 
BRANCH  11  18
ATOM     17  C   UNL     1      -7.478  12.255  19.756  0.00  0.00    +0.000 C 
ATOM     18  O   UNL     1      -7.415  11.718  18.440  0.00  0.00    +0.000 OA
ENDBRANCH  11  18
ENDBRANCH  10  14
ENDBRANCH   9  10
ENDBRANCH   5   9
ENDBRANCH   1   6
BRANCH   3  19
ATOM     19  C   UNL     1       3.493   6.493  18.412  0.00  0.00    +0.000 C 
BRANCH  19  20
ATOM     20  C   UNL     1       3.821   5.550  19.578  0.00  0.00    +0.000 C 
BRANCH  20  21
ATOM     21  C   UNL     1       2.714   4.593  19.863  0.00  0.00    +0.000 A 
ATOM     22  C   UNL     1       2.217   4.075  21.044  0.00  0.00    +0.000 A 
ATOM     23  C   UNL     1       1.099   3.280  20.696  0.00  0.00    +0.000 A 
ATOM     24  C   UNL     1       0.980   3.365  19.329  0.00  0.00    +0.000 A 
ATOM     25  O   UNL     1       1.952   4.166  18.817  0.00  0.00    +0.000 OA
ENDBRANCH  20  21
BRANCH  20  26
ATOM     26  S   UNL     1       5.341   4.686  19.196  0.00  0.00    +0.000 S 
ATOM     27  O   UNL     1       6.491   5.433  19.677  0.00  0.00    +0.000 OA
ATOM     28  O   UNL     1       5.184   3.287  19.553  0.00  0.00    +0.000 OA
BRANCH  26  29
ATOM     29  C   UNL     1       5.528   4.671  17.422  0.00  0.00    +0.000 A 
ATOM     30  C   UNL     1       4.735   4.138  16.422  0.00  0.00    +0.000 A 
ATOM     31  C   UNL     1       5.231   4.432  15.119  0.00  0.00    +0.000 A 
ATOM     32  C   UNL     1       6.384   5.182  15.167  0.00  0.00    +0.000 A 
ATOM     33  S   UNL     1       6.865   5.521  16.775  0.00  0.00    +0.000 S 
ENDBRANCH  26  29
ENDBRANCH  20  26
ENDBRANCH  19  20
ENDBRANCH   3  19
TORSDOF 10
ENDMDL
MODEL 2
REMARK VINA RESULT:      -7.6      3.580      4.684
REMARK  Name = 
REMARK  11 active torsions:
REMARK  status: ('A' for Active; 'I' for Inactive)
REMARK    1  A    between atoms: C_1  and  O_2
REMARK    2  A    between atoms: O_2  and  C_3
REMARK    3  A    between atoms: C_6  and  C_7
REMARK    4  A    between atoms: C_7  and  C_8
REMARK    5  A    between atoms: C_8  and  N_9
REMARK    6  A    between atoms: C_10  and  C_12
REMARK    7  A    between atoms: N_14  and  C_15
REMARK    8  A    between atoms: C_15  and  C_16
REMARK    9  A    between atoms: C_16  and  C_17
REMARK   10  A    between atoms: C_16  and  S_22
REMARK   11  A    between atoms: S_22  and  C_25
REMARK                            x       y       z     vdW  Elec       q    Type
REMARK                         _______ _______ _______ _____ _____    ______ ____
ROOT
ATOM      1  C   UNL     1       2.194   8.645  18.124  0.00  0.00    +0.000 C 
ATOM      2  O   UNL     1       2.669   8.887  17.024  0.00  0.00    +0.000 OA
ATOM      3  N   UNL     1       2.454   7.527  18.883  0.00  0.00    +0.000 N 
ATOM      4  H   UNL     1       1.949   7.455  19.765  0.00  0.00    +0.000 HD
ENDROOT
BRANCH   1   6
ATOM      5  N   UNL     1       1.195  10.894  18.225  0.00  0.00    +0.000 N 
ATOM      6  C   UNL     1       1.218   9.642  18.800  0.00  0.00    +0.000 C 
ATOM      7  O   UNL     1       0.559   9.282  19.763  0.00  0.00    +0.000 OA
ATOM      8  H   UNL     1       1.800  11.053  17.425  0.00  0.00    +0.000 HD
BRANCH   5   9
ATOM      9  C   UNL     1       0.356  11.950  18.763  0.00  0.00    +0.000 C 
BRANCH   9  10
ATOM     10  C   UNL     1       1.085  12.856  19.756  0.00  0.00    +0.000 C 
BRANCH  10  14
ATOM     11  C   UNL     1       1.204  16.993  18.482  0.00  0.00    +0.000 A 
ATOM     12  C   UNL     1       2.268  16.134  18.199  0.00  0.00    +0.000 A 
ATOM     13  C   UNL     1       2.223  14.793  18.593  0.00  0.00    +0.000 A 
ATOM     14  C   UNL     1       1.119  14.294  19.292  0.00  0.00    +0.000 A 
ATOM     15  C   UNL     1       0.062  15.165  19.587  0.00  0.00    +0.000 A 
ATOM     16  C   UNL     1       0.104  16.507  19.184  0.00  0.00    +0.000 A 
BRANCH  11  18
ATOM     17  C   UNL     1       1.067  18.543  16.698  0.00  0.00    +0.000 C 
ATOM     18  O   UNL     1       1.372  18.285  18.064  0.00  0.00    +0.000 OA
ENDBRANCH  11  18
ENDBRANCH  10  14
ENDBRANCH   9  10
ENDBRANCH   5   9
ENDBRANCH   1   6
BRANCH   3  19
ATOM     19  C   UNL     1       3.279   6.412  18.432  0.00  0.00    +0.000 C 
BRANCH  19  20
ATOM     20  C   UNL     1       3.536   5.328  19.487  0.00  0.00    +0.000 C 
BRANCH  20  21
ATOM     21  C   UNL     1       2.482   4.274  19.487  0.00  0.00    +0.000 A 
ATOM     22  C   UNL     1       1.776   3.667  18.466  0.00  0.00    +0.000 A 
ATOM     23  C   UNL     1       0.969   2.673  19.070  0.00  0.00    +0.000 A 
ATOM     24  C   UNL     1       1.234   2.733  20.418  0.00  0.00    +0.000 A 
ATOM     25  O   UNL     1       2.156   3.696  20.679  0.00  0.00    +0.000 OA
ENDBRANCH  20  21
BRANCH  20  26
ATOM     26  S   UNL     1       5.155   4.625  19.192  0.00  0.00    +0.000 S 
ATOM     27  O   UNL     1       6.196   5.497  19.709  0.00  0.00    +0.000 OA
ATOM     28  O   UNL     1       5.130   3.223  19.570  0.00  0.00    +0.000 OA
BRANCH  26  29
ATOM     29  C   UNL     1       5.426   4.602  17.430  0.00  0.00    +0.000 A 
ATOM     30  C   UNL     1       4.783   3.920  16.413  0.00  0.00    +0.000 A 
ATOM     31  C   UNL     1       5.283   4.264  15.123  0.00  0.00    +0.000 A 
ATOM     32  C   UNL     1       6.290   5.199  15.198  0.00  0.00    +0.000 A 
ATOM     33  S   UNL     1       6.630   5.651  16.815  0.00  0.00    +0.000 S 
ENDBRANCH  26  29
ENDBRANCH  20  26
ENDBRANCH  19  20
ENDBRANCH   3  19
TORSDOF 10
ENDMDL
MODEL 3
REMARK VINA RESULT:      -7.6      2.469      2.701
REMARK  Name = 
REMARK  11 active torsions:
REMARK  status: ('A' for Active; 'I' for Inactive)
REMARK    1  A    between atoms: C_1  and  O_2
REMARK    2  A    between atoms: O_2  and  C_3
REMARK    3  A    between atoms: C_6  and  C_7
REMARK    4  A    between atoms: C_7  and  C_8
REMARK    5  A    between atoms: C_8  and  N_9
REMARK    6  A    between atoms: C_10  and  C_12
REMARK    7  A    between atoms: N_14  and  C_15
REMARK    8  A    between atoms: C_15  and  C_16
REMARK    9  A    between atoms: C_16  and  C_17
REMARK   10  A    between atoms: C_16  and  S_22
REMARK   11  A    between atoms: S_22  and  C_25
REMARK                            x       y       z     vdW  Elec       q    Type
REMARK                         _______ _______ _______ _____ _____    ______ ____
ROOT
ATOM      1  C   UNL     1       1.913   8.731  18.418  0.00  0.00    +0.000 C 
ATOM      2  O   UNL     1       2.118   8.870  17.221  0.00  0.00    +0.000 OA
ATOM      3  N   UNL     1       2.376   7.696  19.198  0.00  0.00    +0.000 N 
ATOM      4  H   UNL     1       2.087   7.706  20.175  0.00  0.00    +0.000 HD
ENDROOT
BRANCH   1   6
ATOM      5  N   UNL     1       1.038  11.025  18.620  0.00  0.00    +0.000 N 
ATOM      6  C   UNL     1       1.082   9.778  19.204  0.00  0.00    +0.000 C 
ATOM      7  O   UNL     1       0.542   9.457  20.252  0.00  0.00    +0.000 OA
ATOM      8  H   UNL     1       1.537  11.149  17.744  0.00  0.00    +0.000 HD
BRANCH   5   9
ATOM      9  C   UNL     1       0.327  12.123  19.250  0.00  0.00    +0.000 C 
BRANCH   9  10
ATOM     10  C   UNL     1      -1.157  12.172  18.885  0.00  0.00    +0.000 C 
BRANCH  10  14
ATOM     11  C   UNL     1      -3.693  12.531  22.378  0.00  0.00    +0.000 A 
ATOM     12  C   UNL     1      -2.330  12.261  22.517  0.00  0.00    +0.000 A 
ATOM     13  C   UNL     1      -1.505  12.164  21.391  0.00  0.00    +0.000 A 
ATOM     14  C   UNL     1      -2.036  12.318  20.106  0.00  0.00    +0.000 A 
ATOM     15  C   UNL     1      -3.408  12.572  19.973  0.00  0.00    +0.000 A 
ATOM     16  C   UNL     1      -4.231  12.678  21.101  0.00  0.00    +0.000 A 
BRANCH  11  18
ATOM     17  C   UNL     1      -5.458  13.532  23.596  0.00  0.00    +0.000 C 
ATOM     18  O   UNL     1      -4.399  12.582  23.549  0.00  0.00    +0.000 OA
ENDBRANCH  11  18
ENDBRANCH  10  14
ENDBRANCH   9  10
ENDBRANCH   5   9
ENDBRANCH   1   6
BRANCH   3  19
ATOM     19  C   UNL     1       3.114   6.553  18.675  0.00  0.00    +0.000 C 
BRANCH  19  20
ATOM     20  C   UNL     1       3.589   5.549  19.735  0.00  0.00    +0.000 C 
BRANCH  20  21
ATOM     21  C   UNL     1       2.590   4.472  19.987  0.00  0.00    +0.000 A 
ATOM     22  C   UNL     1       2.148   3.871  21.149  0.00  0.00    +0.000 A 
ATOM     23  C   UNL     1       1.121   2.972  20.773  0.00  0.00    +0.000 A 
ATOM     24  C   UNL     1       0.998   3.083  19.408  0.00  0.00    +0.000 A 
ATOM     25  O   UNL     1       1.880   3.997  18.924  0.00  0.00    +0.000 OA
ENDBRANCH  20  21
BRANCH  20  26
ATOM     26  S   UNL     1       5.157   4.867  19.205  0.00  0.00    +0.000 S 
ATOM     27  O   UNL     1       6.261   5.663  19.712  0.00  0.00    +0.000 OA
ATOM     28  O   UNL     1       5.138   3.432  19.424  0.00  0.00    +0.000 OA
BRANCH  26  29
ATOM     29  C   UNL     1       5.255   5.042  17.433  0.00  0.00    +0.000 A 
ATOM     30  C   UNL     1       5.797   6.037  16.639  0.00  0.00    +0.000 A 
ATOM     31  C   UNL     1       5.724   5.727  15.250  0.00  0.00    +0.000 A 
ATOM     32  C   UNL     1       5.131   4.505  15.029  0.00  0.00    +0.000 A 
ATOM     33  S   UNL     1       4.661   3.744  16.490  0.00  0.00    +0.000 S 
ENDBRANCH  26  29
ENDBRANCH  20  26
ENDBRANCH  19  20
ENDBRANCH   3  19
TORSDOF 10
ENDMDL
MODEL 4
REMARK VINA RESULT:      -7.6      3.060      4.890
REMARK  Name = 
REMARK  11 active torsions:
REMARK  status: ('A' for Active; 'I' for Inactive)
REMARK    1  A    between atoms: C_1  and  O_2
REMARK    2  A    between atoms: O_2  and  C_3
REMARK    3  A    between atoms: C_6  and  C_7
REMARK    4  A    between atoms: C_7  and  C_8
REMARK    5  A    between atoms: C_8  and  N_9
REMARK    6  A    between atoms: C_10  and  C_12
REMARK    7  A    between atoms: N_14  and  C_15
REMARK    8  A    between atoms: C_15  and  C_16
REMARK    9  A    between atoms: C_16  and  C_17
REMARK   10  A    between atoms: C_16  and  S_22
REMARK   11  A    between atoms: S_22  and  C_25
REMARK                            x       y       z     vdW  Elec       q    Type
REMARK                         _______ _______ _______ _____ _____    ______ ____
ROOT
ATOM      1  C   UNL     1       1.469   8.116  20.218  0.00  0.00    +0.000 C 
ATOM      2  O   UNL     1       1.308   7.540  21.284  0.00  0.00    +0.000 OA
ATOM      3  N   UNL     1       2.189   7.637  19.148  0.00  0.00    +0.000 N 
ATOM      4  H   UNL     1       2.260   8.256  18.341  0.00  0.00    +0.000 HD
ENDROOT
BRANCH   1   6
ATOM      5  N   UNL     1       0.151  10.025  21.047  0.00  0.00    +0.000 N 
ATOM      6  C   UNL     1       0.826   9.503  19.964  0.00  0.00    +0.000 C 
ATOM      7  O   UNL     1       0.942  10.031  18.869  0.00  0.00    +0.000 OA
ATOM      8  H   UNL     1       0.136   9.472  21.899  0.00  0.00    +0.000 HD
BRANCH   5   9
ATOM      9  C   UNL     1      -0.534  11.302  20.959  0.00  0.00    +0.000 C 
BRANCH   9  10
ATOM     10  C   UNL     1      -0.840  11.920  22.323  0.00  0.00    +0.000 C 
BRANCH  10  14
ATOM     11  C   UNL     1      -5.014  12.987  22.762  0.00  0.00    +0.000 A 
ATOM     12  C   UNL     1      -4.399  13.034  21.509  0.00  0.00    +0.000 A 
ATOM     13  C   UNL     1      -3.056  12.672  21.362  0.00  0.00    +0.000 A 
ATOM     14  C   UNL     1      -2.302  12.272  22.471  0.00  0.00    +0.000 A 
ATOM     15  C   UNL     1      -2.921  12.243  23.727  0.00  0.00    +0.000 A 
ATOM     16  C   UNL     1      -4.269  12.598  23.872  0.00  0.00    +0.000 A 
BRANCH  11  18
ATOM     17  C   UNL     1      -7.184  12.646  23.643  0.00  0.00    +0.000 C 
ATOM     18  O   UNL     1      -6.324  13.384  22.783  0.00  0.00    +0.000 OA
ENDBRANCH  11  18
ENDBRANCH  10  14
ENDBRANCH   9  10
ENDBRANCH   5   9
ENDBRANCH   1   6
BRANCH   3  19
ATOM     19  C   UNL     1       2.948   6.392  19.170  0.00  0.00    +0.000 C 
BRANCH  19  20
ATOM     20  C   UNL     1       3.207   5.766  17.793  0.00  0.00    +0.000 C 
BRANCH  20  21
ATOM     21  C   UNL     1       4.661   5.650  17.485  0.00  0.00    +0.000 A 
ATOM     22  C   UNL     1       5.389   5.897  16.337  0.00  0.00    +0.000 A 
ATOM     23  C   UNL     1       6.749   5.692  16.671  0.00  0.00    +0.000 A 
ATOM     24  C   UNL     1       6.767   5.337  17.999  0.00  0.00    +0.000 A 
ATOM     25  O   UNL     1       5.505   5.317  18.502  0.00  0.00    +0.000 OA
ENDBRANCH  20  21
BRANCH  20  26
ATOM     26  S   UNL     1       2.403   4.168  17.737  0.00  0.00    +0.000 S 
ATOM     27  O   UNL     1       1.049   4.292  17.224  0.00  0.00    +0.000 OA
ATOM     28  O   UNL     1       3.317   3.207  17.146  0.00  0.00    +0.000 OA
BRANCH  26  29
ATOM     29  C   UNL     1       2.195   3.606  19.417  0.00  0.00    +0.000 A 
ATOM     30  C   UNL     1       1.111   3.659  20.274  0.00  0.00    +0.000 A 
ATOM     31  C   UNL     1       1.364   3.009  21.516  0.00  0.00    +0.000 A 
ATOM     32  C   UNL     1       2.633   2.479  21.566  0.00  0.00    +0.000 A 
ATOM     33  S   UNL     1       3.510   2.771  20.125  0.00  0.00    +0.000 S 
ENDBRANCH  26  29
ENDBRANCH  20  26
ENDBRANCH  19  20
ENDBRANCH   3  19
TORSDOF 10
ENDMDL
MODEL 5
REMARK VINA RESULT:      -7.5      2.218      3.141
REMARK  Name = 
REMARK  11 active torsions:
REMARK  status: ('A' for Active; 'I' for Inactive)
REMARK    1  A    between atoms: C_1  and  O_2
REMARK    2  A    between atoms: O_2  and  C_3
REMARK    3  A    between atoms: C_6  and  C_7
REMARK    4  A    between atoms: C_7  and  C_8
REMARK    5  A    between atoms: C_8  and  N_9
REMARK    6  A    between atoms: C_10  and  C_12
REMARK    7  A    between atoms: N_14  and  C_15
REMARK    8  A    between atoms: C_15  and  C_16
REMARK    9  A    between atoms: C_16  and  C_17
REMARK   10  A    between atoms: C_16  and  S_22
REMARK   11  A    between atoms: S_22  and  C_25
REMARK                            x       y       z     vdW  Elec       q    Type
REMARK                         _______ _______ _______ _____ _____    ______ ____
ROOT
ATOM      1  C   UNL     1       2.139   7.144  20.034  0.00  0.00    +0.000 C 
ATOM      2  O   UNL     1       1.508   6.782  21.017  0.00  0.00    +0.000 OA
ATOM      3  N   UNL     1       3.239   6.507  19.507  0.00  0.00    +0.000 N 
ATOM      4  H   UNL     1       3.676   6.957  18.704  0.00  0.00    +0.000 HD
ENDROOT
BRANCH   1   6
ATOM      5  N   UNL     1       1.174   9.410  20.028  0.00  0.00    +0.000 N 
ATOM      6  C   UNL     1       1.719   8.412  19.249  0.00  0.00    +0.000 C 
ATOM      7  O   UNL     1       1.879   8.454  18.039  0.00  0.00    +0.000 OA
ATOM      8  H   UNL     1       1.101   9.236  21.027  0.00  0.00    +0.000 HD
BRANCH   5   9
ATOM      9  C   UNL     1       0.701  10.649  19.437  0.00  0.00    +0.000 C 
BRANCH   9  10
ATOM     10  C   UNL     1      -0.746  10.982  19.805  0.00  0.00    +0.000 C 
BRANCH  10  14
ATOM     11  C   UNL     1      -3.394  10.605  16.399  0.00  0.00    +0.000 A 
ATOM     12  C   UNL     1      -2.213   9.863  16.463  0.00  0.00    +0.000 A 
ATOM     13  C   UNL     1      -1.365   9.969  17.571  0.00  0.00    +0.000 A 
ATOM     14  C   UNL     1      -1.679  10.833  18.626  0.00  0.00    +0.000 A 
ATOM     15  C   UNL     1      -2.858  11.586  18.548  0.00  0.00    +0.000 A 
ATOM     16  C   UNL     1      -3.711  11.473  17.442  0.00  0.00    +0.000 A 
BRANCH  11  18
ATOM     17  C   UNL     1      -3.391  10.126  14.081  0.00  0.00    +0.000 C 
ATOM     18  O   UNL     1      -4.130  10.432  15.258  0.00  0.00    +0.000 OA
ENDBRANCH  11  18
ENDBRANCH  10  14
ENDBRANCH   9  10
ENDBRANCH   5   9
ENDBRANCH   1   6
BRANCH   3  19
ATOM     19  C   UNL     1       3.870   5.340  20.110  0.00  0.00    +0.000 C 
BRANCH  19  20
ATOM     20  C   UNL     1       3.930   4.098  19.210  0.00  0.00    +0.000 C 
BRANCH  20  21
ATOM     21  C   UNL     1       2.602   3.438  19.061  0.00  0.00    +0.000 A 
ATOM     22  C   UNL     1       2.137   2.476  18.185  0.00  0.00    +0.000 A 
ATOM     23  C   UNL     1       0.812   2.177  18.582  0.00  0.00    +0.000 A 
ATOM     24  C   UNL     1       0.552   2.969  19.675  0.00  0.00    +0.000 A 
ATOM     25  O   UNL     1       1.635   3.731  19.977  0.00  0.00    +0.000 OA
ENDBRANCH  20  21
BRANCH  20  26
ATOM     26  S   UNL     1       4.595   4.583  17.621  0.00  0.00    +0.000 S 
ATOM     27  O   UNL     1       5.143   3.434  16.921  0.00  0.00    +0.000 OA
ATOM     28  O   UNL     1       3.633   5.445  16.957  0.00  0.00    +0.000 OA
BRANCH  26  29
ATOM     29  C   UNL     1       6.001   5.639  17.919  0.00  0.00    +0.000 A 
ATOM     30  C   UNL     1       7.102   5.488  18.743  0.00  0.00    +0.000 A 
ATOM     31  C   UNL     1       8.035   6.556  18.608  0.00  0.00    +0.000 A 
ATOM     32  C   UNL     1       7.617   7.487  17.684  0.00  0.00    +0.000 A 
ATOM     33  S   UNL     1       6.106   7.073  16.992  0.00  0.00    +0.000 S 
ENDBRANCH  26  29
ENDBRANCH  20  26
ENDBRANCH  19  20
ENDBRANCH   3  19
TORSDOF 10
ENDMDL
MODEL 6
REMARK VINA RESULT:      -7.5      2.971      3.480
REMARK  Name = 
REMARK  11 active torsions:
REMARK  status: ('A' for Active; 'I' for Inactive)
REMARK    1  A    between atoms: C_1  and  O_2
REMARK    2  A    between atoms: O_2  and  C_3
REMARK    3  A    between atoms: C_6  and  C_7
REMARK    4  A    between atoms: C_7  and  C_8
REMARK    5  A    between atoms: C_8  and  N_9
REMARK    6  A    between atoms: C_10  and  C_12
REMARK    7  A    between atoms: N_14  and  C_15
REMARK    8  A    between atoms: C_15  and  C_16
REMARK    9  A    between atoms: C_16  and  C_17
REMARK   10  A    between atoms: C_16  and  S_22
REMARK   11  A    between atoms: S_22  and  C_25
REMARK                            x       y       z     vdW  Elec       q    Type
REMARK                         _______ _______ _______ _____ _____    ______ ____
ROOT
ATOM      1  C   UNL     1       1.733   8.782  18.555  0.00  0.00    +0.000 C 
ATOM      2  O   UNL     1       2.093   9.250  17.484  0.00  0.00    +0.000 OA
ATOM      3  N   UNL     1       2.179   7.603  19.107  0.00  0.00    +0.000 N 
ATOM      4  H   UNL     1       1.753   7.333  19.992  0.00  0.00    +0.000 HD
ENDROOT
BRANCH   1   6
ATOM      5  N   UNL     1       0.683   9.133  20.756  0.00  0.00    +0.000 N 
ATOM      6  C   UNL     1       0.699   9.530  19.436  0.00  0.00    +0.000 C 
ATOM      7  O   UNL     1      -0.015  10.384  18.934  0.00  0.00    +0.000 OA
ATOM      8  H   UNL     1       1.336   8.406  21.033  0.00  0.00    +0.000 HD
BRANCH   5   9
ATOM      9  C   UNL     1      -0.253   9.715  21.701  0.00  0.00    +0.000 C 
BRANCH   9  10
ATOM     10  C   UNL     1      -0.162  11.240  21.782  0.00  0.00    +0.000 C 
BRANCH  10  14
ATOM     11  C   UNL     1      -4.024  13.125  22.311  0.00  0.00    +0.000 A 
ATOM     12  C   UNL     1      -3.379  13.168  21.074  0.00  0.00    +0.000 A 
ATOM     13  C   UNL     1      -2.140  12.543  20.895  0.00  0.00    +0.000 A 
ATOM     14  C   UNL     1      -1.519  11.879  21.959  0.00  0.00    +0.000 A 
ATOM     15  C   UNL     1      -2.165  11.855  23.203  0.00  0.00    +0.000 A 
ATOM     16  C   UNL     1      -3.410  12.473  23.377  0.00  0.00    +0.000 A 
BRANCH  11  18
ATOM     17  C   UNL     1      -6.316  13.053  22.900  0.00  0.00    +0.000 C 
ATOM     18  O   UNL     1      -5.220  13.789  22.368  0.00  0.00    +0.000 OA
ENDBRANCH  11  18
ENDBRANCH  10  14
ENDBRANCH   9  10
ENDBRANCH   5   9
ENDBRANCH   1   6
BRANCH   3  19
ATOM     19  C   UNL     1       3.093   6.687  18.437  0.00  0.00    +0.000 C 
BRANCH  19  20
ATOM     20  C   UNL     1       3.594   5.523  19.303  0.00  0.00    +0.000 C 
BRANCH  20  21
ATOM     21  C   UNL     1       2.502   4.579  19.675  0.00  0.00    +0.000 A 
ATOM     22  C   UNL     1       1.490   3.995  18.938  0.00  0.00    +0.000 A 
ATOM     23  C   UNL     1       0.809   3.117  19.814  0.00  0.00    +0.000 A 
ATOM     24  C   UNL     1       1.449   3.216  21.027  0.00  0.00    +0.000 A 
ATOM     25  O   UNL     1       2.481   4.095  20.949  0.00  0.00    +0.000 OA
ENDBRANCH  20  21
BRANCH  20  26
ATOM     26  S   UNL     1       4.904   4.683  18.418  0.00  0.00    +0.000 S 
ATOM     27  O   UNL     1       5.501   3.648  19.245  0.00  0.00    +0.000 OA
ATOM     28  O   UNL     1       4.432   4.361  17.083  0.00  0.00    +0.000 OA
BRANCH  26  29
ATOM     29  C   UNL     1       6.220   5.857  18.151  0.00  0.00    +0.000 A 
ATOM     30  C   UNL     1       6.364   6.878  17.230  0.00  0.00    +0.000 A 
ATOM     31  C   UNL     1       7.558   7.629  17.431  0.00  0.00    +0.000 A 
ATOM     32  C   UNL     1       8.285   7.158  18.500  0.00  0.00    +0.000 A 
ATOM     33  S   UNL     1       7.532   5.815  19.249  0.00  0.00    +0.000 S 
ENDBRANCH  26  29
ENDBRANCH  20  26
ENDBRANCH  19  20
ENDBRANCH   3  19
TORSDOF 10
ENDMDL
MODEL 7
REMARK VINA RESULT:      -7.5      1.969      4.289
REMARK  Name = 
REMARK  11 active torsions:
REMARK  status: ('A' for Active; 'I' for Inactive)
REMARK    1  A    between atoms: C_1  and  O_2
REMARK    2  A    between atoms: O_2  and  C_3
REMARK    3  A    between atoms: C_6  and  C_7
REMARK    4  A    between atoms: C_7  and  C_8
REMARK    5  A    between atoms: C_8  and  N_9
REMARK    6  A    between atoms: C_10  and  C_12
REMARK    7  A    between atoms: N_14  and  C_15
REMARK    8  A    between atoms: C_15  and  C_16
REMARK    9  A    between atoms: C_16  and  C_17
REMARK   10  A    between atoms: C_16  and  S_22
REMARK   11  A    between atoms: S_22  and  C_25
REMARK                            x       y       z     vdW  Elec       q    Type
REMARK                         _______ _______ _______ _____ _____    ______ ____
ROOT
ATOM      1  C   UNL     1       2.553   6.968  19.060  0.00  0.00    +0.000 C 
ATOM      2  O   UNL     1       2.426   6.946  17.844  0.00  0.00    +0.000 OA
ATOM      3  N   UNL     1       3.451   6.221  19.788  0.00  0.00    +0.000 N 
ATOM      4  H   UNL     1       3.406   6.327  20.800  0.00  0.00    +0.000 HD
ENDROOT
BRANCH   1   6
ATOM      5  N   UNL     1       1.286   9.067  19.301  0.00  0.00    +0.000 N 
ATOM      6  C   UNL     1       1.673   7.903  19.929  0.00  0.00    +0.000 C 
ATOM      7  O   UNL     1       1.389   7.575  21.071  0.00  0.00    +0.000 OA
ATOM      8  H   UNL     1       1.598   9.208  18.345  0.00  0.00    +0.000 HD
BRANCH   5   9
ATOM      9  C   UNL     1       0.486  10.062  19.994  0.00  0.00    +0.000 C 
BRANCH   9  10
ATOM     10  C   UNL     1       0.096  11.247  19.110  0.00  0.00    +0.000 C 
BRANCH  10  14
ATOM     11  C   UNL     1      -4.014  10.925  17.783  0.00  0.00    +0.000 A 
ATOM     12  C   UNL     1      -3.659  11.846  18.769  0.00  0.00    +0.000 A 
ATOM     13  C   UNL     1      -2.329  11.966  19.186  0.00  0.00    +0.000 A 
ATOM     14  C   UNL     1      -1.335  11.151  18.633  0.00  0.00    +0.000 A 
ATOM     15  C   UNL     1      -1.701  10.216  17.655  0.00  0.00    +0.000 A 
ATOM     16  C   UNL     1      -3.032  10.104  17.232  0.00  0.00    +0.000 A 
BRANCH  11  18
ATOM     17  C   UNL     1      -6.240  10.807  18.578  0.00  0.00    +0.000 C 
ATOM     18  O   UNL     1      -5.346  10.887  17.473  0.00  0.00    +0.000 OA
ENDBRANCH  11  18
ENDBRANCH  10  14
ENDBRANCH   9  10
ENDBRANCH   5   9
ENDBRANCH   1   6
BRANCH   3  19
ATOM     19  C   UNL     1       4.332   5.216  19.205  0.00  0.00    +0.000 C 
BRANCH  19  20
ATOM     20  C   UNL     1       4.005   4.828  17.757  0.00  0.00    +0.000 C 
BRANCH  20  21
ATOM     21  C   UNL     1       5.227   4.689  16.915  0.00  0.00    +0.000 A 
ATOM     22  C   UNL     1       5.422   4.737  15.548  0.00  0.00    +0.000 A 
ATOM     23  C   UNL     1       6.817   4.626  15.337  0.00  0.00    +0.000 A 
ATOM     24  C   UNL     1       7.386   4.522  16.584  0.00  0.00    +0.000 A 
ATOM     25  O   UNL     1       6.429   4.566  17.547  0.00  0.00    +0.000 OA
ENDBRANCH  20  21
BRANCH  20  26
ATOM     26  S   UNL     1       3.056   3.310  17.779  0.00  0.00    +0.000 S 
ATOM     27  O   UNL     1       1.800   3.479  17.069  0.00  0.00    +0.000 OA
ATOM     28  O   UNL     1       3.937   2.206  17.442  0.00  0.00    +0.000 OA
BRANCH  26  29
ATOM     29  C   UNL     1       2.577   2.993  19.467  0.00  0.00    +0.000 A 
ATOM     30  C   UNL     1       3.291   2.507  20.547  0.00  0.00    +0.000 A 
ATOM     31  C   UNL     1       2.523   2.488  21.746  0.00  0.00    +0.000 A 
ATOM     32  C   UNL     1       1.247   2.963  21.544  0.00  0.00    +0.000 A 
ATOM     33  S   UNL     1       0.982   3.421  19.915  0.00  0.00    +0.000 S 
ENDBRANCH  26  29
ENDBRANCH  20  26
ENDBRANCH  19  20
ENDBRANCH   3  19
TORSDOF 10
ENDMDL
MODEL 8
REMARK VINA RESULT:      -7.5      6.290      9.567
REMARK  Name = 
REMARK  11 active torsions:
REMARK  status: ('A' for Active; 'I' for Inactive)
REMARK    1  A    between atoms: C_1  and  O_2
REMARK    2  A    between atoms: O_2  and  C_3
REMARK    3  A    between atoms: C_6  and  C_7
REMARK    4  A    between atoms: C_7  and  C_8
REMARK    5  A    between atoms: C_8  and  N_9
REMARK    6  A    between atoms: C_10  and  C_12
REMARK    7  A    between atoms: N_14  and  C_15
REMARK    8  A    between atoms: C_15  and  C_16
REMARK    9  A    between atoms: C_16  and  C_17
REMARK   10  A    between atoms: C_16  and  S_22
REMARK   11  A    between atoms: S_22  and  C_25
REMARK                            x       y       z     vdW  Elec       q    Type
REMARK                         _______ _______ _______ _____ _____    ______ ____
ROOT
ATOM      1  C   UNL     1       7.445   5.643  18.614  0.00  0.00    +0.000 C 
ATOM      2  O   UNL     1       8.274   4.758  18.766  0.00  0.00    +0.000 OA
ATOM      3  N   UNL     1       6.140   5.606  19.050  0.00  0.00    +0.000 N 
ATOM      4  H   UNL     1       5.564   6.412  18.812  0.00  0.00    +0.000 HD
ENDROOT
BRANCH   1   6
ATOM      5  N   UNL     1       8.232   7.975  18.735  0.00  0.00    +0.000 N 
ATOM      6  C   UNL     1       7.822   6.963  17.893  0.00  0.00    +0.000 C 
ATOM      7  O   UNL     1       7.733   7.033  16.677  0.00  0.00    +0.000 OA
ATOM      8  H   UNL     1       8.256   7.773  19.730  0.00  0.00    +0.000 HD
BRANCH   5   9
ATOM      9  C   UNL     1       8.588   9.283  18.215  0.00  0.00    +0.000 C 
BRANCH   9  10
ATOM     10  C   UNL     1       9.290  10.172  19.243  0.00  0.00    +0.000 C 
BRANCH  10  14
ATOM     11  C   UNL     1      11.200  13.619  17.448  0.00  0.00    +0.000 A 
ATOM     12  C   UNL     1      11.963  12.634  18.076  0.00  0.00    +0.000 A 
ATOM     13  C   UNL     1      11.351  11.510  18.640  0.00  0.00    +0.000 A 
ATOM     14  C   UNL     1       9.959  11.363  18.598  0.00  0.00    +0.000 A 
ATOM     15  C   UNL     1       9.198  12.364  17.981  0.00  0.00    +0.000 A 
ATOM     16  C   UNL     1       9.814  13.485  17.408  0.00  0.00    +0.000 A 
BRANCH  11  18
ATOM     17  C   UNL     1      11.233  15.930  16.938  0.00  0.00    +0.000 C 
ATOM     18  O   UNL     1      11.910  14.679  16.953  0.00  0.00    +0.000 OA
ENDBRANCH  11  18
ENDBRANCH  10  14
ENDBRANCH   9  10
ENDBRANCH   5   9
ENDBRANCH   1   6
BRANCH   3  19
ATOM     19  C   UNL     1       5.529   4.445  19.686  0.00  0.00    +0.000 C 
BRANCH  19  20
ATOM     20  C   UNL     1       4.255   3.928  19.004  0.00  0.00    +0.000 C 
BRANCH  20  21
ATOM     21  C   UNL     1       3.164   3.640  19.979  0.00  0.00    +0.000 A 
ATOM     22  C   UNL     1       1.943   4.243  20.209  0.00  0.00    +0.000 A 
ATOM     23  C   UNL     1       1.297   3.475  21.207  0.00  0.00    +0.000 A 
ATOM     24  C   UNL     1       2.160   2.452  21.521  0.00  0.00    +0.000 A 
ATOM     25  O   UNL     1       3.292   2.541  20.775  0.00  0.00    +0.000 OA
ENDBRANCH  20  21
BRANCH  20  26
ATOM     26  S   UNL     1       3.735   5.135  17.788  0.00  0.00    +0.000 S 
ATOM     27  O   UNL     1       2.388   4.850  17.325  0.00  0.00    +0.000 OA
ATOM     28  O   UNL     1       4.068   6.461  18.276  0.00  0.00    +0.000 OA
BRANCH  26  29
ATOM     29  C   UNL     1       4.759   4.926  16.343  0.00  0.00    +0.000 A 
ATOM     30  C   UNL     1       5.144   5.815  15.356  0.00  0.00    +0.000 A 
ATOM     31  C   UNL     1       6.045   5.233  14.418  0.00  0.00    +0.000 A 
ATOM     32  C   UNL     1       6.319   3.918  14.720  0.00  0.00    +0.000 A 
ATOM     33  S   UNL     1       5.488   3.394  16.123  0.00  0.00    +0.000 S 
ENDBRANCH  26  29
ENDBRANCH  20  26
ENDBRANCH  19  20
ENDBRANCH   3  19
TORSDOF 10
ENDMDL
MODEL 9
REMARK VINA RESULT:      -7.5      3.638      5.597
REMARK  Name = 
REMARK  11 active torsions:
REMARK  status: ('A' for Active; 'I' for Inactive)
REMARK    1  A    between atoms: C_1  and  O_2
REMARK    2  A    between atoms: O_2  and  C_3
REMARK    3  A    between atoms: C_6  and  C_7
REMARK    4  A    between atoms: C_7  and  C_8
REMARK    5  A    between atoms: C_8  and  N_9
REMARK    6  A    between atoms: C_10  and  C_12
REMARK    7  A    between atoms: N_14  and  C_15
REMARK    8  A    between atoms: C_15  and  C_16
REMARK    9  A    between atoms: C_16  and  C_17
REMARK   10  A    between atoms: C_16  and  S_22
REMARK   11  A    between atoms: S_22  and  C_25
REMARK                            x       y       z     vdW  Elec       q    Type
REMARK                         _______ _______ _______ _____ _____    ______ ____
ROOT
ATOM      1  C   UNL     1       2.149   8.635  18.134  0.00  0.00    +0.000 C 
ATOM      2  O   UNL     1       2.395   8.759  16.943  0.00  0.00    +0.000 OA
ATOM      3  N   UNL     1       2.559   7.594  18.935  0.00  0.00    +0.000 N 
ATOM      4  H   UNL     1       2.240   7.619  19.902  0.00  0.00    +0.000 HD
ENDROOT
BRANCH   1   6
ATOM      5  N   UNL     1       1.444  10.984  18.372  0.00  0.00    +0.000 N 
ATOM      6  C   UNL     1       1.324   9.711  18.886  0.00  0.00    +0.000 C 
ATOM      7  O   UNL     1       0.650   9.388  19.853  0.00  0.00    +0.000 OA
ATOM      8  H   UNL     1       2.043  11.105  17.560  0.00  0.00    +0.000 HD
BRANCH   5   9
ATOM      9  C   UNL     1       0.758  12.107  18.985  0.00  0.00    +0.000 C 
BRANCH   9  10
ATOM     10  C   UNL     1       1.542  12.739  20.136  0.00  0.00    +0.000 C 
BRANCH  10  14
ATOM     11  C   UNL     1       3.962  16.078  18.814  0.00  0.00    +0.000 A 
ATOM     12  C   UNL     1       4.035  15.630  20.134  0.00  0.00    +0.000 A 
ATOM     13  C   UNL     1       3.268  14.539  20.559  0.00  0.00    +0.000 A 
ATOM     14  C   UNL     1       2.403  13.890  19.671  0.00  0.00    +0.000 A 
ATOM     15  C   UNL     1       2.323  14.356  18.352  0.00  0.00    +0.000 A 
ATOM     16  C   UNL     1       3.099  15.442  17.926  0.00  0.00    +0.000 A 
BRANCH  11  18
ATOM     17  C   UNL     1       5.954  17.275  19.263  0.00  0.00    +0.000 C 
ATOM     18  O   UNL     1       4.744  17.163  18.524  0.00  0.00    +0.000 OA
ENDBRANCH  11  18
ENDBRANCH  10  14
ENDBRANCH   9  10
ENDBRANCH   5   9
ENDBRANCH   1   6
BRANCH   3  19
ATOM     19  C   UNL     1       3.280   6.426  18.444  0.00  0.00    +0.000 C 
BRANCH  19  20
ATOM     20  C   UNL     1       3.517   5.325  19.486  0.00  0.00    +0.000 C 
BRANCH  20  21
ATOM     21  C   UNL     1       2.447   4.288  19.471  0.00  0.00    +0.000 A 
ATOM     22  C   UNL     1       1.752   3.687  18.439  0.00  0.00    +0.000 A 
ATOM     23  C   UNL     1       0.917   2.709  19.031  0.00  0.00    +0.000 A 
ATOM     24  C   UNL     1       1.156   2.772  20.384  0.00  0.00    +0.000 A 
ATOM     25  O   UNL     1       2.088   3.721  20.658  0.00  0.00    +0.000 OA
ENDBRANCH  20  21
BRANCH  20  26
ATOM     26  S   UNL     1       5.126   4.600  19.188  0.00  0.00    +0.000 S 
ATOM     27  O   UNL     1       6.178   5.442  19.732  0.00  0.00    +0.000 OA
ATOM     28  O   UNL     1       5.074   3.191  19.533  0.00  0.00    +0.000 OA
BRANCH  26  29
ATOM     29  C   UNL     1       5.410   4.613  17.427  0.00  0.00    +0.000 A 
ATOM     30  C   UNL     1       4.780   3.947  16.392  0.00  0.00    +0.000 A 
ATOM     31  C   UNL     1       5.288   4.319  15.114  0.00  0.00    +0.000 A 
ATOM     32  C   UNL     1       6.288   5.259  15.214  0.00  0.00    +0.000 A 
ATOM     33  S   UNL     1       6.612   5.681  16.842  0.00  0.00    +0.000 S 
ENDBRANCH  26  29
ENDBRANCH  20  26
ENDBRANCH  19  20
ENDBRANCH   3  19
TORSDOF 10
ENDMDL
