MODEL 1
REMARK VINA RESULT:      -7.7      0.000      0.000
REMARK  Name = 
REMARK  11 active torsions:
REMARK  status: ('A' for Active; 'I' for Inactive)
REMARK    1  A    between atoms: CB_1  and  CA_2
REMARK    2  A    between atoms: CA_2  and  N_3
REMARK    3  A    between atoms: CA_2  and  C_22
REMARK    4  A    between atoms: C_4  and  CA_6
REMARK    5  A    between atoms: CA_6  and  CB_7
REMARK    6  A    between atoms: CA_6  and  N_17
REMARK    7  A    between atoms: CB_7  and  CG_8
REMARK    8  A    between atoms: C_18  and  CA_20
REMARK    9  A    between atoms: CA_20  and  N_21
REMARK   10  A    between atoms: CA_28  and  C_29
REMARK   11  A    between atoms: C_29  and  OXT_31
REMARK                            x       y       z     vdW  Elec       q    Type
REMARK                         _______ _______ _______ _____ _____    ______ ____
ROOT
ATOM      1  CA  TRP A   2       0.994   9.326  18.991  0.00  0.00    +0.000 C 
ENDROOT
BRANCH   1   3
ATOM      2  N   ALA A   3       2.430   7.320  18.643  0.00  0.00    +0.000 N 
ATOM      3  C   TRP A   2       1.991   8.517  18.116  0.00  0.00    +0.000 C 
ATOM      4  O   TRP A   2       2.385   8.957  17.036  0.00  0.00    +0.000 OA
ATOM      5  H   ALA A   3       2.258   7.142  19.619  0.00  0.00    +0.000 HD
BRANCH   2   7
ATOM      6  CB  ALA A   3       4.457   6.972  17.190  0.00  0.00    +0.000 C 
ATOM      7  CA  ALA A   3       3.293   6.352  17.955  0.00  0.00    +0.000 C 
BRANCH   7   8
ATOM      8  C   ALA A   3       3.712   5.265  18.970  0.00  0.00    +0.000 C 
ATOM      9  O   ALA A   3       4.714   5.357  19.684  0.00  0.00    +0.000 OA
ATOM     10  N   PRO A   4       2.863   4.186  19.145  0.00  0.00    +0.000 N 
ATOM     11  CD  PRO A   4       1.733   3.790  18.324  0.00  0.00    +0.000 C 
ATOM     12  CG  PRO A   4       0.745   3.252  19.339  0.00  0.00    +0.000 C 
ATOM     13  CB  PRO A   4       1.633   2.546  20.361  0.00  0.00    +0.000 C 
ATOM     14  CA  PRO A   4       2.987   3.282  20.301  0.00  0.00    +0.000 C 
BRANCH  14  15
ATOM     15  C   PRO A   4       4.168   2.298  20.183  0.00  0.00    +0.000 C 
ATOM     16  O   PRO A   4       4.929   2.010  21.098  0.00  0.00    +0.000 OA
BRANCH  15  17
ATOM     17  OXT PRO A   4       4.357   1.814  18.933  0.00  0.00    +0.000 OA
ATOM     18  HXT PRO A   4       5.124   1.190  18.873  0.00  0.00    +0.000 HD
ENDBRANCH  15  17
ENDBRANCH  14  15
ENDBRANCH   7   8
ENDBRANCH   2   7
ENDBRANCH   1   3
BRANCH   1  19
ATOM     19  N   TRP A   2       1.429   9.199  20.384  0.00  0.00    +0.000 N 
ATOM     20  C   GLY A   1       0.593   8.897  21.428  0.00  0.00    +0.000 C 
ATOM     21  O   GLY A   1      -0.599   8.646  21.286  0.00  0.00    +0.000 OA
ATOM     22  H   TRP A   2       2.410   9.374  20.604  0.00  0.00    +0.000 HD
BRANCH  20  23
ATOM     23  CA  GLY A   1       1.259   8.968  22.805  0.00  0.00    +0.000 C 
BRANCH  23  24
ATOM     24  N   GLY A   1       0.381   9.636  23.782  0.00  0.00    +0.000 NA
ATOM     25  H1  GLY A   1      -0.443   9.047  23.926  0.00  0.00    +0.000 HD
ATOM     26  H2  GLY A   1       0.030  10.496  23.364  0.00  0.00    +0.000 HD
ENDBRANCH  23  24
ENDBRANCH  20  23
ENDBRANCH   1  19
BRANCH   1  27
ATOM     27  CB  TRP A   2       0.825  10.797  18.550  0.00  0.00    +0.000 C 
BRANCH  27  28
ATOM     28  CG  TRP A   2      -0.513  11.399  18.870  0.00  0.00    +0.000 A 
ATOM     29  CD1 TRP A   2      -1.586  11.507  18.007  0.00  0.00    +0.000 A 
ATOM     30  NE1 TRP A   2      -2.640  12.050  18.686  0.00  0.00    +0.000 N 
ATOM     31  CE2 TRP A   2      -2.261  12.370  19.965  0.00  0.00    +0.000 A 
ATOM     32  CZ2 TRP A   2      -3.000  12.969  20.991  0.00  0.00    +0.000 A 
ATOM     33  CH2 TRP A   2      -2.344  13.219  22.198  0.00  0.00    +0.000 A 
ATOM     34  CZ3 TRP A   2      -1.005  12.876  22.370  0.00  0.00    +0.000 A 
ATOM     35  CE3 TRP A   2      -0.287  12.265  21.337  0.00  0.00    +0.000 A 
ATOM     36  CD2 TRP A   2      -0.925  11.997  20.108  0.00  0.00    +0.000 A 
ATOM     37  HE1 TRP A   2      -3.558  12.214  18.299  0.00  0.00    +0.000 HD
ENDBRANCH  27  28
ENDBRANCH   1  27
TORSDOF 10
ENDMDL
MODEL 2
REMARK VINA RESULT:      -7.7      1.411      2.793
REMARK  Name = 
REMARK  11 active torsions:
REMARK  status: ('A' for Active; 'I' for Inactive)
REMARK    1  A    between atoms: CB_1  and  CA_2
REMARK    2  A    between atoms: CA_2  and  N_3
REMARK    3  A    between atoms: CA_2  and  C_22
REMARK    4  A    between atoms: C_4  and  CA_6
REMARK    5  A    between atoms: CA_6  and  CB_7
REMARK    6  A    between atoms: CA_6  and  N_17
REMARK    7  A    between atoms: CB_7  and  CG_8
REMARK    8  A    between atoms: C_18  and  CA_20
REMARK    9  A    between atoms: CA_20  and  N_21
REMARK   10  A    between atoms: CA_28  and  C_29
REMARK   11  A    between atoms: C_29  and  OXT_31
REMARK                            x       y       z     vdW  Elec       q    Type
REMARK                         _______ _______ _______ _____ _____    ______ ____
ROOT
ATOM      1  CA  TRP A   2       1.162   9.505  19.326  0.00  0.00    +0.000 C 
ENDROOT
BRANCH   1   3
ATOM      2  N   ALA A   3       2.553   7.491  18.864  0.00  0.00    +0.000 N 
ATOM      3  C   TRP A   2       1.974   8.626  18.335  0.00  0.00    +0.000 C 
ATOM      4  O   TRP A   2       2.114   8.962  17.159  0.00  0.00    +0.000 OA
ATOM      5  H   ALA A   3       2.600   7.406  19.867  0.00  0.00    +0.000 HD
BRANCH   2   7
ATOM      6  CB  ALA A   3       4.409   7.012  17.231  0.00  0.00    +0.000 C 
ATOM      7  CA  ALA A   3       3.280   6.470  18.099  0.00  0.00    +0.000 C 
BRANCH   7   8
ATOM      8  C   ALA A   3       3.713   5.349  19.070  0.00  0.00    +0.000 C 
ATOM      9  O   ALA A   3       4.747   5.399  19.742  0.00  0.00    +0.000 OA
ATOM     10  N   PRO A   4       2.844   4.289  19.258  0.00  0.00    +0.000 N 
ATOM     11  CD  PRO A   4       1.669   3.941  18.478  0.00  0.00    +0.000 C 
ATOM     12  CG  PRO A   4       0.712   3.405  19.523  0.00  0.00    +0.000 C 
ATOM     13  CB  PRO A   4       1.623   2.653  20.489  0.00  0.00    +0.000 C 
ATOM     14  CA  PRO A   4       2.992   3.354  20.388  0.00  0.00    +0.000 C 
BRANCH  14  15
ATOM     15  C   PRO A   4       4.141   2.343  20.197  0.00  0.00    +0.000 C 
ATOM     16  O   PRO A   4       4.916   1.995  21.077  0.00  0.00    +0.000 OA
BRANCH  15  17
ATOM     17  OXT PRO A   4       4.284   1.909  18.922  0.00  0.00    +0.000 OA
ATOM     18  HXT PRO A   4       4.964   2.421  18.415  0.00  0.00    +0.000 HD
ENDBRANCH  15  17
ENDBRANCH  14  15
ENDBRANCH   7   8
ENDBRANCH   2   7
ENDBRANCH   1   3
BRANCH   1  19
ATOM     19  N   TRP A   2      -0.214   9.572  18.827  0.00  0.00    +0.000 N 
ATOM     20  C   GLY A   1      -0.784  10.697  18.287  0.00  0.00    +0.000 C 
ATOM     21  O   GLY A   1      -0.173  11.747  18.117  0.00  0.00    +0.000 OA
ATOM     22  H   TRP A   2      -0.801   8.742  18.909  0.00  0.00    +0.000 HD
BRANCH  20  23
ATOM     23  CA  GLY A   1      -2.277  10.556  17.976  0.00  0.00    +0.000 C 
BRANCH  23  24
ATOM     24  N   GLY A   1      -2.776  11.732  17.242  0.00  0.00    +0.000 NA
ATOM     25  H1  GLY A   1      -3.787  11.632  17.129  0.00  0.00    +0.000 HD
ATOM     26  H2  GLY A   1      -2.394  11.709  16.298  0.00  0.00    +0.000 HD
ENDBRANCH  23  24
ENDBRANCH  20  23
ENDBRANCH   1  19
BRANCH   1  27
ATOM     27  CB  TRP A   2       1.241   9.030  20.794  0.00  0.00    +0.000 C 
BRANCH  27  28
ATOM     28  CG  TRP A   2       0.278   9.709  21.725  0.00  0.00    +0.000 A 
ATOM     29  CD1 TRP A   2      -0.581   9.082  22.608  0.00  0.00    +0.000 A 
ATOM     30  NE1 TRP A   2      -1.246  10.038  23.322  0.00  0.00    +0.000 N 
ATOM     31  CE2 TRP A   2      -0.894  11.288  22.878  0.00  0.00    +0.000 A 
ATOM     32  CZ2 TRP A   2      -1.346  12.543  23.298  0.00  0.00    +0.000 A 
ATOM     33  CH2 TRP A   2      -0.842  13.665  22.636  0.00  0.00    +0.000 A 
ATOM     34  CZ3 TRP A   2       0.081  13.532  21.601  0.00  0.00    +0.000 A 
ATOM     35  CE3 TRP A   2       0.532  12.268  21.206  0.00  0.00    +0.000 A 
ATOM     36  CD2 TRP A   2       0.043  11.118  21.859  0.00  0.00    +0.000 A 
ATOM     37  HE1 TRP A   2      -1.915   9.855  24.056  0.00  0.00    +0.000 HD
ENDBRANCH  27  28
ENDBRANCH   1  27
TORSDOF 10
ENDMDL
MODEL 3
REMARK VINA RESULT:      -7.6      2.169      3.492
REMARK  Name = 
REMARK  11 active torsions:
REMARK  status: ('A' for Active; 'I' for Inactive)
REMARK    1  A    between atoms: CB_1  and  CA_2
REMARK    2  A    between atoms: CA_2  and  N_3
REMARK    3  A    between atoms: CA_2  and  C_22
REMARK    4  A    between atoms: C_4  and  CA_6
REMARK    5  A    between atoms: CA_6  and  CB_7
REMARK    6  A    between atoms: CA_6  and  N_17
REMARK    7  A    between atoms: CB_7  and  CG_8
REMARK    8  A    between atoms: C_18  and  CA_20
REMARK    9  A    between atoms: CA_20  and  N_21
REMARK   10  A    between atoms: CA_28  and  C_29
REMARK   11  A    between atoms: C_29  and  OXT_31
REMARK                            x       y       z     vdW  Elec       q    Type
REMARK                         _______ _______ _______ _____ _____    ______ ____
ROOT
ATOM      1  CA  TRP A   2       1.112  10.288  19.420  0.00  0.00    +0.000 C 
ENDROOT
BRANCH   1   3
ATOM      2  N   ALA A   3       2.092   8.010  19.184  0.00  0.00    +0.000 N 
ATOM      3  C   TRP A   2       1.647   9.137  18.524  0.00  0.00    +0.000 C 
ATOM      4  O   TRP A   2       1.700   9.261  17.300  0.00  0.00    +0.000 OA
ATOM      5  H   ALA A   3       2.243   8.072  20.178  0.00  0.00    +0.000 HD
BRANCH   2   7
ATOM      6  CB  ALA A   3       3.960   6.833  17.972  0.00  0.00    +0.000 C 
ATOM      7  CA  ALA A   3       2.547   6.771  18.541  0.00  0.00    +0.000 C 
BRANCH   7   8
ATOM      8  C   ALA A   3       2.311   5.599  19.519  0.00  0.00    +0.000 C 
ATOM      9  O   ALA A   3       1.877   5.752  20.665  0.00  0.00    +0.000 OA
ATOM     10  N   PRO A   4       2.508   4.315  19.045  0.00  0.00    +0.000 N 
ATOM     11  CD  PRO A   4       3.154   3.901  17.811  0.00  0.00    +0.000 C 
ATOM     12  CG  PRO A   4       2.347   2.689  17.393  0.00  0.00    +0.000 C 
ATOM     13  CB  PRO A   4       2.019   2.004  18.717  0.00  0.00    +0.000 C 
ATOM     14  CA  PRO A   4       2.000   3.135  19.767  0.00  0.00    +0.000 C 
BRANCH  14  15
ATOM     15  C   PRO A   4       2.834   2.774  21.012  0.00  0.00    +0.000 C 
ATOM     16  O   PRO A   4       2.454   2.906  22.168  0.00  0.00    +0.000 OA
BRANCH  15  17
ATOM     17  OXT PRO A   4       4.091   2.356  20.728  0.00  0.00    +0.000 OA
ATOM     18  HXT PRO A   4       4.535   1.921  21.500  0.00  0.00    +0.000 HD
ENDBRANCH  15  17
ENDBRANCH  14  15
ENDBRANCH   7   8
ENDBRANCH   2   7
ENDBRANCH   1   3
BRANCH   1  19
ATOM     19  N   TRP A   2       1.190  11.525  18.639  0.00  0.00    +0.000 N 
ATOM     20  C   GLY A   1       1.638  12.723  19.135  0.00  0.00    +0.000 C 
ATOM     21  O   GLY A   1       2.073  12.861  20.274  0.00  0.00    +0.000 OA
ATOM     22  H   TRP A   2       0.866  11.510  17.672  0.00  0.00    +0.000 HD
BRANCH  20  23
ATOM     23  CA  GLY A   1       1.484  13.900  18.167  0.00  0.00    +0.000 C 
BRANCH  23  24
ATOM     24  N   GLY A   1       1.063  15.118  18.881  0.00  0.00    +0.000 NA
ATOM     25  H1  GLY A   1       1.545  15.143  19.782  0.00  0.00    +0.000 HD
ATOM     26  H2  GLY A   1       0.072  15.033  19.105  0.00  0.00    +0.000 HD
ENDBRANCH  23  24
ENDBRANCH  20  23
ENDBRANCH   1  19
BRANCH   1  27
ATOM     27  CB  TRP A   2      -0.300  10.032  19.991  0.00  0.00    +0.000 C 
BRANCH  27  28
ATOM     28  CG  TRP A   2      -1.398  10.810  19.324  0.00  0.00    +0.000 A 
ATOM     29  CD1 TRP A   2      -2.048  11.913  19.843  0.00  0.00    +0.000 A 
ATOM     30  NE1 TRP A   2      -2.935  12.375  18.913  0.00  0.00    +0.000 N 
ATOM     31  CE2 TRP A   2      -2.935  11.554  17.813  0.00  0.00    +0.000 A 
ATOM     32  CZ2 TRP A   2      -3.701  11.627  16.646  0.00  0.00    +0.000 A 
ATOM     33  CH2 TRP A   2      -3.524  10.622  15.693  0.00  0.00    +0.000 A 
ATOM     34  CZ3 TRP A   2      -2.611   9.591  15.901  0.00  0.00    +0.000 A 
ATOM     35  CE3 TRP A   2      -1.844   9.543  17.069  0.00  0.00    +0.000 A 
ATOM     36  CD2 TRP A   2      -1.999  10.547  18.048  0.00  0.00    +0.000 A 
ATOM     37  HE1 TRP A   2      -3.522  13.189  19.024  0.00  0.00    +0.000 HD
ENDBRANCH  27  28
ENDBRANCH   1  27
TORSDOF 10
ENDMDL
MODEL 4
REMARK VINA RESULT:      -7.5      1.801      3.042
REMARK  Name = 
REMARK  11 active torsions:
REMARK  status: ('A' for Active; 'I' for Inactive)
REMARK    1  A    between atoms: CB_1  and  CA_2
REMARK    2  A    between atoms: CA_2  and  N_3
REMARK    3  A    between atoms: CA_2  and  C_22
REMARK    4  A    between atoms: C_4  and  CA_6
REMARK    5  A    between atoms: CA_6  and  CB_7
REMARK    6  A    between atoms: CA_6  and  N_17
REMARK    7  A    between atoms: CB_7  and  CG_8
REMARK    8  A    between atoms: C_18  and  CA_20
REMARK    9  A    between atoms: CA_20  and  N_21
REMARK   10  A    between atoms: CA_28  and  C_29
REMARK   11  A    between atoms: C_29  and  OXT_31
REMARK                            x       y       z     vdW  Elec       q    Type
REMARK                         _______ _______ _______ _____ _____    ______ ____
ROOT
ATOM      1  CA  TRP A   2       1.403   9.838  19.462  0.00  0.00    +0.000 C 
ENDROOT
BRANCH   1   3
ATOM      2  N   ALA A   3       2.586   7.738  18.834  0.00  0.00    +0.000 N 
ATOM      3  C   TRP A   2       1.984   8.891  18.375  0.00  0.00    +0.000 C 
ATOM      4  O   TRP A   2       1.934   9.192  17.183  0.00  0.00    +0.000 OA
ATOM      5  H   ALA A   3       2.803   7.674  19.815  0.00  0.00    +0.000 HD
BRANCH   2   7
ATOM      6  CB  ALA A   3       4.205   7.093  17.015  0.00  0.00    +0.000 C 
ATOM      7  CA  ALA A   3       3.114   6.659  17.988  0.00  0.00    +0.000 C 
BRANCH   7   8
ATOM      8  C   ALA A   3       3.514   5.477  18.899  0.00  0.00    +0.000 C 
ATOM      9  O   ALA A   3       4.427   5.540  19.727  0.00  0.00    +0.000 OA
ATOM     10  N   PRO A   4       2.741   4.331  18.842  0.00  0.00    +0.000 N 
ATOM     11  CD  PRO A   4       1.736   3.973  17.856  0.00  0.00    +0.000 C 
ATOM     12  CG  PRO A   4       0.697   3.240  18.679  0.00  0.00    +0.000 C 
ATOM     13  CB  PRO A   4       1.529   2.465  19.697  0.00  0.00    +0.000 C 
ATOM     14  CA  PRO A   4       2.818   3.290  19.882  0.00  0.00    +0.000 C 
BRANCH  14  15
ATOM     15  C   PRO A   4       4.081   2.412  19.775  0.00  0.00    +0.000 C 
ATOM     16  O   PRO A   4       4.836   2.160  20.705  0.00  0.00    +0.000 OA
BRANCH  15  17
ATOM     17  OXT PRO A   4       4.347   1.985  18.517  0.00  0.00    +0.000 OA
ATOM     18  HXT PRO A   4       5.318   1.954  18.319  0.00  0.00    +0.000 HD
ENDBRANCH  15  17
ENDBRANCH  14  15
ENDBRANCH   7   8
ENDBRANCH   2   7
ENDBRANCH   1   3
BRANCH   1  19
ATOM     19  N   TRP A   2       1.427  11.198  18.918  0.00  0.00    +0.000 N 
ATOM     20  C   GLY A   1       1.603  12.328  19.674  0.00  0.00    +0.000 C 
ATOM     21  O   GLY A   1       1.815  12.304  20.882  0.00  0.00    +0.000 OA
ATOM     22  H   TRP A   2       1.275  11.323  17.917  0.00  0.00    +0.000 HD
BRANCH  20  23
ATOM     23  CA  GLY A   1       1.440  13.636  18.895  0.00  0.00    +0.000 C 
BRANCH  23  24
ATOM     24  N   GLY A   1       0.028  13.870  18.546  0.00  0.00    +0.000 NA
ATOM     25  H1  GLY A   1      -0.434  12.963  18.459  0.00  0.00    +0.000 HD
ATOM     26  H2  GLY A   1      -0.009  14.285  17.616  0.00  0.00    +0.000 HD
ENDBRANCH  23  24
ENDBRANCH  20  23
ENDBRANCH   1  19
BRANCH   1  27
ATOM     27  CB  TRP A   2       0.005   9.424  19.972  0.00  0.00    +0.000 C 
BRANCH  27  28
ATOM     28  CG  TRP A   2      -1.108  10.350  19.573  0.00  0.00    +0.000 A 
ATOM     29  CD1 TRP A   2      -1.664  11.342  20.359  0.00  0.00    +0.000 A 
ATOM     30  NE1 TRP A   2      -2.603  12.006  19.622  0.00  0.00    +0.000 N 
ATOM     31  CE2 TRP A   2      -2.729  11.426  18.385  0.00  0.00    +0.000 A 
ATOM     32  CZ2 TRP A   2      -3.583  11.756  17.328  0.00  0.00    +0.000 A 
ATOM     33  CH2 TRP A   2      -3.529  10.961  16.181  0.00  0.00    +0.000 A 
ATOM     34  CZ3 TRP A   2      -2.648   9.884  16.097  0.00  0.00    +0.000 A 
ATOM     35  CE3 TRP A   2      -1.791   9.579  17.160  0.00  0.00    +0.000 A 
ATOM     36  CD2 TRP A   2      -1.822  10.368  18.329  0.00  0.00    +0.000 A 
ATOM     37  HE1 TRP A   2      -3.143  12.796  19.945  0.00  0.00    +0.000 HD
ENDBRANCH  27  28
ENDBRANCH   1  27
TORSDOF 10
ENDMDL
MODEL 5
REMARK VINA RESULT:      -7.5      2.137      2.742
REMARK  Name = 
REMARK  11 active torsions:
REMARK  status: ('A' for Active; 'I' for Inactive)
REMARK    1  A    between atoms: CB_1  and  CA_2
REMARK    2  A    between atoms: CA_2  and  N_3
REMARK    3  A    between atoms: CA_2  and  C_22
REMARK    4  A    between atoms: C_4  and  CA_6
REMARK    5  A    between atoms: CA_6  and  CB_7
REMARK    6  A    between atoms: CA_6  and  N_17
REMARK    7  A    between atoms: CB_7  and  CG_8
REMARK    8  A    between atoms: C_18  and  CA_20
REMARK    9  A    between atoms: CA_20  and  N_21
REMARK   10  A    between atoms: CA_28  and  C_29
REMARK   11  A    between atoms: C_29  and  OXT_31
REMARK                            x       y       z     vdW  Elec       q    Type
REMARK                         _______ _______ _______ _____ _____    ______ ____
ROOT
ATOM      1  CA  TRP A   2       1.257  10.122  18.691  0.00  0.00    +0.000 C 
ENDROOT
BRANCH   1   3
ATOM      2  N   ALA A   3       2.191   7.840  19.052  0.00  0.00    +0.000 N 
ATOM      3  C   TRP A   2       2.020   8.878  18.158  0.00  0.00    +0.000 C 
ATOM      4  O   TRP A   2       2.473   8.856  17.014  0.00  0.00    +0.000 OA
ATOM      5  H   ALA A   3       2.010   8.021  20.027  0.00  0.00    +0.000 HD
BRANCH   2   7
ATOM      6  CB  ALA A   3       4.315   6.542  18.679  0.00  0.00    +0.000 C 
ATOM      7  CA  ALA A   3       2.793   6.538  18.740  0.00  0.00    +0.000 C 
BRANCH   7   8
ATOM      8  C   ALA A   3       2.202   5.485  19.704  0.00  0.00    +0.000 C 
ATOM      9  O   ALA A   3       1.599   5.779  20.740  0.00  0.00    +0.000 OA
ATOM     10  N   PRO A   4       2.274   4.155  19.328  0.00  0.00    +0.000 N 
ATOM     11  CD  PRO A   4       3.057   3.566  18.255  0.00  0.00    +0.000 C 
ATOM     12  CG  PRO A   4       2.157   2.462  17.743  0.00  0.00    +0.000 C 
ATOM     13  CB  PRO A   4       1.492   1.926  19.008  0.00  0.00    +0.000 C 
ATOM     14  CA  PRO A   4       1.464   3.117  19.988  0.00  0.00    +0.000 C 
BRANCH  14  15
ATOM     15  C   PRO A   4       1.994   2.723  21.382  0.00  0.00    +0.000 C 
ATOM     16  O   PRO A   4       1.292   2.535  22.366  0.00  0.00    +0.000 OA
BRANCH  15  17
ATOM     17  OXT PRO A   4       3.345   2.671  21.461  0.00  0.00    +0.000 OA
ATOM     18  HXT PRO A   4       3.665   2.041  22.155  0.00  0.00    +0.000 HD
ENDBRANCH  15  17
ENDBRANCH  14  15
ENDBRANCH   7   8
ENDBRANCH   2   7
ENDBRANCH   1   3
BRANCH   1  19
ATOM     19  N   TRP A   2       1.928  11.310  18.160  0.00  0.00    +0.000 N 
ATOM     20  C   GLY A   1       2.158  12.453  18.881  0.00  0.00    +0.000 C 
ATOM     21  O   GLY A   1       1.870  12.571  20.067  0.00  0.00    +0.000 OA
ATOM     22  H   TRP A   2       2.221  11.305  17.182  0.00  0.00    +0.000 HD
BRANCH  20  23
ATOM     23  CA  GLY A   1       2.741  13.607  18.059  0.00  0.00    +0.000 C 
BRANCH  23  24
ATOM     24  N   GLY A   1       3.433  14.575  18.927  0.00  0.00    +0.000 NA
ATOM     25  H1  GLY A   1       2.934  14.619  19.819  0.00  0.00    +0.000 HD
ATOM     26  H2  GLY A   1       3.337  15.502  18.516  0.00  0.00    +0.000 HD
ENDBRANCH  23  24
ENDBRANCH  20  23
ENDBRANCH   1  19
BRANCH   1  27
ATOM     27  CB  TRP A   2      -0.258  10.105  18.386  0.00  0.00    +0.000 C 
BRANCH  27  28
ATOM     28  CG  TRP A   2      -1.054  11.157  19.104  0.00  0.00    +0.000 A 
ATOM     29  CD1 TRP A   2      -1.782  12.173  18.513  0.00  0.00    +0.000 A 
ATOM     30  NE1 TRP A   2      -2.415  12.882  19.494  0.00  0.00    +0.000 N 
ATOM     31  CE2 TRP A   2      -2.062  12.398  20.729  0.00  0.00    +0.000 A 
ATOM     32  CZ2 TRP A   2      -2.443  12.837  22.001  0.00  0.00    +0.000 A 
ATOM     33  CH2 TRP A   2      -1.894  12.178  23.103  0.00  0.00    +0.000 A 
ATOM     34  CZ3 TRP A   2      -1.005  11.119  22.933  0.00  0.00    +0.000 A 
ATOM     35  CE3 TRP A   2      -0.647  10.685  21.653  0.00  0.00    +0.000 A 
ATOM     36  CD2 TRP A   2      -1.189  11.330  20.521  0.00  0.00    +0.000 A 
ATOM     37  HE1 TRP A   2      -3.036  13.663  19.338  0.00  0.00    +0.000 HD
ENDBRANCH  27  28
ENDBRANCH   1  27
TORSDOF 10
ENDMDL
MODEL 6
REMARK VINA RESULT:      -7.4      1.226      2.416
REMARK  Name = 
REMARK  11 active torsions:
REMARK  status: ('A' for Active; 'I' for Inactive)
REMARK    1  A    between atoms: CB_1  and  CA_2
REMARK    2  A    between atoms: CA_2  and  N_3
REMARK    3  A    between atoms: CA_2  and  C_22
REMARK    4  A    between atoms: C_4  and  CA_6
REMARK    5  A    between atoms: CA_6  and  CB_7
REMARK    6  A    between atoms: CA_6  and  N_17
REMARK    7  A    between atoms: CB_7  and  CG_8
REMARK    8  A    between atoms: C_18  and  CA_20
REMARK    9  A    between atoms: CA_20  and  N_21
REMARK   10  A    between atoms: CA_28  and  C_29
REMARK   11  A    between atoms: C_29  and  OXT_31
REMARK                            x       y       z     vdW  Elec       q    Type
REMARK                         _______ _______ _______ _____ _____    ______ ____
ROOT
ATOM      1  CA  TRP A   2       0.701   9.545  19.178  0.00  0.00    +0.000 C 
ENDROOT
BRANCH   1   3
ATOM      2  N   ALA A   3       2.099   7.514  18.821  0.00  0.00    +0.000 N 
ATOM      3  C   TRP A   2       1.743   8.756  18.338  0.00  0.00    +0.000 C 
ATOM      4  O   TRP A   2       2.240   9.247  17.324  0.00  0.00    +0.000 OA
ATOM      5  H   ALA A   3       1.840   7.282  19.766  0.00  0.00    +0.000 HD
BRANCH   2   7
ATOM      6  CB  ALA A   3       4.152   7.198  17.399  0.00  0.00    +0.000 C 
ATOM      7  CA  ALA A   3       2.987   6.560  18.146  0.00  0.00    +0.000 C 
BRANCH   7   8
ATOM      8  C   ALA A   3       3.407   5.478  19.166  0.00  0.00    +0.000 C 
ATOM      9  O   ALA A   3       4.277   5.659  20.023  0.00  0.00    +0.000 OA
ATOM     10  N   PRO A   4       2.700   4.289  19.171  0.00  0.00    +0.000 N 
ATOM     11  CD  PRO A   4       1.762   3.797  18.177  0.00  0.00    +0.000 C 
ATOM     12  CG  PRO A   4       0.727   3.073  19.014  0.00  0.00    +0.000 C 
ATOM     13  CB  PRO A   4       1.552   2.430  20.125  0.00  0.00    +0.000 C 
ATOM     14  CA  PRO A   4       2.785   3.340  20.295  0.00  0.00    +0.000 C 
BRANCH  14  15
ATOM     15  C   PRO A   4       4.097   2.530  20.312  0.00  0.00    +0.000 C 
ATOM     16  O   PRO A   4       4.872   2.440  19.370  0.00  0.00    +0.000 OA
BRANCH  15  17
ATOM     17  OXT PRO A   4       4.300   1.839  21.459  0.00  0.00    +0.000 OA
ATOM     18  HXT PRO A   4       4.916   2.302  22.083  0.00  0.00    +0.000 HD
ENDBRANCH  15  17
ENDBRANCH  14  15
ENDBRANCH   7   8
ENDBRANCH   2   7
ENDBRANCH   1   3
BRANCH   1  19
ATOM     19  N   TRP A   2       1.140   9.503  20.575  0.00  0.00    +0.000 N 
ATOM     20  C   GLY A   1       0.402   8.967  21.599  0.00  0.00    +0.000 C 
ATOM     21  O   GLY A   1      -0.681   8.416  21.433  0.00  0.00    +0.000 OA
ATOM     22  H   TRP A   2       2.039   9.923  20.814  0.00  0.00    +0.000 HD
BRANCH  20  23
ATOM     23  CA  GLY A   1       1.012   9.176  22.988  0.00  0.00    +0.000 C 
BRANCH  23  24
ATOM     24  N   GLY A   1       2.471   9.360  22.901  0.00  0.00    +0.000 NA
ATOM     25  H1  GLY A   1       2.654  10.287  22.510  0.00  0.00    +0.000 HD
ATOM     26  H2  GLY A   1       2.839   8.699  22.218  0.00  0.00    +0.000 HD
ENDBRANCH  23  24
ENDBRANCH  20  23
ENDBRANCH   1  19
BRANCH   1  27
ATOM     27  CB  TRP A   2       0.451  10.984  18.675  0.00  0.00    +0.000 C 
BRANCH  27  28
ATOM     28  CG  TRP A   2      -0.991  11.407  18.674  0.00  0.00    +0.000 A 
ATOM     29  CD1 TRP A   2      -1.603  12.217  19.610  0.00  0.00    +0.000 A 
ATOM     30  NE1 TRP A   2      -2.899  12.422  19.229  0.00  0.00    +0.000 N 
ATOM     31  CE2 TRP A   2      -3.175  11.703  18.093  0.00  0.00    +0.000 A 
ATOM     32  CZ2 TRP A   2      -4.371  11.592  17.377  0.00  0.00    +0.000 A 
ATOM     33  CH2 TRP A   2      -4.382  10.748  16.265  0.00  0.00    +0.000 A 
ATOM     34  CZ3 TRP A   2      -3.238  10.050  15.884  0.00  0.00    +0.000 A 
ATOM     35  CE3 TRP A   2      -2.047  10.186  16.605  0.00  0.00    +0.000 A 
ATOM     36  CD2 TRP A   2      -2.006  11.035  17.731  0.00  0.00    +0.000 A 
ATOM     37  HE1 TRP A   2      -3.565  13.000  19.721  0.00  0.00    +0.000 HD
ENDBRANCH  27  28
ENDBRANCH   1  27
TORSDOF 10
ENDMDL
MODEL 7
REMARK VINA RESULT:      -7.3      3.096      9.079
REMARK  Name = 
REMARK  11 active torsions:
REMARK  status: ('A' for Active; 'I' for Inactive)
REMARK    1  A    between atoms: CB_1  and  CA_2
REMARK    2  A    between atoms: CA_2  and  N_3
REMARK    3  A    between atoms: CA_2  and  C_22
REMARK    4  A    between atoms: C_4  and  CA_6
REMARK    5  A    between atoms: CA_6  and  CB_7
REMARK    6  A    between atoms: CA_6  and  N_17
REMARK    7  A    between atoms: CB_7  and  CG_8
REMARK    8  A    between atoms: C_18  and  CA_20
REMARK    9  A    between atoms: CA_20  and  N_21
REMARK   10  A    between atoms: CA_28  and  C_29
REMARK   11  A    between atoms: C_29  and  OXT_31
REMARK                            x       y       z     vdW  Elec       q    Type
REMARK                         _______ _______ _______ _____ _____    ______ ____
ROOT
ATOM      1  CA  TRP A   2       4.395   5.054  17.948  0.00  0.00    +0.000 C 
ENDROOT
BRANCH   1   3
ATOM      2  N   ALA A   3       2.774   6.877  18.453  0.00  0.00    +0.000 N 
ATOM      3  C   TRP A   2       3.972   6.546  17.853  0.00  0.00    +0.000 C 
ATOM      4  O   TRP A   2       4.660   7.361  17.239  0.00  0.00    +0.000 OA
ATOM      5  H   ALA A   3       2.157   6.128  18.722  0.00  0.00    +0.000 HD
BRANCH   2   7
ATOM      6  CB  ALA A   3       1.250   8.623  17.468  0.00  0.00    +0.000 C 
ATOM      7  CA  ALA A   3       2.228   8.235  18.571  0.00  0.00    +0.000 C 
BRANCH   7   8
ATOM      8  C   ALA A   3       1.670   8.413  20.000  0.00  0.00    +0.000 C 
ATOM      9  O   ALA A   3       1.904   7.625  20.921  0.00  0.00    +0.000 OA
ATOM     10  N   PRO A   4       0.953   9.565  20.273  0.00  0.00    +0.000 N 
ATOM     11  CD  PRO A   4       0.426  10.539  19.333  0.00  0.00    +0.000 C 
ATOM     12  CG  PRO A   4       0.589  11.850  20.074  0.00  0.00    +0.000 C 
ATOM     13  CB  PRO A   4       0.287  11.482  21.524  0.00  0.00    +0.000 C 
ATOM     14  CA  PRO A   4       0.670   9.994  21.654  0.00  0.00    +0.000 C 
BRANCH  14  15
ATOM     15  C   PRO A   4      -0.446   9.173  22.332  0.00  0.00    +0.000 C 
ATOM     16  O   PRO A   4      -0.983   8.189  21.841  0.00  0.00    +0.000 OA
BRANCH  15  17
ATOM     17  OXT PRO A   4      -0.856   9.679  23.519  0.00  0.00    +0.000 OA
ATOM     18  HXT PRO A   4      -0.823   9.014  24.253  0.00  0.00    +0.000 HD
ENDBRANCH  15  17
ENDBRANCH  14  15
ENDBRANCH   7   8
ENDBRANCH   2   7
ENDBRANCH   1   3
BRANCH   1  19
ATOM     19  N   TRP A   2       3.502   4.404  18.910  0.00  0.00    +0.000 N 
ATOM     20  C   GLY A   1       3.871   3.362  19.722  0.00  0.00    +0.000 C 
ATOM     21  O   GLY A   1       5.009   2.908  19.760  0.00  0.00    +0.000 OA
ATOM     22  H   TRP A   2       2.534   4.722  18.965  0.00  0.00    +0.000 HD
BRANCH  20  23
ATOM     23  CA  GLY A   1       2.719   2.760  20.531  0.00  0.00    +0.000 C 
BRANCH  23  24
ATOM     24  N   GLY A   1       2.236   3.709  21.550  0.00  0.00    +0.000 NA
ATOM     25  H1  GLY A   1       2.184   3.218  22.445  0.00  0.00    +0.000 HD
ATOM     26  H2  GLY A   1       1.276   3.964  21.323  0.00  0.00    +0.000 HD
ENDBRANCH  23  24
ENDBRANCH  20  23
ENDBRANCH   1  19
BRANCH   1  27
ATOM     27  CB  TRP A   2       4.434   4.327  16.585  0.00  0.00    +0.000 C 
BRANCH  27  28
ATOM     28  CG  TRP A   2       5.633   4.647  15.738  0.00  0.00    +0.000 A 
ATOM     29  CD1 TRP A   2       6.743   5.368  16.134  0.00  0.00    +0.000 A 
ATOM     30  NE1 TRP A   2       7.640   5.388  15.104  0.00  0.00    +0.000 N 
ATOM     31  CE2 TRP A   2       7.113   4.753  14.007  0.00  0.00    +0.000 A 
ATOM     32  CZ2 TRP A   2       7.664   4.565  12.736  0.00  0.00    +0.000 A 
ATOM     33  CH2 TRP A   2       6.882   3.910  11.784  0.00  0.00    +0.000 A 
ATOM     34  CZ3 TRP A   2       5.602   3.456  12.097  0.00  0.00    +0.000 A 
ATOM     35  CE3 TRP A   2       5.075   3.641  13.379  0.00  0.00    +0.000 A 
ATOM     36  CD2 TRP A   2       5.844   4.297  14.363  0.00  0.00    +0.000 A 
ATOM     37  HE1 TRP A   2       8.550   5.824  15.135  0.00  0.00    +0.000 HD
ENDBRANCH  27  28
ENDBRANCH   1  27
TORSDOF 10
ENDMDL
MODEL 8
REMARK VINA RESULT:      -7.3      2.101      3.067
REMARK  Name = 
REMARK  11 active torsions:
REMARK  status: ('A' for Active; 'I' for Inactive)
REMARK    1  A    between atoms: CB_1  and  CA_2
REMARK    2  A    between atoms: CA_2  and  N_3
REMARK    3  A    between atoms: CA_2  and  C_22
REMARK    4  A    between atoms: C_4  and  CA_6
REMARK    5  A    between atoms: CA_6  and  CB_7
REMARK    6  A    between atoms: CA_6  and  N_17
REMARK    7  A    between atoms: CB_7  and  CG_8
REMARK    8  A    between atoms: C_18  and  CA_20
REMARK    9  A    between atoms: CA_20  and  N_21
REMARK   10  A    between atoms: CA_28  and  C_29
REMARK   11  A    between atoms: C_29  and  OXT_31
REMARK                            x       y       z     vdW  Elec       q    Type
REMARK                         _______ _______ _______ _____ _____    ______ ____
ROOT
ATOM      1  CA  TRP A   2       1.178  10.289  19.325  0.00  0.00    +0.000 C 
ENDROOT
BRANCH   1   3
ATOM      2  N   ALA A   3       2.123   7.989  19.173  0.00  0.00    +0.000 N 
ATOM      3  C   TRP A   2       1.711   9.104  18.473  0.00  0.00    +0.000 C 
ATOM      4  O   TRP A   2       1.790   9.192  17.248  0.00  0.00    +0.000 OA
ATOM      5  H   ALA A   3       2.255   8.076  20.168  0.00  0.00    +0.000 HD
BRANCH   2   7
ATOM      6  CB  ALA A   3       3.997   6.745  18.040  0.00  0.00    +0.000 C 
ATOM      7  CA  ALA A   3       2.570   6.724  18.575  0.00  0.00    +0.000 C 
BRANCH   7   8
ATOM      8  C   ALA A   3       2.287   5.584  19.578  0.00  0.00    +0.000 C 
ATOM      9  O   ALA A   3       1.796   5.772  20.694  0.00  0.00    +0.000 OA
ATOM     10  N   PRO A   4       2.510   4.285  19.156  0.00  0.00    +0.000 N 
ATOM     11  CD  PRO A   4       3.216   3.835  17.969  0.00  0.00    +0.000 C 
ATOM     12  CG  PRO A   4       2.434   2.607  17.551  0.00  0.00    +0.000 C 
ATOM     13  CB  PRO A   4       2.041   1.964  18.878  0.00  0.00    +0.000 C 
ATOM     14  CA  PRO A   4       1.968   3.127  19.889  0.00  0.00    +0.000 C 
BRANCH  14  15
ATOM     15  C   PRO A   4       2.740   2.810  21.185  0.00  0.00    +0.000 C 
ATOM     16  O   PRO A   4       3.802   2.204  21.233  0.00  0.00    +0.000 OA
BRANCH  15  17
ATOM     17  OXT PRO A   4       2.099   3.196  22.314  0.00  0.00    +0.000 OA
ATOM     18  HXT PRO A   4       1.217   3.609  22.133  0.00  0.00    +0.000 HD
ENDBRANCH  15  17
ENDBRANCH  14  15
ENDBRANCH   7   8
ENDBRANCH   2   7
ENDBRANCH   1   3
BRANCH   1  19
ATOM     19  N   TRP A   2       1.633  11.527  18.689  0.00  0.00    +0.000 N 
ATOM     20  C   GLY A   1       1.954  12.672  19.373  0.00  0.00    +0.000 C 
ATOM     21  O   GLY A   1       1.944  12.751  20.596  0.00  0.00    +0.000 OA
ATOM     22  H   TRP A   2       1.690  11.557  17.671  0.00  0.00    +0.000 HD
BRANCH  20  23
ATOM     23  CA  GLY A   1       2.259  13.874  18.474  0.00  0.00    +0.000 C 
BRANCH  23  24
ATOM     24  N   GLY A   1       3.541  13.695  17.770  0.00  0.00    +0.000 NA
ATOM     25  H1  GLY A   1       3.839  12.724  17.891  0.00  0.00    +0.000 HD
ATOM     26  H2  GLY A   1       4.248  14.257  18.242  0.00  0.00    +0.000 HD
ENDBRANCH  23  24
ENDBRANCH  20  23
ENDBRANCH   1  19
BRANCH   1  27
ATOM     27  CB  TRP A   2      -0.351  10.260  19.549  0.00  0.00    +0.000 C 
BRANCH  27  28
ATOM     28  CG  TRP A   2      -0.793  10.701  20.916  0.00  0.00    +0.000 A 
ATOM     29  CD1 TRP A   2      -0.471  10.091  22.113  0.00  0.00    +0.000 A 
ATOM     30  NE1 TRP A   2      -1.008  10.824  23.133  0.00  0.00    +0.000 N 
ATOM     31  CE2 TRP A   2      -1.741  11.869  22.629  0.00  0.00    +0.000 A 
ATOM     32  CZ2 TRP A   2      -2.481  12.845  23.301  0.00  0.00    +0.000 A 
ATOM     33  CH2 TRP A   2      -3.172  13.779  22.527  0.00  0.00    +0.000 A 
ATOM     34  CZ3 TRP A   2      -3.116  13.738  21.136  0.00  0.00    +0.000 A 
ATOM     35  CE3 TRP A   2      -2.359  12.761  20.481  0.00  0.00    +0.000 A 
ATOM     36  CD2 TRP A   2      -1.647  11.807  21.238  0.00  0.00    +0.000 A 
ATOM     37  HE1 TRP A   2      -0.902  10.616  24.116  0.00  0.00    +0.000 HD
ENDBRANCH  27  28
ENDBRANCH   1  27
TORSDOF 10
ENDMDL
MODEL 9
REMARK VINA RESULT:      -7.3      2.648      9.103
REMARK  Name = 
REMARK  11 active torsions:
REMARK  status: ('A' for Active; 'I' for Inactive)
REMARK    1  A    between atoms: CB_1  and  CA_2
REMARK    2  A    between atoms: CA_2  and  N_3
REMARK    3  A    between atoms: CA_2  and  C_22
REMARK    4  A    between atoms: C_4  and  CA_6
REMARK    5  A    between atoms: CA_6  and  CB_7
REMARK    6  A    between atoms: CA_6  and  N_17
REMARK    7  A    between atoms: CB_7  and  CG_8
REMARK    8  A    between atoms: C_18  and  CA_20
REMARK    9  A    between atoms: CA_20  and  N_21
REMARK   10  A    between atoms: CA_28  and  C_29
REMARK   11  A    between atoms: C_29  and  OXT_31
REMARK                            x       y       z     vdW  Elec       q    Type
REMARK                         _______ _______ _______ _____ _____    ______ ____
ROOT
ATOM      1  CA  TRP A   2       3.508   5.826  18.981  0.00  0.00    +0.000 C 
ENDROOT
BRANCH   1   3
ATOM      2  N   ALA A   3       2.229   7.725  19.964  0.00  0.00    +0.000 N 
ATOM      3  C   TRP A   2       2.366   6.354  19.893  0.00  0.00    +0.000 C 
ATOM      4  O   TRP A   2       1.661   5.578  20.538  0.00  0.00    +0.000 OA
ATOM      5  H   ALA A   3       2.979   8.295  19.607  0.00  0.00    +0.000 HD
BRANCH   2   7
ATOM      6  CB  ALA A   3       1.563   8.948  22.062  0.00  0.00    +0.000 C 
ATOM      7  CA  ALA A   3       1.165   8.439  20.682  0.00  0.00    +0.000 C 
BRANCH   7   8
ATOM      8  C   ALA A   3       0.593   9.529  19.748  0.00  0.00    +0.000 C 
ATOM      9  O   ALA A   3       0.623   9.447  18.516  0.00  0.00    +0.000 OA
ATOM     10  N   PRO A   4      -0.067  10.595  20.331  0.00  0.00    +0.000 N 
ATOM     11  CD  PRO A   4      -0.092  10.979  21.732  0.00  0.00    +0.000 C 
ATOM     12  CG  PRO A   4      -1.501  11.502  21.918  0.00  0.00    +0.000 C 
ATOM     13  CB  PRO A   4      -1.794  12.216  20.602  0.00  0.00    +0.000 C 
ATOM     14  CA  PRO A   4      -0.928  11.499  19.547  0.00  0.00    +0.000 C 
BRANCH  14  15
ATOM     15  C   PRO A   4      -0.135  12.498  18.681  0.00  0.00    +0.000 C 
ATOM     16  O   PRO A   4       0.998  12.888  18.928  0.00  0.00    +0.000 OA
BRANCH  15  17
ATOM     17  OXT PRO A   4      -0.834  12.988  17.630  0.00  0.00    +0.000 OA
ATOM     18  HXT PRO A   4      -1.180  13.903  17.791  0.00  0.00    +0.000 HD
ENDBRANCH  15  17
ENDBRANCH  14  15
ENDBRANCH   7   8
ENDBRANCH   2   7
ENDBRANCH   1   3
BRANCH   1  19
ATOM     19  N   TRP A   2       3.137   4.477  18.549  0.00  0.00    +0.000 N 
ATOM     20  C   GLY A   1       3.905   3.361  18.762  0.00  0.00    +0.000 C 
ATOM     21  O   GLY A   1       4.959   3.378  19.389  0.00  0.00    +0.000 OA
ATOM     22  H   TRP A   2       2.266   4.355  18.032  0.00  0.00    +0.000 HD
BRANCH  20  23
ATOM     23  CA  GLY A   1       3.372   2.094  18.086  0.00  0.00    +0.000 C 
BRANCH  23  24
ATOM     24  N   GLY A   1       1.905   2.139  17.964  0.00  0.00    +0.000 NA
ATOM     25  H1  GLY A   1       1.659   1.958  16.988  0.00  0.00    +0.000 HD
ATOM     26  H2  GLY A   1       1.595   3.092  18.149  0.00  0.00    +0.000 HD
ENDBRANCH  23  24
ENDBRANCH  20  23
ENDBRANCH   1  19
BRANCH   1  27
ATOM     27  CB  TRP A   2       3.846   6.760  17.798  0.00  0.00    +0.000 C 
BRANCH  27  28
ATOM     28  CG  TRP A   2       5.183   6.507  17.161  0.00  0.00    +0.000 A 
ATOM     29  CD1 TRP A   2       6.373   7.125  17.492  0.00  0.00    +0.000 A 
ATOM     30  NE1 TRP A   2       7.372   6.582  16.735  0.00  0.00    +0.000 N 
ATOM     31  CE2 TRP A   2       6.851   5.664  15.857  0.00  0.00    +0.000 A 
ATOM     32  CZ2 TRP A   2       7.497   4.896  14.883  0.00  0.00    +0.000 A 
ATOM     33  CH2 TRP A   2       6.707   4.060  14.091  0.00  0.00    +0.000 A 
ATOM     34  CZ3 TRP A   2       5.328   3.994  14.274  0.00  0.00    +0.000 A 
ATOM     35  CE3 TRP A   2       4.702   4.760  15.263  0.00  0.00    +0.000 A 
ATOM     36  CD2 TRP A   2       5.476   5.610  16.081  0.00  0.00    +0.000 A 
ATOM     37  HE1 TRP A   2       8.348   6.832  16.794  0.00  0.00    +0.000 HD
ENDBRANCH  27  28
ENDBRANCH   1  27
TORSDOF 10
ENDMDL
