MODEL 1
REMARK VINA RESULT:      -6.7      0.000      0.000
REMARK  Name = 
REMARK  5 active torsions:
REMARK  status: ('A' for Active; 'I' for Inactive)
REMARK    1  A    between atoms: C_1  and  C_2
REMARK    2  A    between atoms: C_6  and  C_8
REMARK    3  A    between atoms: C_8  and  C_9
REMARK    4  A    between atoms: N_11  and  C_12
REMARK    5  A    between atoms: C_17  and  C_18
REMARK                            x       y       z     vdW  Elec       q    Type
REMARK                         _______ _______ _______ _____ _____    ______ ____
ROOT
ATOM      1  C   UNL     1      -0.294  10.309  22.736  0.00  0.00    +0.000 C 
ATOM      2  C   UNL     1       0.353   9.752  21.517  0.00  0.00    +0.000 A 
ATOM      3  N   UNL     1       0.873   8.463  21.540  0.00  0.00    +0.000 NA
ATOM      4  C   UNL     1       1.448   8.182  20.394  0.00  0.00    +0.000 A 
ATOM      5  N   UNL     1       2.082   6.989  20.171  0.00  0.00    +0.000 N 
ATOM      6  C   UNL     1       2.848   6.621  19.065  0.00  0.00    +0.000 C 
ATOM      7  O   UNL     1       3.092   7.318  18.085  0.00  0.00    +0.000 OA
ATOM      8  S   UNL     1       1.332   9.389  19.205  0.00  0.00    +0.000 S 
ATOM      9  C   UNL     1       0.527  10.413  20.312  0.00  0.00    +0.000 A 
ATOM     10  C   UNL     1       0.140  11.800  19.928  0.00  0.00    +0.000 C 
ATOM     11  H   UNL     1       2.056   6.349  20.954  0.00  0.00    +0.000 HD
ENDROOT
BRANCH   6  12
ATOM     12  C   UNL     1       3.344   5.155  19.175  0.00  0.00    +0.000 C 
ATOM     13  C   UNL     1       4.882   5.248  19.248  0.00  0.00    +0.000 C 
ATOM     14  C   UNL     1       2.893   4.359  20.438  0.00  0.00    +0.000 C 
ATOM     15  N   UNL     1       1.523   3.799  20.443  0.00  0.00    +0.000 NA
ATOM     16  C   UNL     1       1.419   2.741  21.458  0.00  0.00    +0.000 C 
ATOM     17  C   UNL     1       1.157   3.258  19.124  0.00  0.00    +0.000 C 
ATOM     18  C   UNL     1       1.556   4.186  17.972  0.00  0.00    +0.000 C 
ATOM     19  O   UNL     1       2.975   4.444  17.975  0.00  0.00    +0.000 OA
ENDBRANCH   6  12
TORSDOF 1
ENDMDL
MODEL 2
REMARK VINA RESULT:      -6.4      1.902      2.201
REMARK  Name = 
REMARK  5 active torsions:
REMARK  status: ('A' for Active; 'I' for Inactive)
REMARK    1  A    between atoms: C_1  and  C_2
REMARK    2  A    between atoms: C_6  and  C_8
REMARK    3  A    between atoms: C_8  and  C_9
REMARK    4  A    between atoms: N_11  and  C_12
REMARK    5  A    between atoms: C_17  and  C_18
REMARK                            x       y       z     vdW  Elec       q    Type
REMARK                         _______ _______ _______ _____ _____    ______ ____
ROOT
ATOM      1  C   UNL     1       0.541   8.725  21.731  0.00  0.00    +0.000 C 
ATOM      2  C   UNL     1       1.244   8.424  20.454  0.00  0.00    +0.000 A 
ATOM      3  N   UNL     1       2.016   7.273  20.347  0.00  0.00    +0.000 NA
ATOM      4  C   UNL     1       2.594   7.219  19.170  0.00  0.00    +0.000 A 
ATOM      5  N   UNL     1       3.449   6.206  18.824  0.00  0.00    +0.000 N 
ATOM      6  C   UNL     1       4.234   6.104  17.676  0.00  0.00    +0.000 C 
ATOM      7  O   UNL     1       4.297   6.921  16.762  0.00  0.00    +0.000 OA
ATOM      8  S   UNL     1       2.193   8.477  18.102  0.00  0.00    +0.000 S 
ATOM      9  C   UNL     1       1.237   9.212  19.315  0.00  0.00    +0.000 A 
ATOM     10  C   UNL     1       0.563  10.518  19.070  0.00  0.00    +0.000 C 
ATOM     11  H   UNL     1       3.581   5.508  19.544  0.00  0.00    +0.000 HD
ENDROOT
BRANCH   6  12
ATOM     12  C   UNL     1       5.022   4.768  17.639  0.00  0.00    +0.000 C 
ATOM     13  C   UNL     1       6.459   5.150  17.229  0.00  0.00    +0.000 C 
ATOM     14  C   UNL     1       5.142   3.992  18.986  0.00  0.00    +0.000 C 
ATOM     15  N   UNL     1       3.978   3.188  19.422  0.00  0.00    +0.000 NA
ATOM     16  C   UNL     1       4.399   2.203  20.429  0.00  0.00    +0.000 C 
ATOM     17  C   UNL     1       3.345   2.497  18.287  0.00  0.00    +0.000 C 
ATOM     18  C   UNL     1       3.183   3.401  17.060  0.00  0.00    +0.000 C 
ATOM     19  O   UNL     1       4.455   3.918  16.619  0.00  0.00    +0.000 OA
ENDBRANCH   6  12
TORSDOF 1
ENDMDL
MODEL 3
REMARK VINA RESULT:      -6.2      4.732      7.328
REMARK  Name = 
REMARK  5 active torsions:
REMARK  status: ('A' for Active; 'I' for Inactive)
REMARK    1  A    between atoms: C_1  and  C_2
REMARK    2  A    between atoms: C_6  and  C_8
REMARK    3  A    between atoms: C_8  and  C_9
REMARK    4  A    between atoms: N_11  and  C_12
REMARK    5  A    between atoms: C_17  and  C_18
REMARK                            x       y       z     vdW  Elec       q    Type
REMARK                         _______ _______ _______ _____ _____    ______ ____
ROOT
ATOM      1  C   UNL     1       8.611   5.688  12.906  0.00  0.00    +0.000 C 
ATOM      2  C   UNL     1       7.509   5.074  13.695  0.00  0.00    +0.000 A 
ATOM      3  N   UNL     1       7.386   5.363  15.049  0.00  0.00    +0.000 NA
ATOM      4  C   UNL     1       6.394   4.682  15.573  0.00  0.00    +0.000 A 
ATOM      5  N   UNL     1       6.088   4.749  16.907  0.00  0.00    +0.000 N 
ATOM      6  C   UNL     1       5.165   3.979  17.613  0.00  0.00    +0.000 C 
ATOM      7  O   UNL     1       4.455   3.090  17.152  0.00  0.00    +0.000 OA
ATOM      8  S   UNL     1       5.505   3.732  14.482  0.00  0.00    +0.000 S 
ATOM      9  C   UNL     1       6.563   4.183  13.216  0.00  0.00    +0.000 A 
ATOM     10  C   UNL     1       6.401   3.617  11.847  0.00  0.00    +0.000 C 
ATOM     11  H   UNL     1       6.681   5.372  17.439  0.00  0.00    +0.000 HD
ENDROOT
BRANCH   6  12
ATOM     12  C   UNL     1       5.079   4.410  19.100  0.00  0.00    +0.000 C 
ATOM     13  C   UNL     1       6.224   5.424  19.301  0.00  0.00    +0.000 C 
ATOM     14  C   UNL     1       3.770   5.133  19.543  0.00  0.00    +0.000 C 
ATOM     15  N   UNL     1       2.581   4.295  19.812  0.00  0.00    +0.000 NA
ATOM     16  C   UNL     1       1.611   5.048  20.620  0.00  0.00    +0.000 C 
ATOM     17  C   UNL     1       2.943   3.050  20.507  0.00  0.00    +0.000 C 
ATOM     18  C   UNL     1       4.183   2.377  19.906  0.00  0.00    +0.000 C 
ATOM     19  O   UNL     1       5.324   3.258  19.936  0.00  0.00    +0.000 OA
ENDBRANCH   6  12
TORSDOF 1
ENDMDL
MODEL 4
REMARK VINA RESULT:      -6.2      2.478      3.867
REMARK  Name = 
REMARK  5 active torsions:
REMARK  status: ('A' for Active; 'I' for Inactive)
REMARK    1  A    between atoms: C_1  and  C_2
REMARK    2  A    between atoms: C_6  and  C_8
REMARK    3  A    between atoms: C_8  and  C_9
REMARK    4  A    between atoms: N_11  and  C_12
REMARK    5  A    between atoms: C_17  and  C_18
REMARK                            x       y       z     vdW  Elec       q    Type
REMARK                         _______ _______ _______ _____ _____    ______ ____
ROOT
ATOM      1  C   UNL     1       1.277  10.215  18.030  0.00  0.00    +0.000 C 
ATOM      2  C   UNL     1       1.614   9.004  18.826  0.00  0.00    +0.000 A 
ATOM      3  N   UNL     1       2.378   7.993  18.254  0.00  0.00    +0.000 NA
ATOM      4  C   UNL     1       2.514   6.993  19.094  0.00  0.00    +0.000 A 
ATOM      5  N   UNL     1       3.186   5.847  18.759  0.00  0.00    +0.000 N 
ATOM      6  C   UNL     1       3.281   4.666  19.493  0.00  0.00    +0.000 C 
ATOM      7  O   UNL     1       2.768   4.445  20.586  0.00  0.00    +0.000 OA
ATOM      8  S   UNL     1       1.822   7.228  20.627  0.00  0.00    +0.000 S 
ATOM      9  C   UNL     1       1.211   8.745  20.126  0.00  0.00    +0.000 A 
ATOM     10  C   UNL     1       0.365   9.566  21.037  0.00  0.00    +0.000 C 
ATOM     11  H   UNL     1       3.571   5.848  17.823  0.00  0.00    +0.000 HD
ENDROOT
BRANCH   6  12
ATOM     12  C   UNL     1       4.185   3.623  18.785  0.00  0.00    +0.000 C 
ATOM     13  C   UNL     1       3.553   2.252  19.098  0.00  0.00    +0.000 C 
ATOM     14  C   UNL     1       4.276   3.720  17.231  0.00  0.00    +0.000 C 
ATOM     15  N   UNL     1       5.171   4.750  16.658  0.00  0.00    +0.000 NA
ATOM     16  C   UNL     1       5.477   4.423  15.258  0.00  0.00    +0.000 C 
ATOM     17  C   UNL     1       6.421   4.866  17.425  0.00  0.00    +0.000 C 
ATOM     18  C   UNL     1       6.187   4.870  18.940  0.00  0.00    +0.000 C 
ATOM     19  O   UNL     1       5.505   3.674  19.368  0.00  0.00    +0.000 OA
ENDBRANCH   6  12
TORSDOF 1
ENDMDL
MODEL 5
REMARK VINA RESULT:      -6.2      2.216      3.442
REMARK  Name = 
REMARK  5 active torsions:
REMARK  status: ('A' for Active; 'I' for Inactive)
REMARK    1  A    between atoms: C_1  and  C_2
REMARK    2  A    between atoms: C_6  and  C_8
REMARK    3  A    between atoms: C_8  and  C_9
REMARK    4  A    between atoms: N_11  and  C_12
REMARK    5  A    between atoms: C_17  and  C_18
REMARK                            x       y       z     vdW  Elec       q    Type
REMARK                         _______ _______ _______ _____ _____    ______ ____
ROOT
ATOM      1  C   UNL     1       0.138   9.234  22.346  0.00  0.00    +0.000 C 
ATOM      2  C   UNL     1       0.813   8.905  21.061  0.00  0.00    +0.000 A 
ATOM      3  N   UNL     1       1.440   7.674  20.907  0.00  0.00    +0.000 NA
ATOM      4  C   UNL     1       2.021   7.601  19.733  0.00  0.00    +0.000 A 
ATOM      5  N   UNL     1       2.750   6.507  19.347  0.00  0.00    +0.000 N 
ATOM      6  C   UNL     1       3.530   6.358  18.201  0.00  0.00    +0.000 C 
ATOM      7  O   UNL     1       3.702   7.201  17.325  0.00  0.00    +0.000 OA
ATOM      8  S   UNL     1       1.789   8.944  18.719  0.00  0.00    +0.000 S 
ATOM      9  C   UNL     1       0.917   9.736  19.958  0.00  0.00    +0.000 A 
ATOM     10  C   UNL     1       0.410  11.125  19.767  0.00  0.00    +0.000 C 
ATOM     11  H   UNL     1       2.787   5.767  20.036  0.00  0.00    +0.000 HD
ENDROOT
BRANCH   6  12
ATOM     12  C   UNL     1       4.148   4.939  18.109  0.00  0.00    +0.000 C 
ATOM     13  C   UNL     1       2.963   3.964  18.261  0.00  0.00    +0.000 C 
ATOM     14  C   UNL     1       4.851   4.570  16.767  0.00  0.00    +0.000 C 
ATOM     15  N   UNL     1       6.222   5.082  16.546  0.00  0.00    +0.000 NA
ATOM     16  C   UNL     1       6.882   4.304  15.488  0.00  0.00    +0.000 C 
ATOM     17  C   UNL     1       7.025   5.024  17.778  0.00  0.00    +0.000 C 
ATOM     18  C   UNL     1       6.256   5.518  19.009  0.00  0.00    +0.000 C 
ATOM     19  O   UNL     1       5.053   4.750  19.218  0.00  0.00    +0.000 OA
ENDBRANCH   6  12
TORSDOF 1
ENDMDL
MODEL 6
REMARK VINA RESULT:      -6.2      4.707      6.530
REMARK  Name = 
REMARK  5 active torsions:
REMARK  status: ('A' for Active; 'I' for Inactive)
REMARK    1  A    between atoms: C_1  and  C_2
REMARK    2  A    between atoms: C_6  and  C_8
REMARK    3  A    between atoms: C_8  and  C_9
REMARK    4  A    between atoms: N_11  and  C_12
REMARK    5  A    between atoms: C_17  and  C_18
REMARK                            x       y       z     vdW  Elec       q    Type
REMARK                         _______ _______ _______ _____ _____    ______ ____
ROOT
ATOM      1  C   UNL     1       2.225   3.397  21.481  0.00  0.00    +0.000 C 
ATOM      2  C   UNL     1       2.682   3.378  20.064  0.00  0.00    +0.000 A 
ATOM      3  N   UNL     1       3.915   3.926  19.731  0.00  0.00    +0.000 NA
ATOM      4  C   UNL     1       4.106   3.864  18.433  0.00  0.00    +0.000 A 
ATOM      5  N   UNL     1       5.227   4.379  17.837  0.00  0.00    +0.000 N 
ATOM      6  C   UNL     1       5.488   4.508  16.473  0.00  0.00    +0.000 C 
ATOM      7  O   UNL     1       4.742   4.178  15.555  0.00  0.00    +0.000 OA
ATOM      8  S   UNL     1       2.882   3.083  17.552  0.00  0.00    +0.000 S 
ATOM      9  C   UNL     1       1.972   2.878  18.985  0.00  0.00    +0.000 A 
ATOM     10  C   UNL     1       0.618   2.257  18.948  0.00  0.00    +0.000 C 
ATOM     11  H   UNL     1       5.889   4.793  18.480  0.00  0.00    +0.000 HD
ENDROOT
BRANCH   6  12
ATOM     12  C   UNL     1       6.901   5.090  16.213  0.00  0.00    +0.000 C 
ATOM     13  C   UNL     1       7.193   4.812  14.725  0.00  0.00    +0.000 C 
ATOM     14  C   UNL     1       7.069   6.628  16.414  0.00  0.00    +0.000 C 
ATOM     15  N   UNL     1       7.218   7.127  17.799  0.00  0.00    +0.000 NA
ATOM     16  C   UNL     1       7.797   8.479  17.783  0.00  0.00    +0.000 C 
ATOM     17  C   UNL     1       8.064   6.235  18.607  0.00  0.00    +0.000 C 
ATOM     18  C   UNL     1       7.725   4.754  18.403  0.00  0.00    +0.000 C 
ATOM     19  O   UNL     1       7.860   4.371  17.019  0.00  0.00    +0.000 OA
ENDBRANCH   6  12
TORSDOF 1
ENDMDL
MODEL 7
REMARK VINA RESULT:      -6.1      3.592      5.962
REMARK  Name = 
REMARK  5 active torsions:
REMARK  status: ('A' for Active; 'I' for Inactive)
REMARK    1  A    between atoms: C_1  and  C_2
REMARK    2  A    between atoms: C_6  and  C_8
REMARK    3  A    between atoms: C_8  and  C_9
REMARK    4  A    between atoms: N_11  and  C_12
REMARK    5  A    between atoms: C_17  and  C_18
REMARK                            x       y       z     vdW  Elec       q    Type
REMARK                         _______ _______ _______ _____ _____    ______ ____
ROOT
ATOM      1  C   UNL     1       1.249   6.251  20.884  0.00  0.00    +0.000 C 
ATOM      2  C   UNL     1       2.069   5.386  19.993  0.00  0.00    +0.000 A 
ATOM      3  N   UNL     1       3.259   5.873  19.465  0.00  0.00    +0.000 NA
ATOM      4  C   UNL     1       3.800   4.984  18.664  0.00  0.00    +0.000 A 
ATOM      5  N   UNL     1       4.958   5.234  17.976  0.00  0.00    +0.000 N 
ATOM      6  C   UNL     1       5.557   4.445  16.994  0.00  0.00    +0.000 C 
ATOM      7  O   UNL     1       5.140   3.372  16.568  0.00  0.00    +0.000 OA
ATOM      8  S   UNL     1       2.979   3.502  18.558  0.00  0.00    +0.000 S 
ATOM      9  C   UNL     1       1.753   4.099  19.589  0.00  0.00    +0.000 A 
ATOM     10  C   UNL     1       0.558   3.271  19.916  0.00  0.00    +0.000 C 
ATOM     11  H   UNL     1       5.358   6.147  18.149  0.00  0.00    +0.000 HD
ENDROOT
BRANCH   6  12
ATOM     12  C   UNL     1       6.894   5.059  16.504  0.00  0.00    +0.000 C 
ATOM     13  C   UNL     1       6.998   4.677  15.013  0.00  0.00    +0.000 C 
ATOM     14  C   UNL     1       7.013   6.612  16.569  0.00  0.00    +0.000 C 
ATOM     15  N   UNL     1       7.320   7.223  17.881  0.00  0.00    +0.000 NA
ATOM     16  C   UNL     1       7.826   8.590  17.690  0.00  0.00    +0.000 C 
ATOM     17  C   UNL     1       8.307   6.429  18.629  0.00  0.00    +0.000 C 
ATOM     18  C   UNL     1       8.016   4.925  18.580  0.00  0.00    +0.000 C 
ATOM     19  O   UNL     1       7.984   4.441  17.222  0.00  0.00    +0.000 OA
ENDBRANCH   6  12
TORSDOF 1
ENDMDL
MODEL 8
REMARK VINA RESULT:      -6.0      4.441      7.059
REMARK  Name = 
REMARK  5 active torsions:
REMARK  status: ('A' for Active; 'I' for Inactive)
REMARK    1  A    between atoms: C_1  and  C_2
REMARK    2  A    between atoms: C_6  and  C_8
REMARK    3  A    between atoms: C_8  and  C_9
REMARK    4  A    between atoms: N_11  and  C_12
REMARK    5  A    between atoms: C_17  and  C_18
REMARK                            x       y       z     vdW  Elec       q    Type
REMARK                         _______ _______ _______ _____ _____    ______ ____
ROOT
ATOM      1  C   UNL     1       5.928   3.135  12.206  0.00  0.00    +0.000 C 
ATOM      2  C   UNL     1       6.051   3.951  13.444  0.00  0.00    +0.000 A 
ATOM      3  N   UNL     1       5.086   3.845  14.439  0.00  0.00    +0.000 NA
ATOM      4  C   UNL     1       5.343   4.683  15.415  0.00  0.00    +0.000 A 
ATOM      5  N   UNL     1       4.517   4.812  16.501  0.00  0.00    +0.000 N 
ATOM      6  C   UNL     1       4.593   5.753  17.527  0.00  0.00    +0.000 C 
ATOM      7  O   UNL     1       5.427   6.647  17.634  0.00  0.00    +0.000 OA
ATOM      8  S   UNL     1       6.777   5.578  15.251  0.00  0.00    +0.000 S 
ATOM      9  C   UNL     1       7.052   4.869  13.719  0.00  0.00    +0.000 A 
ATOM     10  C   UNL     1       8.220   5.275  12.888  0.00  0.00    +0.000 C 
ATOM     11  H   UNL     1       3.710   4.202  16.486  0.00  0.00    +0.000 HD
ENDROOT
BRANCH   6  12
ATOM     12  C   UNL     1       3.497   5.520  18.600  0.00  0.00    +0.000 C 
ATOM     13  C   UNL     1       2.809   6.887  18.788  0.00  0.00    +0.000 C 
ATOM     14  C   UNL     1       2.369   4.507  18.235  0.00  0.00    +0.000 C 
ATOM     15  N   UNL     1       2.673   3.064  18.363  0.00  0.00    +0.000 NA
ATOM     16  C   UNL     1       1.423   2.293  18.419  0.00  0.00    +0.000 C 
ATOM     17  C   UNL     1       3.480   2.788  19.562  0.00  0.00    +0.000 C 
ATOM     18  C   UNL     1       4.625   3.789  19.748  0.00  0.00    +0.000 C 
ATOM     19  O   UNL     1       4.130   5.141  19.841  0.00  0.00    +0.000 OA
ENDBRANCH   6  12
TORSDOF 1
ENDMDL
MODEL 9
REMARK VINA RESULT:      -5.9      4.583      6.198
REMARK  Name = 
REMARK  5 active torsions:
REMARK  status: ('A' for Active; 'I' for Inactive)
REMARK    1  A    between atoms: C_1  and  C_2
REMARK    2  A    between atoms: C_6  and  C_8
REMARK    3  A    between atoms: C_8  and  C_9
REMARK    4  A    between atoms: N_11  and  C_12
REMARK    5  A    between atoms: C_17  and  C_18
REMARK                            x       y       z     vdW  Elec       q    Type
REMARK                         _______ _______ _______ _____ _____    ______ ____
ROOT
ATOM      1  C   UNL     1       0.543   2.115  18.657  0.00  0.00    +0.000 C 
ATOM      2  C   UNL     1       1.707   2.895  19.156  0.00  0.00    +0.000 A 
ATOM      3  N   UNL     1       2.594   3.466  18.250  0.00  0.00    +0.000 NA
ATOM      4  C   UNL     1       3.578   4.059  18.886  0.00  0.00    +0.000 A 
ATOM      5  N   UNL     1       4.615   4.661  18.223  0.00  0.00    +0.000 N 
ATOM      6  C   UNL     1       5.782   5.195  18.767  0.00  0.00    +0.000 C 
ATOM      7  O   UNL     1       6.089   5.214  19.956  0.00  0.00    +0.000 OA
ATOM      8  S   UNL     1       3.464   4.046  20.580  0.00  0.00    +0.000 S 
ATOM      9  C   UNL     1       2.039   3.105  20.484  0.00  0.00    +0.000 A 
ATOM     10  C   UNL     1       1.357   2.624  21.719  0.00  0.00    +0.000 C 
ATOM     11  H   UNL     1       4.546   4.619  17.215  0.00  0.00    +0.000 HD
ENDROOT
BRANCH   6  12
ATOM     12  C   UNL     1       6.679   5.839  17.678  0.00  0.00    +0.000 C 
ATOM     13  C   UNL     1       7.997   6.200  18.392  0.00  0.00    +0.000 C 
ATOM     14  C   UNL     1       7.068   4.933  16.470  0.00  0.00    +0.000 C 
ATOM     15  N   UNL     1       6.062   4.744  15.401  0.00  0.00    +0.000 NA
ATOM     16  C   UNL     1       6.718   4.260  14.177  0.00  0.00    +0.000 C 
ATOM     17  C   UNL     1       5.338   5.992  15.115  0.00  0.00    +0.000 C 
ATOM     18  C   UNL     1       4.913   6.734  16.387  0.00  0.00    +0.000 C 
ATOM     19  O   UNL     1       6.052   7.053  17.212  0.00  0.00    +0.000 OA
ENDBRANCH   6  12
TORSDOF 1
ENDMDL
