MODEL 1
REMARK VINA RESULT:      -7.5      0.000      0.000
REMARK  Name = 
REMARK  7 active torsions:
REMARK  status: ('A' for Active; 'I' for Inactive)
REMARK    1  A    between atoms: C_1  and  C_2
REMARK    2  A    between atoms: C_2  and  C_4
REMARK    3  A    between atoms: C_7  and  N_8
REMARK    4  A    between atoms: N_8  and  S_9
REMARK    5  A    between atoms: S_9  and  C_10
REMARK    6  A    between atoms: C_13  and  O_14
REMARK    7  A    between atoms: O_14  and  C_15
REMARK                            x       y       z     vdW  Elec       q    Type
REMARK                         _______ _______ _______ _____ _____    ______ ____
ROOT
ATOM      1  C   UNL     1       6.009   4.005  13.919  0.00  0.00    +0.000 A 
ATOM      2  C   UNL     1       6.885   5.029  14.280  0.00  0.00    +0.000 A 
ATOM      3  C   UNL     1       6.868   5.523  15.584  0.00  0.00    +0.000 A 
ATOM      4  C   UNL     1       6.010   4.973  16.544  0.00  0.00    +0.000 A 
ATOM      5  C   UNL     1       5.151   3.908  16.212  0.00  0.00    +0.000 A 
ATOM      6  C   UNL     1       5.142   3.457  14.887  0.00  0.00    +0.000 A 
ENDROOT
BRANCH   1   8
ATOM      7  C   UNL     1       4.594   3.250  11.881  0.00  0.00    +0.000 C 
ATOM      8  C   UNL     1       5.942   3.465  12.527  0.00  0.00    +0.000 C 
ATOM      9  O   UNL     1       6.980   3.206  11.925  0.00  0.00    +0.000 OA
ENDBRANCH   1   8
BRANCH   4  10
ATOM     10  N   UNL     1       6.029   5.536  17.856  0.00  0.00    +0.000 N 
ATOM     11  H   UNL     1       5.514   6.402  17.982  0.00  0.00    +0.000 HD
BRANCH  10  12
ATOM     12  S   UNL     1       7.445   5.457  18.753  0.00  0.00    +0.000 S 
ATOM     13  C   UNL     1       8.176   7.078  18.575  0.00  0.00    +0.000 C 
ATOM     14  O   UNL     1       7.025   5.334  20.133  0.00  0.00    +0.000 OA
ATOM     15  O   UNL     1       8.340   4.486  18.156  0.00  0.00    +0.000 OA
ENDBRANCH  10  12
ENDBRANCH   4  10
BRANCH   5  16
ATOM     16  O   UNL     1       4.377   3.402  17.231  0.00  0.00    +0.000 OA
BRANCH  16  17
ATOM     17  C   UNL     1       2.942   3.445  17.099  0.00  0.00    +0.000 C 
ATOM     18  C   UNL     1       2.281   2.256  17.811  0.00  0.00    +0.000 C 
ATOM     19  C   UNL     1       2.447   2.299  19.330  0.00  0.00    +0.000 C 
ATOM     20  C   UNL     1       2.030   3.631  19.945  0.00  0.00    +0.000 C 
ATOM     21  C   UNL     1       2.608   4.839  19.215  0.00  0.00    +0.000 C 
ATOM     22  C   UNL     1       2.423   4.758  17.703  0.00  0.00    +0.000 C 
ENDBRANCH  16  17
ENDBRANCH   5  16
TORSDOF 5
ENDMDL
MODEL 2
REMARK VINA RESULT:      -7.2      3.187      6.556
REMARK  Name = 
REMARK  7 active torsions:
REMARK  status: ('A' for Active; 'I' for Inactive)
REMARK    1  A    between atoms: C_1  and  C_2
REMARK    2  A    between atoms: C_2  and  C_4
REMARK    3  A    between atoms: C_7  and  N_8
REMARK    4  A    between atoms: N_8  and  S_9
REMARK    5  A    between atoms: S_9  and  C_10
REMARK    6  A    between atoms: C_13  and  O_14
REMARK    7  A    between atoms: O_14  and  C_15
REMARK                            x       y       z     vdW  Elec       q    Type
REMARK                         _______ _______ _______ _____ _____    ______ ____
ROOT
ATOM      1  C   UNL     1       2.081   8.027  18.939  0.00  0.00    +0.000 A 
ATOM      2  C   UNL     1       1.848   7.265  20.083  0.00  0.00    +0.000 A 
ATOM      3  C   UNL     1       2.310   5.949  20.142  0.00  0.00    +0.000 A 
ATOM      4  C   UNL     1       3.041   5.403  19.081  0.00  0.00    +0.000 A 
ATOM      5  C   UNL     1       3.327   6.171  17.936  0.00  0.00    +0.000 A 
ATOM      6  C   UNL     1       2.812   7.470  17.869  0.00  0.00    +0.000 A 
ENDROOT
BRANCH   1   8
ATOM      7  C   UNL     1       0.649   9.990  19.847  0.00  0.00    +0.000 C 
ATOM      8  C   UNL     1       1.570   9.424  18.792  0.00  0.00    +0.000 C 
ATOM      9  O   UNL     1       1.907  10.095  17.821  0.00  0.00    +0.000 OA
ENDBRANCH   1   8
BRANCH   4  10
ATOM     10  N   UNL     1       3.470   4.046  19.196  0.00  0.00    +0.000 N 
ATOM     11  H   UNL     1       4.444   3.861  18.979  0.00  0.00    +0.000 HD
BRANCH  10  12
ATOM     12  S   UNL     1       2.428   2.821  18.718  0.00  0.00    +0.000 S 
ATOM     13  C   UNL     1       1.526   2.398  20.202  0.00  0.00    +0.000 C 
ATOM     14  O   UNL     1       1.483   3.442  17.814  0.00  0.00    +0.000 OA
ATOM     15  O   UNL     1       3.200   1.664  18.310  0.00  0.00    +0.000 OA
ENDBRANCH  10  12
ENDBRANCH   4  10
BRANCH   5  16
ATOM     16  O   UNL     1       4.089   5.565  16.964  0.00  0.00    +0.000 OA
BRANCH  16  17
ATOM     17  C   UNL     1       5.185   6.300  16.382  0.00  0.00    +0.000 C 
ATOM     18  C   UNL     1       6.229   6.675  17.443  0.00  0.00    +0.000 C 
ATOM     19  C   UNL     1       6.954   5.463  18.027  0.00  0.00    +0.000 C 
ATOM     20  C   UNL     1       7.534   4.536  16.963  0.00  0.00    +0.000 C 
ATOM     21  C   UNL     1       6.546   4.202  15.851  0.00  0.00    +0.000 C 
ATOM     22  C   UNL     1       5.845   5.438  15.296  0.00  0.00    +0.000 C 
ENDBRANCH  16  17
ENDBRANCH   5  16
TORSDOF 5
ENDMDL
MODEL 3
REMARK VINA RESULT:      -7.2      3.341      6.781
REMARK  Name = 
REMARK  7 active torsions:
REMARK  status: ('A' for Active; 'I' for Inactive)
REMARK    1  A    between atoms: C_1  and  C_2
REMARK    2  A    between atoms: C_2  and  C_4
REMARK    3  A    between atoms: C_7  and  N_8
REMARK    4  A    between atoms: N_8  and  S_9
REMARK    5  A    between atoms: S_9  and  C_10
REMARK    6  A    between atoms: C_13  and  O_14
REMARK    7  A    between atoms: O_14  and  C_15
REMARK                            x       y       z     vdW  Elec       q    Type
REMARK                         _______ _______ _______ _____ _____    ______ ____
ROOT
ATOM      1  C   UNL     1       1.788   7.907  19.569  0.00  0.00    +0.000 A 
ATOM      2  C   UNL     1       1.524   7.031  20.622  0.00  0.00    +0.000 A 
ATOM      3  C   UNL     1       2.027   5.730  20.578  0.00  0.00    +0.000 A 
ATOM      4  C   UNL     1       2.828   5.311  19.509  0.00  0.00    +0.000 A 
ATOM      5  C   UNL     1       3.143   6.195  18.460  0.00  0.00    +0.000 A 
ATOM      6  C   UNL     1       2.589   7.480  18.491  0.00  0.00    +0.000 A 
ENDROOT
BRANCH   1   8
ATOM      7  C   UNL     1       1.023   9.971  18.196  0.00  0.00    +0.000 C 
ATOM      8  C   UNL     1       1.238   9.297  19.531  0.00  0.00    +0.000 C 
ATOM      9  O   UNL     1       0.964   9.871  20.581  0.00  0.00    +0.000 OA
ENDBRANCH   1   8
BRANCH   4  10
ATOM     10  N   UNL     1       3.296   3.962  19.516  0.00  0.00    +0.000 N 
ATOM     11  H   UNL     1       4.281   3.826  19.308  0.00  0.00    +0.000 HD
BRANCH  10  12
ATOM     12  S   UNL     1       2.304   2.754  18.905  0.00  0.00    +0.000 S 
ATOM     13  C   UNL     1       3.438   1.508  18.308  0.00  0.00    +0.000 C 
ATOM     14  O   UNL     1       1.625   2.190  20.052  0.00  0.00    +0.000 OA
ATOM     15  O   UNL     1       1.559   3.269  17.775  0.00  0.00    +0.000 OA
ENDBRANCH  10  12
ENDBRANCH   4  10
BRANCH   5  16
ATOM     16  O   UNL     1       3.973   5.709  17.475  0.00  0.00    +0.000 OA
BRANCH  16  17
ATOM     17  C   UNL     1       5.047   6.544  16.997  0.00  0.00    +0.000 C 
ATOM     18  C   UNL     1       6.355   6.249  17.743  0.00  0.00    +0.000 C 
ATOM     19  C   UNL     1       6.907   4.852  17.458  0.00  0.00    +0.000 C 
ATOM     20  C   UNL     1       7.021   4.542  15.968  0.00  0.00    +0.000 C 
ATOM     21  C   UNL     1       5.764   4.894  15.181  0.00  0.00    +0.000 C 
ATOM     22  C   UNL     1       5.245   6.294  15.495  0.00  0.00    +0.000 C 
ENDBRANCH  16  17
ENDBRANCH   5  16
TORSDOF 5
ENDMDL
MODEL 4
REMARK VINA RESULT:      -7.1      0.783      1.215
REMARK  Name = 
REMARK  7 active torsions:
REMARK  status: ('A' for Active; 'I' for Inactive)
REMARK    1  A    between atoms: C_1  and  C_2
REMARK    2  A    between atoms: C_2  and  C_4
REMARK    3  A    between atoms: C_7  and  N_8
REMARK    4  A    between atoms: N_8  and  S_9
REMARK    5  A    between atoms: S_9  and  C_10
REMARK    6  A    between atoms: C_13  and  O_14
REMARK    7  A    between atoms: O_14  and  C_15
REMARK                            x       y       z     vdW  Elec       q    Type
REMARK                         _______ _______ _______ _____ _____    ______ ____
ROOT
ATOM      1  C   UNL     1       5.973   4.030  13.877  0.00  0.00    +0.000 A 
ATOM      2  C   UNL     1       7.043   4.839  14.260  0.00  0.00    +0.000 A 
ATOM      3  C   UNL     1       7.043   5.431  15.523  0.00  0.00    +0.000 A 
ATOM      4  C   UNL     1       6.000   5.187  16.424  0.00  0.00    +0.000 A 
ATOM      5  C   UNL     1       4.933   4.337  16.074  0.00  0.00    +0.000 A 
ATOM      6  C   UNL     1       4.921   3.792  14.785  0.00  0.00    +0.000 A 
ENDROOT
BRANCH   1   8
ATOM      7  C   UNL     1       4.548   3.318  11.830  0.00  0.00    +0.000 C 
ATOM      8  C   UNL     1       5.888   3.407  12.521  0.00  0.00    +0.000 C 
ATOM      9  O   UNL     1       6.906   2.980  11.984  0.00  0.00    +0.000 OA
ENDBRANCH   1   8
BRANCH   4  10
ATOM     10  N   UNL     1       6.051   5.837  17.694  0.00  0.00    +0.000 N 
ATOM     11  H   UNL     1       5.737   6.803  17.720  0.00  0.00    +0.000 HD
BRANCH  10  12
ATOM     12  S   UNL     1       7.342   5.521  18.718  0.00  0.00    +0.000 S 
ATOM     13  C   UNL     1       8.302   7.029  18.702  0.00  0.00    +0.000 C 
ATOM     14  O   UNL     1       6.771   5.400  20.042  0.00  0.00    +0.000 OA
ATOM     15  O   UNL     1       8.154   4.461  18.155  0.00  0.00    +0.000 OA
ENDBRANCH  10  12
ENDBRANCH   4  10
BRANCH   5  16
ATOM     16  O   UNL     1       3.977   4.121  17.039  0.00  0.00    +0.000 OA
BRANCH  16  17
ATOM     17  C   UNL     1       4.149   3.020  17.954  0.00  0.00    +0.000 C 
ATOM     18  C   UNL     1       4.119   3.497  19.412  0.00  0.00    +0.000 C 
ATOM     19  C   UNL     1       2.753   4.034  19.839  0.00  0.00    +0.000 C 
ATOM     20  C   UNL     1       1.605   3.077  19.531  0.00  0.00    +0.000 C 
ATOM     21  C   UNL     1       1.646   2.523  18.112  0.00  0.00    +0.000 C 
ATOM     22  C   UNL     1       3.026   1.998  17.724  0.00  0.00    +0.000 C 
ENDBRANCH  16  17
ENDBRANCH   5  16
TORSDOF 5
ENDMDL
MODEL 5
REMARK VINA RESULT:      -7.1      3.246      4.961
REMARK  Name = 
REMARK  7 active torsions:
REMARK  status: ('A' for Active; 'I' for Inactive)
REMARK    1  A    between atoms: C_1  and  C_2
REMARK    2  A    between atoms: C_2  and  C_4
REMARK    3  A    between atoms: C_7  and  N_8
REMARK    4  A    between atoms: N_8  and  S_9
REMARK    5  A    between atoms: S_9  and  C_10
REMARK    6  A    between atoms: C_13  and  O_14
REMARK    7  A    between atoms: O_14  and  C_15
REMARK                            x       y       z     vdW  Elec       q    Type
REMARK                         _______ _______ _______ _____ _____    ______ ____
ROOT
ATOM      1  C   UNL     1       2.469   7.954  18.501  0.00  0.00    +0.000 A 
ATOM      2  C   UNL     1       3.284   8.077  17.377  0.00  0.00    +0.000 A 
ATOM      3  C   UNL     1       4.271   7.121  17.132  0.00  0.00    +0.000 A 
ATOM      4  C   UNL     1       4.421   6.019  17.983  0.00  0.00    +0.000 A 
ATOM      5  C   UNL     1       3.578   5.853  19.097  0.00  0.00    +0.000 A 
ATOM      6  C   UNL     1       2.628   6.847  19.359  0.00  0.00    +0.000 A 
ENDROOT
BRANCH   1   8
ATOM      7  C   UNL     1       0.979   9.111  20.283  0.00  0.00    +0.000 C 
ATOM      8  C   UNL     1       1.427   8.970  18.847  0.00  0.00    +0.000 C 
ATOM      9  O   UNL     1       0.952   9.677  17.964  0.00  0.00    +0.000 OA
ENDBRANCH   1   8
BRANCH   4  10
ATOM     10  N   UNL     1       5.461   5.087  17.687  0.00  0.00    +0.000 N 
ATOM     11  H   UNL     1       5.202   4.105  17.695  0.00  0.00    +0.000 HD
BRANCH  10  12
ATOM     12  S   UNL     1       7.007   5.381  18.270  0.00  0.00    +0.000 S 
ATOM     13  C   UNL     1       7.379   7.043  17.725  0.00  0.00    +0.000 C 
ATOM     14  O   UNL     1       6.878   5.429  19.710  0.00  0.00    +0.000 OA
ATOM     15  O   UNL     1       7.942   4.475  17.634  0.00  0.00    +0.000 OA
ENDBRANCH  10  12
ENDBRANCH   4  10
BRANCH   5  16
ATOM     16  O   UNL     1       3.770   4.717  19.850  0.00  0.00    +0.000 OA
BRANCH  16  17
ATOM     17  C   UNL     1       3.269   3.460  19.352  0.00  0.00    +0.000 C 
ATOM     18  C   UNL     1       3.481   2.332  20.371  0.00  0.00    +0.000 C 
ATOM     19  C   UNL     1       2.649   2.507  21.641  0.00  0.00    +0.000 C 
ATOM     20  C   UNL     1       1.169   2.751  21.364  0.00  0.00    +0.000 C 
ATOM     21  C   UNL     1       0.921   3.814  20.300  0.00  0.00    +0.000 C 
ATOM     22  C   UNL     1       1.770   3.604  19.049  0.00  0.00    +0.000 C 
ENDBRANCH  16  17
ENDBRANCH   5  16
TORSDOF 5
ENDMDL
MODEL 6
REMARK VINA RESULT:      -7.1      3.492      6.530
REMARK  Name = 
REMARK  7 active torsions:
REMARK  status: ('A' for Active; 'I' for Inactive)
REMARK    1  A    between atoms: C_1  and  C_2
REMARK    2  A    between atoms: C_2  and  C_4
REMARK    3  A    between atoms: C_7  and  N_8
REMARK    4  A    between atoms: N_8  and  S_9
REMARK    5  A    between atoms: S_9  and  C_10
REMARK    6  A    between atoms: C_13  and  O_14
REMARK    7  A    between atoms: O_14  and  C_15
REMARK                            x       y       z     vdW  Elec       q    Type
REMARK                         _______ _______ _______ _____ _____    ______ ____
ROOT
ATOM      1  C   UNL     1       2.012   8.459  18.629  0.00  0.00    +0.000 A 
ATOM      2  C   UNL     1       1.769   7.931  19.897  0.00  0.00    +0.000 A 
ATOM      3  C   UNL     1       2.258   6.666  20.223  0.00  0.00    +0.000 A 
ATOM      4  C   UNL     1       3.026   5.940  19.304  0.00  0.00    +0.000 A 
ATOM      5  C   UNL     1       3.322   6.475  18.036  0.00  0.00    +0.000 A 
ATOM      6  C   UNL     1       2.780   7.722  17.704  0.00  0.00    +0.000 A 
ENDROOT
BRANCH   1   8
ATOM      7  C   UNL     1       0.037  10.136  18.506  0.00  0.00    +0.000 C 
ATOM      8  C   UNL     1       1.474   9.786  18.200  0.00  0.00    +0.000 C 
ATOM      9  O   UNL     1       2.205  10.575  17.608  0.00  0.00    +0.000 OA
ENDBRANCH   1   8
BRANCH   4  10
ATOM     10  N   UNL     1       3.481   4.644  19.693  0.00  0.00    +0.000 N 
ATOM     11  H   UNL     1       4.405   4.374  19.368  0.00  0.00    +0.000 HD
BRANCH  10  12
ATOM     12  S   UNL     1       2.384   3.376  19.735  0.00  0.00    +0.000 S 
ATOM     13  C   UNL     1       1.360   3.625  18.291  0.00  0.00    +0.000 C 
ATOM     14  O   UNL     1       3.162   2.179  19.498  0.00  0.00    +0.000 OA
ATOM     15  O   UNL     1       1.548   3.501  20.912  0.00  0.00    +0.000 OA
ENDBRANCH  10  12
ENDBRANCH   4  10
BRANCH   5  16
ATOM     16  O   UNL     1       4.120   5.710  17.217  0.00  0.00    +0.000 OA
BRANCH  16  17
ATOM     17  C   UNL     1       5.183   6.353  16.486  0.00  0.00    +0.000 C 
ATOM     18  C   UNL     1       6.321   6.784  17.422  0.00  0.00    +0.000 C 
ATOM     19  C   UNL     1       7.059   5.603  18.053  0.00  0.00    +0.000 C 
ATOM     20  C   UNL     1       7.524   4.567  17.033  0.00  0.00    +0.000 C 
ATOM     21  C   UNL     1       6.439   4.172  16.038  0.00  0.00    +0.000 C 
ATOM     22  C   UNL     1       5.727   5.377  15.432  0.00  0.00    +0.000 C 
ENDBRANCH  16  17
ENDBRANCH   5  16
TORSDOF 5
ENDMDL
MODEL 7
REMARK VINA RESULT:      -7.1      3.117      5.840
REMARK  Name = 
REMARK  7 active torsions:
REMARK  status: ('A' for Active; 'I' for Inactive)
REMARK    1  A    between atoms: C_1  and  C_2
REMARK    2  A    between atoms: C_2  and  C_4
REMARK    3  A    between atoms: C_7  and  N_8
REMARK    4  A    between atoms: N_8  and  S_9
REMARK    5  A    between atoms: S_9  and  C_10
REMARK    6  A    between atoms: C_13  and  O_14
REMARK    7  A    between atoms: O_14  and  C_15
REMARK                            x       y       z     vdW  Elec       q    Type
REMARK                         _______ _______ _______ _____ _____    ______ ____
ROOT
ATOM      1  C   UNL     1       1.821   8.320  19.370  0.00  0.00    +0.000 A 
ATOM      2  C   UNL     1       2.308   8.690  18.117  0.00  0.00    +0.000 A 
ATOM      3  C   UNL     1       3.192   7.846  17.444  0.00  0.00    +0.000 A 
ATOM      4  C   UNL     1       3.562   6.615  17.997  0.00  0.00    +0.000 A 
ATOM      5  C   UNL     1       3.045   6.202  19.240  0.00  0.00    +0.000 A 
ATOM      6  C   UNL     1       2.200   7.082  19.927  0.00  0.00    +0.000 A 
ENDROOT
BRANCH   1   8
ATOM      7  C   UNL     1       0.279   8.665  21.428  0.00  0.00    +0.000 C 
ATOM      8  C   UNL     1       0.911   9.201  20.165  0.00  0.00    +0.000 C 
ATOM      9  O   UNL     1       0.690  10.347  19.784  0.00  0.00    +0.000 OA
ENDBRANCH   1   8
BRANCH   4  10
ATOM     10  N   UNL     1       4.484   5.806  17.266  0.00  0.00    +0.000 N 
ATOM     11  H   UNL     1       4.222   4.834  17.130  0.00  0.00    +0.000 HD
BRANCH  10  12
ATOM     12  S   UNL     1       6.130   6.034  17.502  0.00  0.00    +0.000 S 
ATOM     13  C   UNL     1       6.898   4.681  16.622  0.00  0.00    +0.000 C 
ATOM     14  O   UNL     1       6.463   7.246  16.784  0.00  0.00    +0.000 OA
ATOM     15  O   UNL     1       6.438   5.893  18.911  0.00  0.00    +0.000 OA
ENDBRANCH  10  12
ENDBRANCH   4  10
BRANCH   5  16
ATOM     16  O   UNL     1       3.429   4.958  19.684  0.00  0.00    +0.000 OA
BRANCH  16  17
ATOM     17  C   UNL     1       2.413   3.966  19.934  0.00  0.00    +0.000 C 
ATOM     18  C   UNL     1       1.602   3.666  18.666  0.00  0.00    +0.000 C 
ATOM     19  C   UNL     1       2.427   2.986  17.573  0.00  0.00    +0.000 C 
ATOM     20  C   UNL     1       3.184   1.756  18.067  0.00  0.00    +0.000 C 
ATOM     21  C   UNL     1       3.941   1.996  19.368  0.00  0.00    +0.000 C 
ATOM     22  C   UNL     1       3.084   2.676  20.431  0.00  0.00    +0.000 C 
ENDBRANCH  16  17
ENDBRANCH   5  16
TORSDOF 5
ENDMDL
MODEL 8
REMARK VINA RESULT:      -7.1      3.855      6.732
REMARK  Name = 
REMARK  7 active torsions:
REMARK  status: ('A' for Active; 'I' for Inactive)
REMARK    1  A    between atoms: C_1  and  C_2
REMARK    2  A    between atoms: C_2  and  C_4
REMARK    3  A    between atoms: C_7  and  N_8
REMARK    4  A    between atoms: N_8  and  S_9
REMARK    5  A    between atoms: S_9  and  C_10
REMARK    6  A    between atoms: C_13  and  O_14
REMARK    7  A    between atoms: O_14  and  C_15
REMARK                            x       y       z     vdW  Elec       q    Type
REMARK                         _______ _______ _______ _____ _____    ______ ____
ROOT
ATOM      1  C   UNL     1       1.580   8.699  19.007  0.00  0.00    +0.000 A 
ATOM      2  C   UNL     1       1.403   8.398  20.357  0.00  0.00    +0.000 A 
ATOM      3  C   UNL     1       1.865   7.180  20.858  0.00  0.00    +0.000 A 
ATOM      4  C   UNL     1       2.540   6.278  20.027  0.00  0.00    +0.000 A 
ATOM      5  C   UNL     1       2.769   6.584  18.672  0.00  0.00    +0.000 A 
ATOM      6  C   UNL     1       2.255   7.785  18.172  0.00  0.00    +0.000 A 
ENDROOT
BRANCH   1   8
ATOM      7  C   UNL     1      -0.416  10.113  18.143  0.00  0.00    +0.000 C 
ATOM      8  C   UNL     1       1.065   9.964  18.397  0.00  0.00    +0.000 C 
ATOM      9  O   UNL     1       1.850  10.864  18.114  0.00  0.00    +0.000 OA
ENDBRANCH   1   8
BRANCH   4  10
ATOM     10  N   UNL     1       2.971   5.042  20.597  0.00  0.00    +0.000 N 
ATOM     11  H   UNL     1       3.917   4.749  20.375  0.00  0.00    +0.000 HD
BRANCH  10  12
ATOM     12  S   UNL     1       1.879   3.772  20.705  0.00  0.00    +0.000 S 
ATOM     13  C   UNL     1       2.530   2.531  19.595  0.00  0.00    +0.000 C 
ATOM     14  O   UNL     1       2.019   3.251  22.048  0.00  0.00    +0.000 OA
ATOM     15  O   UNL     1       0.590   4.201  20.201  0.00  0.00    +0.000 OA
ENDBRANCH  10  12
ENDBRANCH   4  10
BRANCH   5  16
ATOM     16  O   UNL     1       3.480   5.657  17.944  0.00  0.00    +0.000 OA
BRANCH  16  17
ATOM     17  C   UNL     1       4.920   5.681  18.008  0.00  0.00    +0.000 C 
ATOM     18  C   UNL     1       5.519   4.330  17.592  0.00  0.00    +0.000 C 
ATOM     19  C   UNL     1       5.286   3.998  16.118  0.00  0.00    +0.000 C 
ATOM     20  C   UNL     1       5.707   5.120  15.174  0.00  0.00    +0.000 C 
ATOM     21  C   UNL     1       5.193   6.491  15.598  0.00  0.00    +0.000 C 
ATOM     22  C   UNL     1       5.444   6.783  17.074  0.00  0.00    +0.000 C 
ENDBRANCH  16  17
ENDBRANCH   5  16
TORSDOF 5
ENDMDL
MODEL 9
REMARK VINA RESULT:      -7.1      3.482      6.565
REMARK  Name = 
REMARK  7 active torsions:
REMARK  status: ('A' for Active; 'I' for Inactive)
REMARK    1  A    between atoms: C_1  and  C_2
REMARK    2  A    between atoms: C_2  and  C_4
REMARK    3  A    between atoms: C_7  and  N_8
REMARK    4  A    between atoms: N_8  and  S_9
REMARK    5  A    between atoms: S_9  and  C_10
REMARK    6  A    between atoms: C_13  and  O_14
REMARK    7  A    between atoms: O_14  and  C_15
REMARK                            x       y       z     vdW  Elec       q    Type
REMARK                         _______ _______ _______ _____ _____    ______ ____
ROOT
ATOM      1  C   UNL     1       1.939   8.581  18.705  0.00  0.00    +0.000 A 
ATOM      2  C   UNL     1       1.563   8.098  19.957  0.00  0.00    +0.000 A 
ATOM      3  C   UNL     1       2.066   6.876  20.406  0.00  0.00    +0.000 A 
ATOM      4  C   UNL     1       2.977   6.152  19.627  0.00  0.00    +0.000 A 
ATOM      5  C   UNL     1       3.406   6.645  18.380  0.00  0.00    +0.000 A 
ATOM      6  C   UNL     1       2.852   7.846  17.921  0.00  0.00    +0.000 A 
ENDROOT
BRANCH   1   8
ATOM      7  C   UNL     1      -0.074  10.164  18.291  0.00  0.00    +0.000 C 
ATOM      8  C   UNL     1       1.398   9.857  18.145  0.00  0.00    +0.000 C 
ATOM      9  O   UNL     1       2.154  10.641  17.579  0.00  0.00    +0.000 OA
ENDBRANCH   1   8
BRANCH   4  10
ATOM     10  N   UNL     1       3.441   4.901  20.135  0.00  0.00    +0.000 N 
ATOM     11  H   UNL     1       4.441   4.734  20.079  0.00  0.00    +0.000 HD
BRANCH  10  12
ATOM     12  S   UNL     1       2.513   3.526  19.880  0.00  0.00    +0.000 S 
ATOM     13  C   UNL     1       1.893   3.100  21.502  0.00  0.00    +0.000 C 
ATOM     14  O   UNL     1       1.377   3.962  19.097  0.00  0.00    +0.000 OA
ATOM     15  O   UNL     1       3.365   2.448  19.422  0.00  0.00    +0.000 OA
ENDBRANCH  10  12
ENDBRANCH   4  10
BRANCH   5  16
ATOM     16  O   UNL     1       4.336   5.888  17.706  0.00  0.00    +0.000 OA
BRANCH  16  17
ATOM     17  C   UNL     1       5.334   6.560  16.911  0.00  0.00    +0.000 C 
ATOM     18  C   UNL     1       6.741   6.350  17.487  0.00  0.00    +0.000 C 
ATOM     19  C   UNL     1       7.213   4.899  17.403  0.00  0.00    +0.000 C 
ATOM     20  C   UNL     1       7.077   4.301  16.005  0.00  0.00    +0.000 C 
ATOM     21  C   UNL     1       5.715   4.556  15.370  0.00  0.00    +0.000 C 
ATOM     22  C   UNL     1       5.280   6.015  15.476  0.00  0.00    +0.000 C 
ENDBRANCH  16  17
ENDBRANCH   5  16
TORSDOF 5
ENDMDL
