MODEL 1
REMARK VINA RESULT:      -7.5      0.000      0.000
REMARK  Name = 
REMARK  9 active torsions:
REMARK  status: ('A' for Active; 'I' for Inactive)
REMARK    1  A    between atoms: O_1  and  C_2
REMARK    2  A    between atoms: C_2  and  C_3
REMARK    3  A    between atoms: C_5  and  C_6
REMARK    4  A    between atoms: C_11  and  C_12
REMARK    5  A    between atoms: C_12  and  C_13
REMARK    6  A    between atoms: C_16  and  C_17
REMARK    7  A    between atoms: C_24  and  O_25
REMARK    8  A    between atoms: C_26  and  O_27
REMARK    9  A    between atoms: C_28  and  O_29
REMARK                            x       y       z     vdW  Elec       q    Type
REMARK                         _______ _______ _______ _____ _____    ______ ____
ROOT
ATOM      1  C   UNL     1       2.337   6.395  19.549  0.00  0.00    +0.000 A 
ATOM      2  C   UNL     1       1.282   5.512  19.283  0.00  0.00    +0.000 A 
ATOM      3  C   UNL     1       1.538   4.159  19.058  0.00  0.00    +0.000 A 
ATOM      4  C   UNL     1       2.848   3.670  19.075  0.00  0.00    +0.000 A 
ATOM      5 BR   UNL     1       3.069   1.813  18.742  0.00  0.00    +0.000 Br
ATOM      6  C   UNL     1       3.929   4.533  19.311  0.00  0.00    +0.000 A 
ATOM      7  C   UNL     1       3.645   5.888  19.573  0.00  0.00    +0.000 A 
ENDROOT
BRANCH   1  10
ATOM      8  C   UNL     1       0.800   9.260  21.346  0.00  0.00    +0.000 C 
ATOM      9  O   UNL     1       1.121   7.926  20.937  0.00  0.00    +0.000 OA
ATOM     10  C   UNL     1       2.051   7.859  19.846  0.00  0.00    +0.000 C 
ATOM     11  C   UNL     1       1.485   8.571  18.597  0.00  0.00    +0.000 C 
ATOM     12  C   UNL     1       1.037   9.996  18.962  0.00  0.00    +0.000 C 
ATOM     13  C   UNL     1       0.120  10.006  20.193  0.00  0.00    +0.000 C 
BRANCH  11  14
ATOM     14  O   UNL     1       2.442   8.629  17.529  0.00  0.00    +0.000 OA
ATOM     15  H   UNL     1       2.117   9.241  16.848  0.00  0.00    +0.000 HD
ENDBRANCH  11  14
BRANCH  12  16
ATOM     16  O   UNL     1       0.380  10.634  17.857  0.00  0.00    +0.000 OA
ATOM     17  H   UNL     1      -0.092   9.952  17.345  0.00  0.00    +0.000 HD
ENDBRANCH  12  16
BRANCH  13  18
ATOM     18  O   UNL     1      -0.203  11.341  20.593  0.00  0.00    +0.000 OA
ATOM     19  H   UNL     1       0.211  11.516  21.459  0.00  0.00    +0.000 HD
ENDBRANCH  13  18
BRANCH   8  20
ATOM     20  C   UNL     1      -0.133   9.196  22.565  0.00  0.00    +0.000 C 
BRANCH  20  21
ATOM     21  O   UNL     1      -0.097  10.432  23.280  0.00  0.00    +0.000 OA
ATOM     22  H   UNL     1       0.665  10.930  22.936  0.00  0.00    +0.000 HD
ENDBRANCH  20  21
ENDBRANCH   8  20
ENDBRANCH   1  10
BRANCH   6  23
ATOM     23  C   UNL     1       5.382   4.113  19.255  0.00  0.00    +0.000 C 
BRANCH  23  24
ATOM     24  C   UNL     1       6.114   4.508  18.004  0.00  0.00    +0.000 A 
ATOM     25  N   UNL     1       6.949   5.526  17.911  0.00  0.00    +0.000 NA
ATOM     26  C   UNL     1       7.333   5.691  16.589  0.00  0.00    +0.000 A 
ATOM     27  C   UNL     1       6.789   4.800  15.684  0.00  0.00    +0.000 A 
ATOM     28  S   UNL     1       5.782   3.699  16.524  0.00  0.00    +0.000 S 
BRANCH  27  29
ATOM     29  C   UNL     1       6.989   4.753  14.264  0.00  0.00    +0.000 A 
ATOM     30  C   UNL     1       6.408   3.923  13.316  0.00  0.00    +0.000 A 
ATOM     31  C   UNL     1       6.944   4.273  12.054  0.00  0.00    +0.000 A 
ATOM     32  C   UNL     1       7.818   5.303  12.290  0.00  0.00    +0.000 A 
ATOM     33  O   UNL     1       7.851   5.604  13.613  0.00  0.00    +0.000 OA
ENDBRANCH  27  29
ENDBRANCH  23  24
ENDBRANCH   6  23
TORSDOF 9
ENDMDL
MODEL 2
REMARK VINA RESULT:      -7.2      4.937      9.515
REMARK  Name = 
REMARK  9 active torsions:
REMARK  status: ('A' for Active; 'I' for Inactive)
REMARK    1  A    between atoms: O_1  and  C_2
REMARK    2  A    between atoms: C_2  and  C_3
REMARK    3  A    between atoms: C_5  and  C_6
REMARK    4  A    between atoms: C_11  and  C_12
REMARK    5  A    between atoms: C_12  and  C_13
REMARK    6  A    between atoms: C_16  and  C_17
REMARK    7  A    between atoms: C_24  and  O_25
REMARK    8  A    between atoms: C_26  and  O_27
REMARK    9  A    between atoms: C_28  and  O_29
REMARK                            x       y       z     vdW  Elec       q    Type
REMARK                         _______ _______ _______ _____ _____    ______ ____
ROOT
ATOM      1  C   UNL     1       2.185   7.311  18.906  0.00  0.00    +0.000 A 
ATOM      2  C   UNL     1       2.162   7.127  20.295  0.00  0.00    +0.000 A 
ATOM      3  C   UNL     1       1.498   8.040  21.114  0.00  0.00    +0.000 A 
ATOM      4  C   UNL     1       0.863   9.158  20.566  0.00  0.00    +0.000 A 
ATOM      5 BR   UNL     1       0.003  10.335  21.784  0.00  0.00    +0.000 Br
ATOM      6  C   UNL     1       0.889   9.386  19.180  0.00  0.00    +0.000 A 
ATOM      7  C   UNL     1       1.534   8.432  18.368  0.00  0.00    +0.000 A 
ENDROOT
BRANCH   1  10
ATOM      8  C   UNL     1       3.765   4.058  18.056  0.00  0.00    +0.000 C 
ATOM      9  O   UNL     1       3.158   5.122  18.798  0.00  0.00    +0.000 OA
ATOM     10  C   UNL     1       2.865   6.287  18.012  0.00  0.00    +0.000 C 
ATOM     11  C   UNL     1       4.155   6.871  17.393  0.00  0.00    +0.000 C 
ATOM     12  C   UNL     1       4.920   5.772  16.637  0.00  0.00    +0.000 C 
ATOM     13  C   UNL     1       5.118   4.519  17.502  0.00  0.00    +0.000 C 
BRANCH  11  14
ATOM     14  O   UNL     1       3.880   7.961  16.502  0.00  0.00    +0.000 OA
ATOM     15  H   UNL     1       4.537   7.956  15.785  0.00  0.00    +0.000 HD
ENDBRANCH  11  14
BRANCH  12  16
ATOM     16  O   UNL     1       6.190   6.249  16.170  0.00  0.00    +0.000 OA
ATOM     17  H   UNL     1       6.319   5.933  15.257  0.00  0.00    +0.000 HD
ENDBRANCH  12  16
BRANCH  13  18
ATOM     18  O   UNL     1       5.730   3.462  16.759  0.00  0.00    +0.000 OA
ATOM     19  H   UNL     1       5.539   3.594  15.812  0.00  0.00    +0.000 HD
ENDBRANCH  13  18
BRANCH   8  20
ATOM     20  C   UNL     1       3.951   2.848  18.985  0.00  0.00    +0.000 C 
BRANCH  20  21
ATOM     21  O   UNL     1       5.264   2.855  19.548  0.00  0.00    +0.000 OA
ATOM     22  H   UNL     1       5.873   2.595  18.835  0.00  0.00    +0.000 HD
ENDBRANCH  20  21
ENDBRANCH   8  20
ENDBRANCH   1  10
BRANCH   6  23
ATOM     23  C   UNL     1       0.313  10.613  18.509  0.00  0.00    +0.000 C 
BRANCH  23  24
ATOM     24  C   UNL     1      -1.138  10.512  18.128  0.00  0.00    +0.000 A 
ATOM     25  N   UNL     1      -1.607   9.765  17.148  0.00  0.00    +0.000 NA
ATOM     26  C   UNL     1      -2.961  10.017  16.979  0.00  0.00    +0.000 A 
ATOM     27  C   UNL     1      -3.512  10.954  17.831  0.00  0.00    +0.000 A 
ATOM     28  S   UNL     1      -2.298  11.520  18.898  0.00  0.00    +0.000 S 
BRANCH  27  29
ATOM     29  C   UNL     1      -4.868  11.425  17.865  0.00  0.00    +0.000 A 
ATOM     30  C   UNL     1      -5.530  12.276  16.991  0.00  0.00    +0.000 A 
ATOM     31  C   UNL     1      -6.853  12.434  17.469  0.00  0.00    +0.000 A 
ATOM     32  C   UNL     1      -6.936  11.667  18.603  0.00  0.00    +0.000 A 
ATOM     33  O   UNL     1      -5.752  11.053  18.850  0.00  0.00    +0.000 OA
ENDBRANCH  27  29
ENDBRANCH  23  24
ENDBRANCH   6  23
TORSDOF 9
ENDMDL
MODEL 3
REMARK VINA RESULT:      -7.2      4.631      9.165
REMARK  Name = 
REMARK  9 active torsions:
REMARK  status: ('A' for Active; 'I' for Inactive)
REMARK    1  A    between atoms: O_1  and  C_2
REMARK    2  A    between atoms: C_2  and  C_3
REMARK    3  A    between atoms: C_5  and  C_6
REMARK    4  A    between atoms: C_11  and  C_12
REMARK    5  A    between atoms: C_12  and  C_13
REMARK    6  A    between atoms: C_16  and  C_17
REMARK    7  A    between atoms: C_24  and  O_25
REMARK    8  A    between atoms: C_26  and  O_27
REMARK    9  A    between atoms: C_28  and  O_29
REMARK                            x       y       z     vdW  Elec       q    Type
REMARK                         _______ _______ _______ _____ _____    ______ ____
ROOT
ATOM      1  C   UNL     1       2.157   6.753  19.175  0.00  0.00    +0.000 A 
ATOM      2  C   UNL     1       1.803   6.681  20.528  0.00  0.00    +0.000 A 
ATOM      3  C   UNL     1       1.304   7.806  21.185  0.00  0.00    +0.000 A 
ATOM      4  C   UNL     1       1.169   9.023  20.511  0.00  0.00    +0.000 A 
ATOM      5 BR   UNL     1       0.491  10.485  21.515  0.00  0.00    +0.000 Br
ATOM      6  C   UNL     1       1.540   9.135  19.161  0.00  0.00    +0.000 A 
ATOM      7  C   UNL     1       2.006   7.978  18.507  0.00  0.00    +0.000 A 
ENDROOT
BRANCH   1  10
ATOM      8  C   UNL     1       2.180   3.167  18.205  0.00  0.00    +0.000 C 
ATOM      9  O   UNL     1       1.843   4.397  18.856  0.00  0.00    +0.000 OA
ATOM     10  C   UNL     1       2.650   5.512  18.448  0.00  0.00    +0.000 C 
ATOM     11  C   UNL     1       4.142   5.253  18.757  0.00  0.00    +0.000 C 
ATOM     12  C   UNL     1       4.576   3.903  18.160  0.00  0.00    +0.000 C 
ATOM     13  C   UNL     1       3.619   2.771  18.558  0.00  0.00    +0.000 C 
BRANCH  11  14
ATOM     14  O   UNL     1       4.987   6.295  18.248  0.00  0.00    +0.000 OA
ATOM     15  H   UNL     1       5.565   6.610  18.964  0.00  0.00    +0.000 HD
ENDBRANCH  11  14
BRANCH  12  16
ATOM     16  O   UNL     1       5.916   3.570  18.548  0.00  0.00    +0.000 OA
ATOM     17  H   UNL     1       6.515   4.257  18.205  0.00  0.00    +0.000 HD
ENDBRANCH  12  16
BRANCH  13  18
ATOM     18  O   UNL     1       3.963   1.543  17.911  0.00  0.00    +0.000 OA
ATOM     19  H   UNL     1       4.885   1.319  18.137  0.00  0.00    +0.000 HD
ENDBRANCH  13  18
BRANCH   8  20
ATOM     20  C   UNL     1       1.198   2.077  18.663  0.00  0.00    +0.000 C 
BRANCH  20  21
ATOM     21  O   UNL     1       0.182   2.644  19.491  0.00  0.00    +0.000 OA
ATOM     22  H   UNL     1       0.205   2.155  20.332  0.00  0.00    +0.000 HD
ENDBRANCH  20  21
ENDBRANCH   8  20
ENDBRANCH   1  10
BRANCH   6  23
ATOM     23  C   UNL     1       1.518  10.430  18.378  0.00  0.00    +0.000 C 
BRANCH  23  24
ATOM     24  C   UNL     1       0.188  11.128  18.333  0.00  0.00    +0.000 A 
ATOM     25  N   UNL     1      -0.006  12.396  18.639  0.00  0.00    +0.000 NA
ATOM     26  C   UNL     1      -1.365  12.674  18.629  0.00  0.00    +0.000 A 
ATOM     27  C   UNL     1      -2.196  11.616  18.316  0.00  0.00    +0.000 A 
ATOM     28  S   UNL     1      -1.240  10.231  17.997  0.00  0.00    +0.000 S 
BRANCH  27  29
ATOM     29  C   UNL     1      -3.631  11.609  18.256  0.00  0.00    +0.000 A 
ATOM     30  C   UNL     1      -4.472  11.156  17.249  0.00  0.00    +0.000 A 
ATOM     31  C   UNL     1      -5.804  11.378  17.673  0.00  0.00    +0.000 A 
ATOM     32  C   UNL     1      -5.712  11.945  18.918  0.00  0.00    +0.000 A 
ATOM     33  O   UNL     1      -4.412  12.086  19.282  0.00  0.00    +0.000 OA
ENDBRANCH  27  29
ENDBRANCH  23  24
ENDBRANCH   6  23
TORSDOF 9
ENDMDL
MODEL 4
REMARK VINA RESULT:      -7.2      4.958      9.511
REMARK  Name = 
REMARK  9 active torsions:
REMARK  status: ('A' for Active; 'I' for Inactive)
REMARK    1  A    between atoms: O_1  and  C_2
REMARK    2  A    between atoms: C_2  and  C_3
REMARK    3  A    between atoms: C_5  and  C_6
REMARK    4  A    between atoms: C_11  and  C_12
REMARK    5  A    between atoms: C_12  and  C_13
REMARK    6  A    between atoms: C_16  and  C_17
REMARK    7  A    between atoms: C_24  and  O_25
REMARK    8  A    between atoms: C_26  and  O_27
REMARK    9  A    between atoms: C_28  and  O_29
REMARK                            x       y       z     vdW  Elec       q    Type
REMARK                         _______ _______ _______ _____ _____    ______ ____
ROOT
ATOM      1  C   UNL     1       2.175   6.960  19.057  0.00  0.00    +0.000 A 
ATOM      2  C   UNL     1       2.147   6.929  20.457  0.00  0.00    +0.000 A 
ATOM      3  C   UNL     1       1.591   7.989  21.173  0.00  0.00    +0.000 A 
ATOM      4  C   UNL     1       1.072   9.103  20.508  0.00  0.00    +0.000 A 
ATOM      5 BR   UNL     1       0.353  10.487  21.592  0.00  0.00    +0.000 Br
ATOM      6  C   UNL     1       1.109   9.178  19.106  0.00  0.00    +0.000 A 
ATOM      7  C   UNL     1       1.641   8.080  18.401  0.00  0.00    +0.000 A 
ENDROOT
BRANCH   1  10
ATOM      8  C   UNL     1       2.375   3.431  17.913  0.00  0.00    +0.000 C 
ATOM      9  O   UNL     1       1.974   4.612  18.618  0.00  0.00    +0.000 OA
ATOM     10  C   UNL     1       2.734   5.780  18.278  0.00  0.00    +0.000 C 
ATOM     11  C   UNL     1       4.232   5.573  18.597  0.00  0.00    +0.000 C 
ATOM     12  C   UNL     1       4.735   4.276  17.942  0.00  0.00    +0.000 C 
ATOM     13  C   UNL     1       3.825   3.084  18.269  0.00  0.00    +0.000 C 
BRANCH  11  14
ATOM     14  O   UNL     1       5.036   6.676  18.154  0.00  0.00    +0.000 OA
ATOM     15  H   UNL     1       4.509   7.491  18.206  0.00  0.00    +0.000 HD
ENDBRANCH  11  14
BRANCH  12  16
ATOM     16  O   UNL     1       6.084   3.984  18.334  0.00  0.00    +0.000 OA
ATOM     17  H   UNL     1       6.097   3.106  18.756  0.00  0.00    +0.000 HD
ENDBRANCH  12  16
BRANCH  13  18
ATOM     18  O   UNL     1       4.234   1.906  17.567  0.00  0.00    +0.000 OA
ATOM     19  H   UNL     1       5.140   1.676  17.844  0.00  0.00    +0.000 HD
ENDBRANCH  13  18
BRANCH   8  20
ATOM     20  C   UNL     1       1.438   2.277  18.301  0.00  0.00    +0.000 C 
BRANCH  20  21
ATOM     21  O   UNL     1       2.084   1.407  19.231  0.00  0.00    +0.000 OA
ATOM     22  H   UNL     1       2.714   0.872  18.718  0.00  0.00    +0.000 HD
ENDBRANCH  20  21
ENDBRANCH   8  20
ENDBRANCH   1  10
BRANCH   6  23
ATOM     23  C   UNL     1       0.659  10.381  18.306  0.00  0.00    +0.000 C 
BRANCH  23  24
ATOM     24  C   UNL     1      -0.818  10.454  18.036  0.00  0.00    +0.000 A 
ATOM     25  N   UNL     1      -1.452   9.737  17.128  0.00  0.00    +0.000 NA
ATOM     26  C   UNL     1      -2.772  10.154  17.046  0.00  0.00    +0.000 A 
ATOM     27  C   UNL     1      -3.133  11.187  17.890  0.00  0.00    +0.000 A 
ATOM     28  S   UNL     1      -1.779  11.631  18.839  0.00  0.00    +0.000 S 
BRANCH  27  29
ATOM     29  C   UNL     1      -4.412  11.830  17.999  0.00  0.00    +0.000 A 
ATOM     30  C   UNL     1      -5.412  11.976  17.047  0.00  0.00    +0.000 A 
ATOM     31  C   UNL     1      -6.474  12.693  17.650  0.00  0.00    +0.000 A 
ATOM     32  C   UNL     1      -6.075  12.941  18.938  0.00  0.00    +0.000 A 
ATOM     33  O   UNL     1      -4.841  12.424  19.162  0.00  0.00    +0.000 OA
ENDBRANCH  27  29
ENDBRANCH  23  24
ENDBRANCH   6  23
TORSDOF 9
ENDMDL
MODEL 5
REMARK VINA RESULT:      -7.2      1.057      1.148
REMARK  Name = 
REMARK  9 active torsions:
REMARK  status: ('A' for Active; 'I' for Inactive)
REMARK    1  A    between atoms: O_1  and  C_2
REMARK    2  A    between atoms: C_2  and  C_3
REMARK    3  A    between atoms: C_5  and  C_6
REMARK    4  A    between atoms: C_11  and  C_12
REMARK    5  A    between atoms: C_12  and  C_13
REMARK    6  A    between atoms: C_16  and  C_17
REMARK    7  A    between atoms: C_24  and  O_25
REMARK    8  A    between atoms: C_26  and  O_27
REMARK    9  A    between atoms: C_28  and  O_29
REMARK                            x       y       z     vdW  Elec       q    Type
REMARK                         _______ _______ _______ _____ _____    ______ ____
ROOT
ATOM      1  C   UNL     1       2.205   6.737  20.141  0.00  0.00    +0.000 A 
ATOM      2  C   UNL     1       1.296   5.743  20.525  0.00  0.00    +0.000 A 
ATOM      3  C   UNL     1       1.679   4.401  20.522  0.00  0.00    +0.000 A 
ATOM      4  C   UNL     1       2.965   4.029  20.120  0.00  0.00    +0.000 A 
ATOM      5 BR   UNL     1       3.364   2.172  20.147  0.00  0.00    +0.000 Br
ATOM      6  C   UNL     1       3.892   4.999  19.704  0.00  0.00    +0.000 A 
ATOM      7  C   UNL     1       3.496   6.350  19.750  0.00  0.00    +0.000 A 
ENDROOT
BRANCH   1  10
ATOM      8  C   UNL     1       0.455   9.733  21.468  0.00  0.00    +0.000 C 
ATOM      9  O   UNL     1       0.881   8.379  21.281  0.00  0.00    +0.000 OA
ATOM     10  C   UNL     1       1.802   8.202  20.195  0.00  0.00    +0.000 C 
ATOM     11  C   UNL     1       1.167   8.645  18.858  0.00  0.00    +0.000 C 
ATOM     12  C   UNL     1       0.606  10.071  18.989  0.00  0.00    +0.000 C 
ATOM     13  C   UNL     1      -0.296  10.217  20.222  0.00  0.00    +0.000 C 
BRANCH  11  14
ATOM     14  O   UNL     1       2.104   8.598  17.773  0.00  0.00    +0.000 OA
ATOM     15  H   UNL     1       1.777   7.978  17.100  0.00  0.00    +0.000 HD
ENDBRANCH  11  14
BRANCH  12  16
ATOM     16  O   UNL     1      -0.113  10.458  17.809  0.00  0.00    +0.000 OA
ATOM     17  H   UNL     1       0.402  10.178  17.030  0.00  0.00    +0.000 HD
ENDBRANCH  12  16
BRANCH  13  18
ATOM     18  O   UNL     1      -0.724  11.569  20.400  0.00  0.00    +0.000 OA
ATOM     19  H   UNL     1      -0.712  12.018  19.535  0.00  0.00    +0.000 HD
ENDBRANCH  13  18
BRANCH   8  20
ATOM     20  C   UNL     1      -0.457   9.802  22.703  0.00  0.00    +0.000 C 
BRANCH  20  21
ATOM     21  O   UNL     1      -0.538  11.145  23.183  0.00  0.00    +0.000 OA
ATOM     22  H   UNL     1      -0.035  11.172  24.016  0.00  0.00    +0.000 HD
ENDBRANCH  20  21
ENDBRANCH   8  20
ENDBRANCH   1  10
BRANCH   6  23
ATOM     23  C   UNL     1       5.270   4.683  19.165  0.00  0.00    +0.000 C 
BRANCH  23  24
ATOM     24  C   UNL     1       5.347   4.502  17.674  0.00  0.00    +0.000 A 
ATOM     25  N   UNL     1       4.612   3.654  16.981  0.00  0.00    +0.000 NA
ATOM     26  C   UNL     1       5.038   3.642  15.661  0.00  0.00    +0.000 A 
ATOM     27  C   UNL     1       6.095   4.479  15.359  0.00  0.00    +0.000 A 
ATOM     28  S   UNL     1       6.553   5.331  16.772  0.00  0.00    +0.000 S 
BRANCH  27  29
ATOM     29  C   UNL     1       6.751   4.649  14.093  0.00  0.00    +0.000 A 
ATOM     30  C   UNL     1       6.543   3.984  12.893  0.00  0.00    +0.000 A 
ATOM     31  C   UNL     1       7.450   4.516  11.946  0.00  0.00    +0.000 A 
ATOM     32  C   UNL     1       8.160   5.484  12.610  0.00  0.00    +0.000 A 
ATOM     33  O   UNL     1       7.747   5.577  13.899  0.00  0.00    +0.000 OA
ENDBRANCH  27  29
ENDBRANCH  23  24
ENDBRANCH   6  23
TORSDOF 9
ENDMDL
MODEL 6
REMARK VINA RESULT:      -7.1      4.879      9.479
REMARK  Name = 
REMARK  9 active torsions:
REMARK  status: ('A' for Active; 'I' for Inactive)
REMARK    1  A    between atoms: O_1  and  C_2
REMARK    2  A    between atoms: C_2  and  C_3
REMARK    3  A    between atoms: C_5  and  C_6
REMARK    4  A    between atoms: C_11  and  C_12
REMARK    5  A    between atoms: C_12  and  C_13
REMARK    6  A    between atoms: C_16  and  C_17
REMARK    7  A    between atoms: C_24  and  O_25
REMARK    8  A    between atoms: C_26  and  O_27
REMARK    9  A    between atoms: C_28  and  O_29
REMARK                            x       y       z     vdW  Elec       q    Type
REMARK                         _______ _______ _______ _____ _____    ______ ____
ROOT
ATOM      1  C   UNL     1       2.205   7.418  19.720  0.00  0.00    +0.000 A 
ATOM      2  C   UNL     1       1.959   7.465  21.098  0.00  0.00    +0.000 A 
ATOM      3  C   UNL     1       1.158   8.473  21.635  0.00  0.00    +0.000 A 
ATOM      4  C   UNL     1       0.607   9.459  20.812  0.00  0.00    +0.000 A 
ATOM      5 BR   UNL     1      -0.455  10.785  21.661  0.00  0.00    +0.000 Br
ATOM      6  C   UNL     1       0.856   9.456  19.430  0.00  0.00    +0.000 A 
ATOM      7  C   UNL     1       1.637   8.408  18.904  0.00  0.00    +0.000 A 
ENDROOT
BRANCH   1  10
ATOM      8  C   UNL     1       4.809   5.885  17.559  0.00  0.00    +0.000 C 
ATOM      9  O   UNL     1       3.935   6.846  18.161  0.00  0.00    +0.000 OA
ATOM     10  C   UNL     1       3.035   6.289  19.131  0.00  0.00    +0.000 C 
ATOM     11  C   UNL     1       2.125   5.219  18.485  0.00  0.00    +0.000 C 
ATOM     12  C   UNL     1       2.981   4.180  17.742  0.00  0.00    +0.000 C 
ATOM     13  C   UNL     1       3.986   4.845  16.791  0.00  0.00    +0.000 C 
BRANCH  11  14
ATOM     14  O   UNL     1       1.301   4.556  19.454  0.00  0.00    +0.000 OA
ATOM     15  H   UNL     1       1.285   3.605  19.256  0.00  0.00    +0.000 HD
ENDBRANCH  11  14
BRANCH  12  16
ATOM     16  O   UNL     1       2.160   3.253  17.016  0.00  0.00    +0.000 OA
ATOM     17  H   UNL     1       1.313   3.689  16.813  0.00  0.00    +0.000 HD
ENDBRANCH  12  16
BRANCH  13  18
ATOM     18  O   UNL     1       4.852   3.880  16.188  0.00  0.00    +0.000 OA
ATOM     19  H   UNL     1       4.689   3.871  15.227  0.00  0.00    +0.000 HD
ENDBRANCH  13  18
BRANCH   8  20
ATOM     20  C   UNL     1       5.771   6.614  16.609  0.00  0.00    +0.000 C 
BRANCH  20  21
ATOM     21  O   UNL     1       5.163   6.787  15.328  0.00  0.00    +0.000 OA
ATOM     22  H   UNL     1       5.360   7.698  15.048  0.00  0.00    +0.000 HD
ENDBRANCH  20  21
ENDBRANCH   8  20
ENDBRANCH   1  10
BRANCH   6  23
ATOM     23  C   UNL     1       0.382  10.532  18.478  0.00  0.00    +0.000 C 
BRANCH  23  24
ATOM     24  C   UNL     1      -1.061  10.433  18.067  0.00  0.00    +0.000 A 
ATOM     25  N   UNL     1      -1.512   9.678  17.084  0.00  0.00    +0.000 NA
ATOM     26  C   UNL     1      -2.861   9.933  16.884  0.00  0.00    +0.000 A 
ATOM     27  C   UNL     1      -3.427  10.880  17.716  0.00  0.00    +0.000 A 
ATOM     28  S   UNL     1      -2.233  11.450  18.804  0.00  0.00    +0.000 S 
BRANCH  27  29
ATOM     29  C   UNL     1      -4.781  11.355  17.718  0.00  0.00    +0.000 A 
ATOM     30  C   UNL     1      -5.844  10.995  18.535  0.00  0.00    +0.000 A 
ATOM     31  C   UNL     1      -6.970  11.749  18.128  0.00  0.00    +0.000 A 
ATOM     32  C   UNL     1      -6.540  12.537  17.092  0.00  0.00    +0.000 A 
ATOM     33  O   UNL     1      -5.226  12.314  16.838  0.00  0.00    +0.000 OA
ENDBRANCH  27  29
ENDBRANCH  23  24
ENDBRANCH   6  23
TORSDOF 9
ENDMDL
MODEL 7
REMARK VINA RESULT:      -6.8      5.047      9.441
REMARK  Name = 
REMARK  9 active torsions:
REMARK  status: ('A' for Active; 'I' for Inactive)
REMARK    1  A    between atoms: O_1  and  C_2
REMARK    2  A    between atoms: C_2  and  C_3
REMARK    3  A    between atoms: C_5  and  C_6
REMARK    4  A    between atoms: C_11  and  C_12
REMARK    5  A    between atoms: C_12  and  C_13
REMARK    6  A    between atoms: C_16  and  C_17
REMARK    7  A    between atoms: C_24  and  O_25
REMARK    8  A    between atoms: C_26  and  O_27
REMARK    9  A    between atoms: C_28  and  O_29
REMARK                            x       y       z     vdW  Elec       q    Type
REMARK                         _______ _______ _______ _____ _____    ______ ____
ROOT
ATOM      1  C   UNL     1       1.850   7.411  19.677  0.00  0.00    +0.000 A 
ATOM      2  C   UNL     1       1.869   7.642  21.059  0.00  0.00    +0.000 A 
ATOM      3  C   UNL     1       1.313   8.809  21.584  0.00  0.00    +0.000 A 
ATOM      4  C   UNL     1       0.748   9.770  20.741  0.00  0.00    +0.000 A 
ATOM      5 BR   UNL     1       0.035  11.321  21.573  0.00  0.00    +0.000 Br
ATOM      6  C   UNL     1       0.737   9.581  19.350  0.00  0.00    +0.000 A 
ATOM      7  C   UNL     1       1.270   8.380  18.844  0.00  0.00    +0.000 A 
ENDROOT
BRANCH   1  10
ATOM      8  C   UNL     1       2.670   3.788  19.655  0.00  0.00    +0.000 C 
ATOM      9  O   UNL     1       2.221   5.077  20.086  0.00  0.00    +0.000 OA
ATOM     10  C   UNL     1       2.409   6.115  19.112  0.00  0.00    +0.000 C 
ATOM     11  C   UNL     1       3.906   6.272  18.759  0.00  0.00    +0.000 C 
ATOM     12  C   UNL     1       4.497   4.910  18.357  0.00  0.00    +0.000 C 
ATOM     13  C   UNL     1       4.180   3.824  19.395  0.00  0.00    +0.000 C 
BRANCH  11  14
ATOM     14  O   UNL     1       4.113   7.215  17.697  0.00  0.00    +0.000 OA
ATOM     15  H   UNL     1       4.346   6.731  16.887  0.00  0.00    +0.000 HD
ENDBRANCH  11  14
BRANCH  12  16
ATOM     16  O   UNL     1       5.915   4.997  18.159  0.00  0.00    +0.000 OA
ATOM     17  H   UNL     1       6.102   4.852  17.213  0.00  0.00    +0.000 HD
ENDBRANCH  12  16
BRANCH  13  18
ATOM     18  O   UNL     1       4.635   2.539  18.964  0.00  0.00    +0.000 OA
ATOM     19  H   UNL     1       4.271   2.360  18.077  0.00  0.00    +0.000 HD
ENDBRANCH  13  18
BRANCH   8  20
ATOM     20  C   UNL     1       2.339   2.757  20.746  0.00  0.00    +0.000 C 
BRANCH  20  21
ATOM     21  O   UNL     1       2.310   3.386  22.028  0.00  0.00    +0.000 OA
ATOM     22  H   UNL     1       3.203   3.291  22.404  0.00  0.00    +0.000 HD
ENDBRANCH  20  21
ENDBRANCH   8  20
ENDBRANCH   1  10
BRANCH   6  23
ATOM     23  C   UNL     1       0.234  10.606  18.356  0.00  0.00    +0.000 C 
BRANCH  23  24
ATOM     24  C   UNL     1      -1.220  10.486  17.994  0.00  0.00    +0.000 A 
ATOM     25  N   UNL     1      -1.694   9.722  17.029  0.00  0.00    +0.000 NA
ATOM     26  C   UNL     1      -3.051   9.959  16.873  0.00  0.00    +0.000 A 
ATOM     27  C   UNL     1      -3.602  10.901  17.720  0.00  0.00    +0.000 A 
ATOM     28  S   UNL     1      -2.381  11.491  18.766  0.00  0.00    +0.000 S 
BRANCH  27  29
ATOM     29  C   UNL     1      -4.962  11.359  17.765  0.00  0.00    +0.000 A 
ATOM     30  C   UNL     1      -5.577  12.373  17.044  0.00  0.00    +0.000 A 
ATOM     31  C   UNL     1      -6.929  12.433  17.460  0.00  0.00    +0.000 A 
ATOM     32  C   UNL     1      -7.075  11.450  18.405  0.00  0.00    +0.000 A 
ATOM     33  O   UNL     1      -5.902  10.795  18.595  0.00  0.00    +0.000 OA
ENDBRANCH  27  29
ENDBRANCH  23  24
ENDBRANCH   6  23
TORSDOF 9
ENDMDL
MODEL 8
REMARK VINA RESULT:      -6.8      2.372      3.368
REMARK  Name = 
REMARK  9 active torsions:
REMARK  status: ('A' for Active; 'I' for Inactive)
REMARK    1  A    between atoms: O_1  and  C_2
REMARK    2  A    between atoms: C_2  and  C_3
REMARK    3  A    between atoms: C_5  and  C_6
REMARK    4  A    between atoms: C_11  and  C_12
REMARK    5  A    between atoms: C_12  and  C_13
REMARK    6  A    between atoms: C_16  and  C_17
REMARK    7  A    between atoms: C_24  and  O_25
REMARK    8  A    between atoms: C_26  and  O_27
REMARK    9  A    between atoms: C_28  and  O_29
REMARK                            x       y       z     vdW  Elec       q    Type
REMARK                         _______ _______ _______ _____ _____    ______ ____
ROOT
ATOM      1  C   UNL     1       2.437   6.324  19.390  0.00  0.00    +0.000 A 
ATOM      2  C   UNL     1       1.540   5.291  19.688  0.00  0.00    +0.000 A 
ATOM      3  C   UNL     1       1.861   3.969  19.380  0.00  0.00    +0.000 A 
ATOM      4  C   UNL     1       3.072   3.659  18.753  0.00  0.00    +0.000 A 
ATOM      5 BR   UNL     1       3.391   1.825  18.373  0.00  0.00    +0.000 Br
ATOM      6  C   UNL     1       3.982   4.674  18.417  0.00  0.00    +0.000 A 
ATOM      7  C   UNL     1       3.653   5.997  18.771  0.00  0.00    +0.000 A 
ENDROOT
BRANCH   1  10
ATOM      8  C   UNL     1       0.836   9.028  21.372  0.00  0.00    +0.000 C 
ATOM      9  O   UNL     1       1.195   7.731  20.882  0.00  0.00    +0.000 OA
ATOM     10  C   UNL     1       2.107   7.758  19.774  0.00  0.00    +0.000 C 
ATOM     11  C   UNL     1       1.495   8.519  18.577  0.00  0.00    +0.000 C 
ATOM     12  C   UNL     1       1.005   9.905  19.030  0.00  0.00    +0.000 C 
ATOM     13  C   UNL     1       0.111   9.814  20.274  0.00  0.00    +0.000 C 
BRANCH  11  14
ATOM     14  O   UNL     1       2.429   8.670  17.499  0.00  0.00    +0.000 OA
ATOM     15  H   UNL     1       3.090   7.960  17.552  0.00  0.00    +0.000 HD
ENDBRANCH  11  14
BRANCH  12  16
ATOM     16  O   UNL     1       0.306  10.580  17.974  0.00  0.00    +0.000 OA
ATOM     17  H   UNL     1       0.107   9.932  17.274  0.00  0.00    +0.000 HD
ENDBRANCH  12  16
BRANCH  13  18
ATOM     18  O   UNL     1      -0.250  11.111  20.755  0.00  0.00    +0.000 OA
ATOM     19  H   UNL     1      -0.202  11.108  21.729  0.00  0.00    +0.000 HD
ENDBRANCH  13  18
BRANCH   8  20
ATOM     20  C   UNL     1      -0.071   8.862  22.601  0.00  0.00    +0.000 C 
BRANCH  20  21
ATOM     21  O   UNL     1       0.131   9.942  23.514  0.00  0.00    +0.000 OA
ATOM     22  H   UNL     1      -0.288  10.724  23.115  0.00  0.00    +0.000 HD
ENDBRANCH  20  21
ENDBRANCH   8  20
ENDBRANCH   1  10
BRANCH   6  23
ATOM     23  C   UNL     1       5.269   4.444  17.656  0.00  0.00    +0.000 C 
BRANCH  23  24
ATOM     24  C   UNL     1       6.378   5.409  17.967  0.00  0.00    +0.000 A 
ATOM     25  N   UNL     1       7.398   5.151  18.764  0.00  0.00    +0.000 NA
ATOM     26  C   UNL     1       8.151   6.302  18.942  0.00  0.00    +0.000 A 
ATOM     27  C   UNL     1       7.701   7.428  18.280  0.00  0.00    +0.000 A 
ATOM     28  S   UNL     1       6.299   7.024  17.382  0.00  0.00    +0.000 S 
BRANCH  27  29
ATOM     29  C   UNL     1       8.263   8.748  18.302  0.00  0.00    +0.000 A 
ATOM     30  C   UNL     1       9.209   9.292  19.161  0.00  0.00    +0.000 A 
ATOM     31  C   UNL     1       9.422  10.634  18.767  0.00  0.00    +0.000 A 
ATOM     32  C   UNL     1       8.605  10.842  17.685  0.00  0.00    +0.000 A 
ATOM     33  O   UNL     1       7.907   9.716  17.393  0.00  0.00    +0.000 OA
ENDBRANCH  27  29
ENDBRANCH  23  24
ENDBRANCH   6  23
TORSDOF 9
ENDMDL
MODEL 9
REMARK VINA RESULT:      -6.6      4.953      8.100
REMARK  Name = 
REMARK  9 active torsions:
REMARK  status: ('A' for Active; 'I' for Inactive)
REMARK    1  A    between atoms: O_1  and  C_2
REMARK    2  A    between atoms: C_2  and  C_3
REMARK    3  A    between atoms: C_5  and  C_6
REMARK    4  A    between atoms: C_11  and  C_12
REMARK    5  A    between atoms: C_12  and  C_13
REMARK    6  A    between atoms: C_16  and  C_17
REMARK    7  A    between atoms: C_24  and  O_25
REMARK    8  A    between atoms: C_26  and  O_27
REMARK    9  A    between atoms: C_28  and  O_29
REMARK                            x       y       z     vdW  Elec       q    Type
REMARK                         _______ _______ _______ _____ _____    ______ ____
ROOT
ATOM      1  C   UNL     1      -3.271  12.853  20.472  0.00  0.00    +0.000 A 
ATOM      2  C   UNL     1      -4.275  12.373  19.620  0.00  0.00    +0.000 A 
ATOM      3  C   UNL     1      -3.942  11.613  18.499  0.00  0.00    +0.000 A 
ATOM      4  C   UNL     1      -2.605  11.335  18.199  0.00  0.00    +0.000 A 
ATOM      5 BR   UNL     1      -2.278  10.301  16.640  0.00  0.00    +0.000 Br
ATOM      6  C   UNL     1      -1.574  11.823  19.018  0.00  0.00    +0.000 A 
ATOM      7  C   UNL     1      -1.934  12.557  20.165  0.00  0.00    +0.000 A 
ENDROOT
BRANCH   1  10
ATOM      8  C   UNL     1      -2.682  15.101  23.370  0.00  0.00    +0.000 C 
ATOM      9  O   UNL     1      -2.459  14.289  22.212  0.00  0.00    +0.000 OA
ATOM     10  C   UNL     1      -3.640  13.637  21.722  0.00  0.00    +0.000 C 
ATOM     11  C   UNL     1      -4.239  12.703  22.797  0.00  0.00    +0.000 C 
ATOM     12  C   UNL     1      -4.440  13.476  24.112  0.00  0.00    +0.000 C 
ATOM     13  C   UNL     1      -3.169  14.226  24.531  0.00  0.00    +0.000 C 
BRANCH  11  14
ATOM     14  O   UNL     1      -5.488  12.133  22.382  0.00  0.00    +0.000 OA
ATOM     15  H   UNL     1      -5.557  11.230  22.736  0.00  0.00    +0.000 HD
ENDBRANCH  11  14
BRANCH  12  16
ATOM     16  O   UNL     1      -4.864  12.604  25.169  0.00  0.00    +0.000 OA
ATOM     17  H   UNL     1      -4.364  12.831  25.973  0.00  0.00    +0.000 HD
ENDBRANCH  12  16
BRANCH  13  18
ATOM     18  O   UNL     1      -3.395  15.031  25.691  0.00  0.00    +0.000 OA
ATOM     19  H   UNL     1      -2.729  15.743  25.712  0.00  0.00    +0.000 HD
ENDBRANCH  13  18
BRANCH   8  20
ATOM     20  C   UNL     1      -1.368  15.805  23.744  0.00  0.00    +0.000 C 
BRANCH  20  21
ATOM     21  O   UNL     1      -0.679  15.061  24.751  0.00  0.00    +0.000 OA
ATOM     22  H   UNL     1       0.034  14.577  24.299  0.00  0.00    +0.000 HD
ENDBRANCH  20  21
ENDBRANCH   8  20
ENDBRANCH   1  10
BRANCH   6  23
ATOM     23  C   UNL     1      -0.100  11.652  18.721  0.00  0.00    +0.000 C 
BRANCH  23  24
ATOM     24  C   UNL     1       0.484  10.327  19.121  0.00  0.00    +0.000 A 
ATOM     25  N   UNL     1       0.443   9.824  20.340  0.00  0.00    +0.000 NA
ATOM     26  C   UNL     1       1.197   8.661  20.388  0.00  0.00    +0.000 A 
ATOM     27  C   UNL     1       1.808   8.286  19.206  0.00  0.00    +0.000 A 
ATOM     28  S   UNL     1       1.401   9.417  17.986  0.00  0.00    +0.000 S 
BRANCH  27  29
ATOM     29  C   UNL     1       2.659   7.154  18.974  0.00  0.00    +0.000 A 
ATOM     30  C   UNL     1       3.421   6.835  17.858  0.00  0.00    +0.000 A 
ATOM     31  C   UNL     1       4.076   5.609  18.125  0.00  0.00    +0.000 A 
ATOM     32  C   UNL     1       3.692   5.245  19.390  0.00  0.00    +0.000 A 
ATOM     33  O   UNL     1       2.844   6.167  19.913  0.00  0.00    +0.000 OA
ENDBRANCH  27  29
ENDBRANCH  23  24
ENDBRANCH   6  23
TORSDOF 9
ENDMDL
