MODEL 1
REMARK VINA RESULT:      -7.9      0.000      0.000
REMARK  Name = 
REMARK  7 active torsions:
REMARK  status: ('A' for Active; 'I' for Inactive)
REMARK    1  A    between atoms: C_1  and  N_2
REMARK    2  A    between atoms: N_2  and  C_3
REMARK    3  A    between atoms: N_2  and  C_4
REMARK    4  A    between atoms: C_4  and  C_5
REMARK    5  A    between atoms: C_8  and  N_9
REMARK    6  A    between atoms: C_14  and  C_15
REMARK    7  A    between atoms: C_18  and  N_19
REMARK                            x       y       z     vdW  Elec       q    Type
REMARK                         _______ _______ _______ _____ _____    ______ ____
ROOT
ATOM      1  C   UNL     1       4.238   4.176  17.077  0.00  0.00    +0.000 A 
ATOM      2  C   UNL     1       3.818   3.036  17.769  0.00  0.00    +0.000 A 
ATOM      3  F   UNL     1       4.228   1.827  17.350  0.00  0.00    +0.000 F 
ATOM      4  C   UNL     1       3.005   3.105  18.913  0.00  0.00    +0.000 A 
ATOM      5  C   UNL     1       2.570   4.377  19.330  0.00  0.00    +0.000 A 
ATOM      6  C   UNL     1       1.775   4.551  20.558  0.00  0.00    +0.000 A 
ATOM      7  O   UNL     1       1.475   3.621  21.300  0.00  0.00    +0.000 OA
ATOM      8  C   UNL     1       1.376   5.923  20.907  0.00  0.00    +0.000 A 
ATOM      9  C   UNL     1       1.758   6.939  20.124  0.00  0.00    +0.000 A 
ATOM     10  O   UNL     1       2.545   6.789  18.995  0.00  0.00    +0.000 OA
ATOM     11  C   UNL     1       2.939   5.525  18.628  0.00  0.00    +0.000 A 
ATOM     12  C   UNL     1       3.756   5.415  17.503  0.00  0.00    +0.000 A 
ATOM     13  F   UNL     1       4.095   6.526  16.834  0.00  0.00    +0.000 F 
ENDROOT
BRANCH   9  14
ATOM     14  C   UNL     1       1.367   8.336  20.415  0.00  0.00    +0.000 A 
ATOM     15  C   UNL     1       1.388   9.312  19.406  0.00  0.00    +0.000 A 
ATOM     16  C   UNL     1       0.960  10.624  19.657  0.00  0.00    +0.000 A 
ATOM     17  C   UNL     1       0.537  11.004  20.931  0.00  0.00    +0.000 A 
ATOM     18  C   UNL     1       0.483  10.018  21.921  0.00  0.00    +0.000 A 
ATOM     19  F   UNL     1       0.024  10.333  23.143  0.00  0.00    +0.000 F 
ATOM     20  C   UNL     1       0.901   8.711  21.682  0.00  0.00    +0.000 A 
BRANCH  17  21
ATOM     21  N   UNL     1      -0.040  12.266  21.140  0.00  0.00    +0.000 N 
ATOM     22  H   UNL     1      -0.504  12.660  20.328  0.00  0.00    +0.000 HD
ATOM     23  H   UNL     1       0.597  12.918  21.592  0.00  0.00    +0.000 HD
ENDBRANCH  17  21
ENDBRANCH   9  14
BRANCH   4  24
ATOM     24  N   UNL     1       2.484   1.916  19.460  0.00  0.00    +0.000 N 
ATOM     25  H   UNL     1       2.918   1.067  19.105  0.00  0.00    +0.000 HD
ATOM     26  H   UNL     1       2.408   1.943  20.483  0.00  0.00    +0.000 HD
ENDBRANCH   4  24
BRANCH   1  27
ATOM     27  C   UNL     1       5.212   4.059  15.932  0.00  0.00    +0.000 C 
BRANCH  27  29
ATOM     28  C   UNL     1       7.274   4.515  17.162  0.00  0.00    +0.000 C 
ATOM     29  N   UNL     1       6.388   4.939  16.076  0.00  0.00    +0.000 NA
ATOM     30  C   UNL     1       7.136   4.986  14.818  0.00  0.00    +0.000 C 
ENDBRANCH  27  29
ENDBRANCH   1  27
TORSDOF 5
ENDMDL
MODEL 2
REMARK VINA RESULT:      -7.8      0.858      1.064
REMARK  Name = 
REMARK  7 active torsions:
REMARK  status: ('A' for Active; 'I' for Inactive)
REMARK    1  A    between atoms: C_1  and  N_2
REMARK    2  A    between atoms: N_2  and  C_3
REMARK    3  A    between atoms: N_2  and  C_4
REMARK    4  A    between atoms: C_4  and  C_5
REMARK    5  A    between atoms: C_8  and  N_9
REMARK    6  A    between atoms: C_14  and  C_15
REMARK    7  A    between atoms: C_18  and  N_19
REMARK                            x       y       z     vdW  Elec       q    Type
REMARK                         _______ _______ _______ _____ _____    ______ ____
ROOT
ATOM      1  C   UNL     1       4.235   5.288  17.027  0.00  0.00    +0.000 A 
ATOM      2  C   UNL     1       3.995   4.041  17.611  0.00  0.00    +0.000 A 
ATOM      3  F   UNL     1       4.536   2.943  17.057  0.00  0.00    +0.000 F 
ATOM      4  C   UNL     1       3.233   3.892  18.782  0.00  0.00    +0.000 A 
ATOM      5  C   UNL     1       2.659   5.048  19.341  0.00  0.00    +0.000 A 
ATOM      6  C   UNL     1       1.905   4.996  20.606  0.00  0.00    +0.000 A 
ATOM      7  O   UNL     1       1.760   3.967  21.257  0.00  0.00    +0.000 OA
ATOM      8  C   UNL     1       1.352   6.264  21.106  0.00  0.00    +0.000 A 
ATOM      9  C   UNL     1       1.566   7.393  20.420  0.00  0.00    +0.000 A 
ATOM     10  O   UNL     1       2.313   7.458  19.257  0.00  0.00    +0.000 OA
ATOM     11  C   UNL     1       2.847   6.298  18.749  0.00  0.00    +0.000 A 
ATOM     12  C   UNL     1       3.620   6.407  17.593  0.00  0.00    +0.000 A 
ATOM     13  F   UNL     1       3.784   7.612  17.030  0.00  0.00    +0.000 F 
ENDROOT
BRANCH   9  14
ATOM     14  C   UNL     1       1.015   8.692  20.865  0.00  0.00    +0.000 A 
ATOM     15  C   UNL     1       1.021   9.805  20.009  0.00  0.00    +0.000 A 
ATOM     16  C   UNL     1       0.445  11.023  20.400  0.00  0.00    +0.000 A 
ATOM     17  C   UNL     1      -0.117  11.171  21.668  0.00  0.00    +0.000 A 
ATOM     18  C   UNL     1      -0.154  10.048  22.501  0.00  0.00    +0.000 A 
ATOM     19  F   UNL     1      -0.741  10.136  23.705  0.00  0.00    +0.000 F 
ATOM     20  C   UNL     1       0.411   8.831  22.122  0.00  0.00    +0.000 A 
BRANCH  17  21
ATOM     21  N   UNL     1      -0.833  12.332  21.996  0.00  0.00    +0.000 N 
ATOM     22  H   UNL     1      -1.608  12.187  22.636  0.00  0.00    +0.000 HD
ATOM     23  H   UNL     1      -1.089  12.879  21.177  0.00  0.00    +0.000 HD
ENDBRANCH  17  21
ENDBRANCH   9  14
BRANCH   4  24
ATOM     24  N   UNL     1       2.892   2.596  19.221  0.00  0.00    +0.000 N 
ATOM     25  H   UNL     1       1.910   2.481  19.457  0.00  0.00    +0.000 HD
ATOM     26  H   UNL     1       3.259   1.856  18.613  0.00  0.00    +0.000 HD
ENDBRANCH   4  24
BRANCH   1  27
ATOM     27  C   UNL     1       5.163   5.412  15.845  0.00  0.00    +0.000 C 
BRANCH  27  29
ATOM     28  C   UNL     1       7.365   4.828  14.962  0.00  0.00    +0.000 C 
ATOM     29  N   UNL     1       6.562   5.067  16.163  0.00  0.00    +0.000 NA
ATOM     30  C   UNL     1       7.173   6.130  16.962  0.00  0.00    +0.000 C 
ENDBRANCH  27  29
ENDBRANCH   1  27
TORSDOF 5
ENDMDL
MODEL 3
REMARK VINA RESULT:      -7.8      0.977      1.355
REMARK  Name = 
REMARK  7 active torsions:
REMARK  status: ('A' for Active; 'I' for Inactive)
REMARK    1  A    between atoms: C_1  and  N_2
REMARK    2  A    between atoms: N_2  and  C_3
REMARK    3  A    between atoms: N_2  and  C_4
REMARK    4  A    between atoms: C_4  and  C_5
REMARK    5  A    between atoms: C_8  and  N_9
REMARK    6  A    between atoms: C_14  and  C_15
REMARK    7  A    between atoms: C_18  and  N_19
REMARK                            x       y       z     vdW  Elec       q    Type
REMARK                         _______ _______ _______ _____ _____    ______ ____
ROOT
ATOM      1  C   UNL     1       4.245   4.258  17.062  0.00  0.00    +0.000 A 
ATOM      2  C   UNL     1       3.859   3.134  17.798  0.00  0.00    +0.000 A 
ATOM      3  F   UNL     1       4.284   1.920  17.412  0.00  0.00    +0.000 F 
ATOM      4  C   UNL     1       3.064   3.227  18.953  0.00  0.00    +0.000 A 
ATOM      5  C   UNL     1       2.612   4.503  19.336  0.00  0.00    +0.000 A 
ATOM      6  C   UNL     1       1.834   4.703  20.571  0.00  0.00    +0.000 A 
ATOM      7  O   UNL     1       1.564   3.793  21.348  0.00  0.00    +0.000 OA
ATOM      8  C   UNL     1       1.415   6.078  20.882  0.00  0.00    +0.000 A 
ATOM      9  C   UNL     1       1.765   7.075  20.059  0.00  0.00    +0.000 A 
ATOM     10  O   UNL     1       2.536   6.902  18.923  0.00  0.00    +0.000 OA
ATOM     11  C   UNL     1       2.947   5.634  18.590  0.00  0.00    +0.000 A 
ATOM     12  C   UNL     1       3.748   5.502  17.456  0.00  0.00    +0.000 A 
ATOM     13  F   UNL     1       4.054   6.597  16.745  0.00  0.00    +0.000 F 
ENDROOT
BRANCH   9  14
ATOM     14  C   UNL     1       1.353   8.473  20.311  0.00  0.00    +0.000 A 
ATOM     15  C   UNL     1       1.046   8.909  21.610  0.00  0.00    +0.000 A 
ATOM     16  C   UNL     1       0.714  10.248  21.867  0.00  0.00    +0.000 A 
ATOM     17  C   UNL     1       0.643  11.176  20.828  0.00  0.00    +0.000 A 
ATOM     18  C   UNL     1       0.987  10.744  19.543  0.00  0.00    +0.000 A 
ATOM     19  F   UNL     1       0.989  11.624  18.528  0.00  0.00    +0.000 F 
ATOM     20  C   UNL     1       1.323   9.419  19.276  0.00  0.00    +0.000 A 
BRANCH  17  21
ATOM     21  N   UNL     1       0.471  12.541  21.106  0.00  0.00    +0.000 N 
ATOM     22  H   UNL     1       0.170  13.100  20.315  0.00  0.00    +0.000 HD
ATOM     23  H   UNL     1       1.265  12.943  21.600  0.00  0.00    +0.000 HD
ENDBRANCH  17  21
ENDBRANCH   9  14
BRANCH   4  24
ATOM     24  N   UNL     1       2.574   2.047  19.548  0.00  0.00    +0.000 N 
ATOM     25  H   UNL     1       3.088   1.750  20.374  0.00  0.00    +0.000 HD
ATOM     26  H   UNL     1       1.557   2.053  19.677  0.00  0.00    +0.000 HD
ENDBRANCH   4  24
BRANCH   1  27
ATOM     27  C   UNL     1       5.202   4.122  15.905  0.00  0.00    +0.000 C 
BRANCH  27  29
ATOM     28  C   UNL     1       7.267   4.541  17.143  0.00  0.00    +0.000 C 
ATOM     29  N   UNL     1       6.405   4.967  16.040  0.00  0.00    +0.000 NA
ATOM     30  C   UNL     1       7.164   4.963  14.788  0.00  0.00    +0.000 C 
ENDBRANCH  27  29
ENDBRANCH   1  27
TORSDOF 5
ENDMDL
MODEL 4
REMARK VINA RESULT:      -7.6      1.169      1.623
REMARK  Name = 
REMARK  7 active torsions:
REMARK  status: ('A' for Active; 'I' for Inactive)
REMARK    1  A    between atoms: C_1  and  N_2
REMARK    2  A    between atoms: N_2  and  C_3
REMARK    3  A    between atoms: N_2  and  C_4
REMARK    4  A    between atoms: C_4  and  C_5
REMARK    5  A    between atoms: C_8  and  N_9
REMARK    6  A    between atoms: C_14  and  C_15
REMARK    7  A    between atoms: C_18  and  N_19
REMARK                            x       y       z     vdW  Elec       q    Type
REMARK                         _______ _______ _______ _____ _____    ______ ____
ROOT
ATOM      1  C   UNL     1       4.218   5.289  17.060  0.00  0.00    +0.000 A 
ATOM      2  C   UNL     1       4.034   4.060  17.700  0.00  0.00    +0.000 A 
ATOM      3  F   UNL     1       4.602   2.959  17.180  0.00  0.00    +0.000 F 
ATOM      4  C   UNL     1       3.301   3.934  18.892  0.00  0.00    +0.000 A 
ATOM      5  C   UNL     1       2.697   5.092  19.415  0.00  0.00    +0.000 A 
ATOM      6  C   UNL     1       1.970   5.067  20.696  0.00  0.00    +0.000 A 
ATOM      7  O   UNL     1       1.874   4.062  21.392  0.00  0.00    +0.000 OA
ATOM      8  C   UNL     1       1.382   6.334  21.156  0.00  0.00    +0.000 A 
ATOM      9  C   UNL     1       1.543   7.440  20.419  0.00  0.00    +0.000 A 
ATOM     10  O   UNL     1       2.264   7.482  19.239  0.00  0.00    +0.000 OA
ATOM     11  C   UNL     1       2.829   6.322  18.768  0.00  0.00    +0.000 A 
ATOM     12  C   UNL     1       3.575   6.408  17.593  0.00  0.00    +0.000 A 
ATOM     13  F   UNL     1       3.685   7.595  16.978  0.00  0.00    +0.000 F 
ENDROOT
BRANCH   9  14
ATOM     14  C   UNL     1       0.955   8.737  20.822  0.00  0.00    +0.000 A 
ATOM     15  C   UNL     1       0.434   8.919  22.113  0.00  0.00    +0.000 A 
ATOM     16  C   UNL     1      -0.069  10.162  22.524  0.00  0.00    +0.000 A 
ATOM     17  C   UNL     1      -0.101  11.244  21.643  0.00  0.00    +0.000 A 
ATOM     18  C   UNL     1       0.453  11.066  20.371  0.00  0.00    +0.000 A 
ATOM     19  F   UNL     1       0.496  12.102  19.518  0.00  0.00    +0.000 F 
ATOM     20  C   UNL     1       0.961   9.838  19.954  0.00  0.00    +0.000 A 
BRANCH  17  21
ATOM     21  N   UNL     1      -0.452  12.523  22.102  0.00  0.00    +0.000 N 
ATOM     22  H   UNL     1       0.018  13.287  21.629  0.00  0.00    +0.000 HD
ATOM     23  H   UNL     1      -0.416  12.598  23.117  0.00  0.00    +0.000 HD
ENDBRANCH  17  21
ENDBRANCH   9  14
BRANCH   4  24
ATOM     24  N   UNL     1       3.014   2.647  19.391  0.00  0.00    +0.000 N 
ATOM     25  H   UNL     1       2.796   2.623  20.384  0.00  0.00    +0.000 HD
ATOM     26  H   UNL     1       2.346   2.130  18.809  0.00  0.00    +0.000 HD
ENDBRANCH   4  24
BRANCH   1  27
ATOM     27  C   UNL     1       5.118   5.396  15.855  0.00  0.00    +0.000 C 
BRANCH  27  29
ATOM     28  C   UNL     1       7.323   4.867  14.946  0.00  0.00    +0.000 C 
ATOM     29  N   UNL     1       6.533   5.103  16.155  0.00  0.00    +0.000 NA
ATOM     30  C   UNL     1       7.121   6.201  16.924  0.00  0.00    +0.000 C 
ENDBRANCH  27  29
ENDBRANCH   1  27
TORSDOF 5
ENDMDL
MODEL 5
REMARK VINA RESULT:      -7.5      2.171      3.892
REMARK  Name = 
REMARK  7 active torsions:
REMARK  status: ('A' for Active; 'I' for Inactive)
REMARK    1  A    between atoms: C_1  and  N_2
REMARK    2  A    between atoms: N_2  and  C_3
REMARK    3  A    between atoms: N_2  and  C_4
REMARK    4  A    between atoms: C_4  and  C_5
REMARK    5  A    between atoms: C_8  and  N_9
REMARK    6  A    between atoms: C_14  and  C_15
REMARK    7  A    between atoms: C_18  and  N_19
REMARK                            x       y       z     vdW  Elec       q    Type
REMARK                         _______ _______ _______ _____ _____    ______ ____
ROOT
ATOM      1  C   UNL     1       3.458   4.416  19.596  0.00  0.00    +0.000 A 
ATOM      2  C   UNL     1       4.027   4.833  18.389  0.00  0.00    +0.000 A 
ATOM      3  F   UNL     1       4.833   3.991  17.720  0.00  0.00    +0.000 F 
ATOM      4  C   UNL     1       3.763   6.093  17.826  0.00  0.00    +0.000 A 
ATOM      5  C   UNL     1       2.931   6.969  18.546  0.00  0.00    +0.000 A 
ATOM      6  C   UNL     1       2.542   8.281  18.000  0.00  0.00    +0.000 A 
ATOM      7  O   UNL     1       2.885   8.672  16.889  0.00  0.00    +0.000 OA
ATOM      8  C   UNL     1       1.664   9.118  18.831  0.00  0.00    +0.000 A 
ATOM      9  C   UNL     1       1.245   8.658  20.017  0.00  0.00    +0.000 A 
ATOM     10  O   UNL     1       1.567   7.408  20.516  0.00  0.00    +0.000 OA
ATOM     11  C   UNL     1       2.388   6.592  19.776  0.00  0.00    +0.000 A 
ATOM     12  C   UNL     1       2.665   5.328  20.296  0.00  0.00    +0.000 A 
ATOM     13  F   UNL     1       2.144   4.984  21.482  0.00  0.00    +0.000 F 
ENDROOT
BRANCH   9  14
ATOM     14  C   UNL     1       0.379   9.466  20.904  0.00  0.00    +0.000 A 
ATOM     15  C   UNL     1       0.281   9.172  22.273  0.00  0.00    +0.000 A 
ATOM     16  C   UNL     1      -0.489   9.969  23.133  0.00  0.00    +0.000 A 
ATOM     17  C   UNL     1      -1.210  11.057  22.640  0.00  0.00    +0.000 A 
ATOM     18  C   UNL     1      -1.078  11.367  21.283  0.00  0.00    +0.000 A 
ATOM     19  F   UNL     1      -1.709  12.442  20.786  0.00  0.00    +0.000 F 
ATOM     20  C   UNL     1      -0.312  10.585  20.420  0.00  0.00    +0.000 A 
BRANCH  17  21
ATOM     21  N   UNL     1      -1.845  11.945  23.522  0.00  0.00    +0.000 N 
ATOM     22  H   UNL     1      -1.280  12.738  23.806  0.00  0.00    +0.000 HD
ATOM     23  H   UNL     1      -2.288  11.469  24.306  0.00  0.00    +0.000 HD
ENDBRANCH  17  21
ENDBRANCH   9  14
BRANCH   4  24
ATOM     24  N   UNL     1       4.498   6.511  16.698  0.00  0.00    +0.000 N 
ATOM     25  H   UNL     1       4.551   5.819  15.954  0.00  0.00    +0.000 HD
ATOM     26  H   UNL     1       4.236   7.447  16.372  0.00  0.00    +0.000 HD
ENDBRANCH   4  24
BRANCH   1  27
ATOM     27  C   UNL     1       3.670   3.010  20.096  0.00  0.00    +0.000 C 
BRANCH  27  29
ATOM     28  C   UNL     1       1.519   2.607  19.009  0.00  0.00    +0.000 C 
ATOM     29  N   UNL     1       2.787   2.021  19.447  0.00  0.00    +0.000 NA
ATOM     30  C   UNL     1       3.471   1.409  18.306  0.00  0.00    +0.000 C 
ENDBRANCH  27  29
ENDBRANCH   1  27
TORSDOF 5
ENDMDL
MODEL 6
REMARK VINA RESULT:      -7.3      3.092      8.099
REMARK  Name = 
REMARK  7 active torsions:
REMARK  status: ('A' for Active; 'I' for Inactive)
REMARK    1  A    between atoms: C_1  and  N_2
REMARK    2  A    between atoms: N_2  and  C_3
REMARK    3  A    between atoms: N_2  and  C_4
REMARK    4  A    between atoms: C_4  and  C_5
REMARK    5  A    between atoms: C_8  and  N_9
REMARK    6  A    between atoms: C_14  and  C_15
REMARK    7  A    between atoms: C_18  and  N_19
REMARK                            x       y       z     vdW  Elec       q    Type
REMARK                         _______ _______ _______ _____ _____    ______ ____
ROOT
ATOM      1  C   UNL     1      -1.231  11.351  18.661  0.00  0.00    +0.000 A 
ATOM      2  C   UNL     1      -1.235  11.958  19.920  0.00  0.00    +0.000 A 
ATOM      3  F   UNL     1      -1.925  13.097  20.095  0.00  0.00    +0.000 F 
ATOM      4  C   UNL     1      -0.568  11.404  21.026  0.00  0.00    +0.000 A 
ATOM      5  C   UNL     1       0.164  10.220  20.823  0.00  0.00    +0.000 A 
ATOM      6  C   UNL     1       0.835   9.532  21.940  0.00  0.00    +0.000 A 
ATOM      7  O   UNL     1       0.771   9.921  23.101  0.00  0.00    +0.000 OA
ATOM      8  C   UNL     1       1.569   8.298  21.620  0.00  0.00    +0.000 A 
ATOM      9  C   UNL     1       1.583   7.849  20.359  0.00  0.00    +0.000 A 
ATOM     10  O   UNL     1       0.916   8.463  19.314  0.00  0.00    +0.000 OA
ATOM     11  C   UNL     1       0.220   9.621  19.564  0.00  0.00    +0.000 A 
ATOM     12  C   UNL     1      -0.465  10.195  18.493  0.00  0.00    +0.000 A 
ATOM     13  F   UNL     1      -0.394   9.613  17.288  0.00  0.00    +0.000 F 
ENDROOT
BRANCH   9  14
ATOM     14  C   UNL     1       2.323   6.626  19.976  0.00  0.00    +0.000 A 
ATOM     15  C   UNL     1       3.273   6.655  18.942  0.00  0.00    +0.000 A 
ATOM     16  C   UNL     1       4.023   5.517  18.614  0.00  0.00    +0.000 A 
ATOM     17  C   UNL     1       3.818   4.310  19.284  0.00  0.00    +0.000 A 
ATOM     18  C   UNL     1       2.898   4.298  20.337  0.00  0.00    +0.000 A 
ATOM     19  F   UNL     1       2.717   3.171  21.044  0.00  0.00    +0.000 F 
ATOM     20  C   UNL     1       2.150   5.423  20.676  0.00  0.00    +0.000 A 
BRANCH  17  21
ATOM     21  N   UNL     1       4.677   3.223  19.067  0.00  0.00    +0.000 N 
ATOM     22  H   UNL     1       5.654   3.470  18.949  0.00  0.00    +0.000 HD
ATOM     23  H   UNL     1       4.335   2.592  18.344  0.00  0.00    +0.000 HD
ENDBRANCH  17  21
ENDBRANCH   9  14
BRANCH   4  24
ATOM     24  N   UNL     1      -0.473  12.151  22.218  0.00  0.00    +0.000 N 
ATOM     25  H   UNL     1       0.228  12.887  22.194  0.00  0.00    +0.000 HD
ATOM     26  H   UNL     1      -1.385  12.462  22.571  0.00  0.00    +0.000 HD
ENDBRANCH   4  24
BRANCH   1  27
ATOM     27  C   UNL     1      -2.064  11.914  17.538  0.00  0.00    +0.000 C 
BRANCH  27  29
ATOM     28  C   UNL     1      -4.481  11.554  17.505  0.00  0.00    +0.000 C 
ATOM     29  N   UNL     1      -3.169  11.025  17.129  0.00  0.00    +0.000 NA
ATOM     30  C   UNL     1      -3.123  10.801  15.683  0.00  0.00    +0.000 C 
ENDBRANCH  27  29
ENDBRANCH   1  27
TORSDOF 5
ENDMDL
MODEL 7
REMARK VINA RESULT:      -7.3      2.888      8.626
REMARK  Name = 
REMARK  7 active torsions:
REMARK  status: ('A' for Active; 'I' for Inactive)
REMARK    1  A    between atoms: C_1  and  N_2
REMARK    2  A    between atoms: N_2  and  C_3
REMARK    3  A    between atoms: N_2  and  C_4
REMARK    4  A    between atoms: C_4  and  C_5
REMARK    5  A    between atoms: C_8  and  N_9
REMARK    6  A    between atoms: C_14  and  C_15
REMARK    7  A    between atoms: C_18  and  N_19
REMARK                            x       y       z     vdW  Elec       q    Type
REMARK                         _______ _______ _______ _____ _____    ______ ____
ROOT
ATOM      1  C   UNL     1      -0.439  10.943  21.730  0.00  0.00    +0.000 A 
ATOM      2  C   UNL     1      -0.311  11.729  20.581  0.00  0.00    +0.000 A 
ATOM      3  F   UNL     1      -0.853  12.958  20.565  0.00  0.00    +0.000 F 
ATOM      4  C   UNL     1       0.394  11.295  19.446  0.00  0.00    +0.000 A 
ATOM      5  C   UNL     1       0.941   9.999  19.471  0.00  0.00    +0.000 A 
ATOM      6  C   UNL     1       1.756   9.488  18.355  0.00  0.00    +0.000 A 
ATOM      7  O   UNL     1       2.032  10.159  17.366  0.00  0.00    +0.000 OA
ATOM      8  C   UNL     1       2.286   8.122  18.485  0.00  0.00    +0.000 A 
ATOM      9  C   UNL     1       2.029   7.419  19.594  0.00  0.00    +0.000 A 
ATOM     10  O   UNL     1       1.305   7.909  20.667  0.00  0.00    +0.000 OA
ATOM     11  C   UNL     1       0.787   9.179  20.590  0.00  0.00    +0.000 A 
ATOM     12  C   UNL     1       0.089   9.651  21.702  0.00  0.00    +0.000 A 
ATOM     13  F   UNL     1      -0.059   8.848  22.766  0.00  0.00    +0.000 F 
ENDROOT
BRANCH   9  14
ATOM     14  C   UNL     1       2.517   6.034  19.769  0.00  0.00    +0.000 A 
ATOM     15  C   UNL     1       3.652   5.579  19.077  0.00  0.00    +0.000 A 
ATOM     16  C   UNL     1       4.158   4.287  19.283  0.00  0.00    +0.000 A 
ATOM     17  C   UNL     1       3.522   3.404  20.156  0.00  0.00    +0.000 A 
ATOM     18  C   UNL     1       2.415   3.875  20.869  0.00  0.00    +0.000 A 
ATOM     19  F   UNL     1       1.814   3.073  21.763  0.00  0.00    +0.000 F 
ATOM     20  C   UNL     1       1.906   5.157  20.677  0.00  0.00    +0.000 A 
BRANCH  17  21
ATOM     21  N   UNL     1       4.119   2.176  20.482  0.00  0.00    +0.000 N 
ATOM     22  H   UNL     1       3.944   1.430  19.817  0.00  0.00    +0.000 HD
ATOM     23  H   UNL     1       3.945   1.901  21.446  0.00  0.00    +0.000 HD
ENDBRANCH  17  21
ENDBRANCH   9  14
BRANCH   4  24
ATOM     24  N   UNL     1       0.341  12.066  18.267  0.00  0.00    +0.000 N 
ATOM     25  H   UNL     1       1.159  12.650  18.113  0.00  0.00    +0.000 HD
ATOM     26  H   UNL     1       0.062  11.522  17.443  0.00  0.00    +0.000 HD
ENDBRANCH   4  24
BRANCH   1  27
ATOM     27  C   UNL     1      -1.095  11.500  22.968  0.00  0.00    +0.000 C 
BRANCH  27  29
ATOM     28  C   UNL     1      -3.328  12.491  22.938  0.00  0.00    +0.000 C 
ATOM     29  N   UNL     1      -1.899  12.710  22.708  0.00  0.00    +0.000 NA
ATOM     30  C   UNL     1      -1.427  13.816  23.543  0.00  0.00    +0.000 C 
ENDBRANCH  27  29
ENDBRANCH   1  27
TORSDOF 5
ENDMDL
MODEL 8
REMARK VINA RESULT:      -7.3      1.988      3.648
REMARK  Name = 
REMARK  7 active torsions:
REMARK  status: ('A' for Active; 'I' for Inactive)
REMARK    1  A    between atoms: C_1  and  N_2
REMARK    2  A    between atoms: N_2  and  C_3
REMARK    3  A    between atoms: N_2  and  C_4
REMARK    4  A    between atoms: C_4  and  C_5
REMARK    5  A    between atoms: C_8  and  N_9
REMARK    6  A    between atoms: C_14  and  C_15
REMARK    7  A    between atoms: C_18  and  N_19
REMARK                            x       y       z     vdW  Elec       q    Type
REMARK                         _______ _______ _______ _____ _____    ______ ____
ROOT
ATOM      1  C   UNL     1       3.630   4.216  19.513  0.00  0.00    +0.000 A 
ATOM      2  C   UNL     1       4.199   4.584  18.290  0.00  0.00    +0.000 A 
ATOM      3  F   UNL     1       4.978   3.704  17.639  0.00  0.00    +0.000 F 
ATOM      4  C   UNL     1       3.962   5.835  17.696  0.00  0.00    +0.000 A 
ATOM      5  C   UNL     1       3.159   6.752  18.398  0.00  0.00    +0.000 A 
ATOM      6  C   UNL     1       2.799   8.058  17.819  0.00  0.00    +0.000 A 
ATOM      7  O   UNL     1       3.143   8.410  16.695  0.00  0.00    +0.000 OA
ATOM      8  C   UNL     1       1.950   8.939  18.634  0.00  0.00    +0.000 A 
ATOM      9  C   UNL     1       1.530   8.522  19.835  0.00  0.00    +0.000 A 
ATOM     10  O   UNL     1       1.824   7.279  20.366  0.00  0.00    +0.000 OA
ATOM     11  C   UNL     1       2.617   6.422  19.642  0.00  0.00    +0.000 A 
ATOM     12  C   UNL     1       2.867   5.166  20.194  0.00  0.00    +0.000 A 
ATOM     13  F   UNL     1       2.347   4.868  21.393  0.00  0.00    +0.000 F 
ENDROOT
BRANCH   9  14
ATOM     14  C   UNL     1       0.692   9.376  20.706  0.00  0.00    +0.000 A 
ATOM     15  C   UNL     1      -0.102  10.399  20.162  0.00  0.00    +0.000 A 
ATOM     16  C   UNL     1      -0.945  11.172  20.972  0.00  0.00    +0.000 A 
ATOM     17  C   UNL     1      -0.990  10.969  22.352  0.00  0.00    +0.000 A 
ATOM     18  C   UNL     1      -0.226   9.925  22.883  0.00  0.00    +0.000 A 
ATOM     19  F   UNL     1      -0.289   9.661  24.198  0.00  0.00    +0.000 F 
ATOM     20  C   UNL     1       0.613   9.147  22.087  0.00  0.00    +0.000 A 
BRANCH  17  21
ATOM     21  N   UNL     1      -1.948  11.629  23.136  0.00  0.00    +0.000 N 
ATOM     22  H   UNL     1      -2.852  11.749  22.690  0.00  0.00    +0.000 HD
ATOM     23  H   UNL     1      -1.591  12.487  23.551  0.00  0.00    +0.000 HD
ENDBRANCH  17  21
ENDBRANCH   9  14
BRANCH   4  24
ATOM     24  N   UNL     1       4.698   6.203  16.551  0.00  0.00    +0.000 N 
ATOM     25  H   UNL     1       5.661   5.875  16.551  0.00  0.00    +0.000 HD
ATOM     26  H   UNL     1       4.199   6.017  15.675  0.00  0.00    +0.000 HD
ENDBRANCH   4  24
BRANCH   1  27
ATOM     27  C   UNL     1       3.811   2.818  20.049  0.00  0.00    +0.000 C 
BRANCH  27  29
ATOM     28  C   UNL     1       1.595   2.417  19.100  0.00  0.00    +0.000 C 
ATOM     29  N   UNL     1       2.895   1.835  19.437  0.00  0.00    +0.000 NA
ATOM     30  C   UNL     1       3.506   1.260  18.237  0.00  0.00    +0.000 C 
ENDBRANCH  27  29
ENDBRANCH   1  27
TORSDOF 5
ENDMDL
MODEL 9
REMARK VINA RESULT:      -7.3      3.038      8.322
REMARK  Name = 
REMARK  7 active torsions:
REMARK  status: ('A' for Active; 'I' for Inactive)
REMARK    1  A    between atoms: C_1  and  N_2
REMARK    2  A    between atoms: N_2  and  C_3
REMARK    3  A    between atoms: N_2  and  C_4
REMARK    4  A    between atoms: C_4  and  C_5
REMARK    5  A    between atoms: C_8  and  N_9
REMARK    6  A    between atoms: C_14  and  C_15
REMARK    7  A    between atoms: C_18  and  N_19
REMARK                            x       y       z     vdW  Elec       q    Type
REMARK                         _______ _______ _______ _____ _____    ______ ____
ROOT
ATOM      1  C   UNL     1      -1.510  11.388  19.027  0.00  0.00    +0.000 A 
ATOM      2  C   UNL     1      -1.509  11.857  20.343  0.00  0.00    +0.000 A 
ATOM      3  F   UNL     1      -2.273  12.915  20.662  0.00  0.00    +0.000 F 
ATOM      4  C   UNL     1      -0.761  11.242  21.362  0.00  0.00    +0.000 A 
ATOM      5  C   UNL     1       0.047  10.146  21.009  0.00  0.00    +0.000 A 
ATOM      6  C   UNL     1       0.809   9.397  22.024  0.00  0.00    +0.000 A 
ATOM      7  O   UNL     1       0.763   9.655  23.222  0.00  0.00    +0.000 OA
ATOM      8  C   UNL     1       1.618   8.264  21.549  0.00  0.00    +0.000 A 
ATOM      9  C   UNL     1       1.616   7.952  20.247  0.00  0.00    +0.000 A 
ATOM     10  O   UNL     1       0.866   8.621  19.296  0.00  0.00    +0.000 OA
ATOM     11  C   UNL     1       0.098   9.689  19.691  0.00  0.00    +0.000 A 
ATOM     12  C   UNL     1      -0.669  10.319  18.711  0.00  0.00    +0.000 A 
ATOM     13  F   UNL     1      -0.603   9.875  17.448  0.00  0.00    +0.000 F 
ENDROOT
BRANCH   9  14
ATOM     14  C   UNL     1       2.428   6.838  19.712  0.00  0.00    +0.000 A 
ATOM     15  C   UNL     1       2.523   5.620  20.406  0.00  0.00    +0.000 A 
ATOM     16  C   UNL     1       3.240   4.537  19.876  0.00  0.00    +0.000 A 
ATOM     17  C   UNL     1       3.911   4.655  18.659  0.00  0.00    +0.000 A 
ATOM     18  C   UNL     1       3.782   5.856  17.955  0.00  0.00    +0.000 A 
ATOM     19  F   UNL     1       4.364   5.985  16.752  0.00  0.00    +0.000 F 
ATOM     20  C   UNL     1       3.068   6.937  18.469  0.00  0.00    +0.000 A 
BRANCH  17  21
ATOM     21  N   UNL     1       4.489   3.527  18.056  0.00  0.00    +0.000 N 
ATOM     22  H   UNL     1       4.605   2.729  18.672  0.00  0.00    +0.000 HD
ATOM     23  H   UNL     1       5.332   3.752  17.530  0.00  0.00    +0.000 HD
ENDBRANCH  17  21
ENDBRANCH   9  14
BRANCH   4  24
ATOM     24  N   UNL     1      -0.675  11.865  22.624  0.00  0.00    +0.000 N 
ATOM     25  H   UNL     1      -0.021  12.643  22.661  0.00  0.00    +0.000 HD
ATOM     26  H   UNL     1      -1.592  12.076  23.031  0.00  0.00    +0.000 HD
ENDBRANCH   4  24
BRANCH   1  27
ATOM     27  C   UNL     1      -2.425  12.002  17.997  0.00  0.00    +0.000 C 
BRANCH  27  29
ATOM     28  C   UNL     1      -4.819  11.632  18.321  0.00  0.00    +0.000 C 
ATOM     29  N   UNL     1      -3.593  11.157  17.677  0.00  0.00    +0.000 NA
ATOM     30  C   UNL     1      -3.786  11.096  16.227  0.00  0.00    +0.000 C 
ENDBRANCH  27  29
ENDBRANCH   1  27
TORSDOF 5
ENDMDL
