MODEL 1
REMARK VINA RESULT:      -9.1      0.000      0.000
REMARK  Name = 
REMARK  8 active torsions:
REMARK  status: ('A' for Active; 'I' for Inactive)
REMARK    1  A    between atoms: C_1  and  C_2
REMARK    2  A    between atoms: N_5  and  C_6
REMARK    3  A    between atoms: C_6  and  C_7
REMARK    4  A    between atoms: C_6  and  C_8
REMARK    5  A    between atoms: C_12  and  C_13
REMARK    6  A    between atoms: C_14  and  C_15
REMARK    7  A    between atoms: C_18  and  C_19
REMARK    8  A    between atoms: C_22  and  C_23
REMARK                            x       y       z     vdW  Elec       q    Type
REMARK                         _______ _______ _______ _____ _____    ______ ____
ROOT
ATOM      1  C   UNL     1       0.038   9.498  23.165  0.00  0.00    +0.000 C 
ATOM      2  C   UNL     1       0.423   9.409  21.721  0.00  0.00    +0.000 A 
ATOM      3  N   UNL     1       0.150  10.459  20.927  0.00  0.00    +0.000 NA
ATOM      4  C   UNL     1       0.584  10.398  19.661  0.00  0.00    +0.000 A 
ATOM      5  N   UNL     1       0.338  11.439  18.762  0.00  0.00    +0.000 N 
ATOM      6  C   UNL     1       1.272   9.303  19.185  0.00  0.00    +0.000 A 
ATOM      7  C   UNL     1       1.450   8.234  20.040  0.00  0.00    +0.000 A 
ATOM      8  N   UNL     1       1.035   8.283  21.321  0.00  0.00    +0.000 NA
ATOM      9  H   UNL     1       1.196  11.905  18.491  0.00  0.00    +0.000 HD
ENDROOT
BRANCH   7  10
ATOM     10  C   UNL     1       2.066   6.963  19.605  0.00  0.00    +0.000 A 
ATOM     11  C   UNL     1       2.782   6.890  18.398  0.00  0.00    +0.000 A 
ATOM     12  C   UNL     1       3.388   5.703  17.964  0.00  0.00    +0.000 A 
ATOM     13  C   UNL     1       3.280   4.538  18.745  0.00  0.00    +0.000 A 
ATOM     14  N   UNL     1       3.816   3.298  18.441  0.00  0.00    +0.000 NA
ATOM     15  C   UNL     1       3.511   2.444  19.391  0.00  0.00    +0.000 A 
ATOM     16  S   UNL     1       2.589   3.054  20.696  0.00  0.00    +0.000 S 
ATOM     17  C   UNL     1       2.569   4.605  19.943  0.00  0.00    +0.000 A 
ATOM     18  C   UNL     1       1.962   5.794  20.387  0.00  0.00    +0.000 A 
ENDBRANCH   7  10
BRANCH   5  19
ATOM     19  C   UNL     1      -0.774  12.335  19.054  0.00  0.00    +0.000 C 
ATOM     20  C   UNL     1      -0.534  13.767  18.574  0.00  0.00    +0.000 C 
BRANCH  19  21
ATOM     21  C   UNL     1      -2.025  11.756  18.397  0.00  0.00    +0.000 A 
ATOM     22  C   UNL     1      -1.999  11.181  17.118  0.00  0.00    +0.000 A 
ATOM     23  C   UNL     1      -3.182  10.784  16.503  0.00  0.00    +0.000 A 
ATOM     24  C   UNL     1      -4.407  10.974  17.149  0.00  0.00    +0.000 A 
ATOM     25  C   UNL     1      -4.465  11.496  18.448  0.00  0.00    +0.000 A 
ATOM     26  C   UNL     1      -3.257  11.840  19.070  0.00  0.00    +0.000 A 
BRANCH  25  27
ATOM     27  C   UNL     1      -5.736  11.734  19.129  0.00  0.00    +0.000 A 
ATOM     28  C   UNL     1      -6.342  12.946  19.595  0.00  0.00    +0.000 A 
ATOM     29  C   UNL     1      -5.882  14.355  19.522  0.00  0.00    +0.000 C 
ATOM     30  N   UNL     1      -7.526  12.710  20.173  0.00  0.00    +0.000 NA
ATOM     31  O   UNL     1      -7.725  11.356  20.089  0.00  0.00    +0.000 OA
ATOM     32  C   UNL     1      -6.670  10.767  19.466  0.00  0.00    +0.000 A 
ATOM     33  C   UNL     1      -6.785   9.302  19.323  0.00  0.00    +0.000 C 
ENDBRANCH  25  27
ENDBRANCH  19  21
ENDBRANCH   5  19
TORSDOF 4
ENDMDL
MODEL 2
REMARK VINA RESULT:      -9.1      0.409      1.452
REMARK  Name = 
REMARK  8 active torsions:
REMARK  status: ('A' for Active; 'I' for Inactive)
REMARK    1  A    between atoms: C_1  and  C_2
REMARK    2  A    between atoms: N_5  and  C_6
REMARK    3  A    between atoms: C_6  and  C_7
REMARK    4  A    between atoms: C_6  and  C_8
REMARK    5  A    between atoms: C_12  and  C_13
REMARK    6  A    between atoms: C_14  and  C_15
REMARK    7  A    between atoms: C_18  and  C_19
REMARK    8  A    between atoms: C_22  and  C_23
REMARK                            x       y       z     vdW  Elec       q    Type
REMARK                         _______ _______ _______ _____ _____    ______ ____
ROOT
ATOM      1  C   UNL     1      -0.015   9.664  23.276  0.00  0.00    +0.000 C 
ATOM      2  C   UNL     1       0.381   9.548  21.837  0.00  0.00    +0.000 A 
ATOM      3  N   UNL     1       0.139  10.595  21.027  0.00  0.00    +0.000 NA
ATOM      4  C   UNL     1       0.582  10.508  19.766  0.00  0.00    +0.000 A 
ATOM      5  N   UNL     1       0.367  11.543  18.853  0.00  0.00    +0.000 N 
ATOM      6  C   UNL     1       1.251   9.393  19.310  0.00  0.00    +0.000 A 
ATOM      7  C   UNL     1       1.398   8.331  20.180  0.00  0.00    +0.000 A 
ATOM      8  N   UNL     1       0.972   8.405  21.457  0.00  0.00    +0.000 NA
ATOM      9  H   UNL     1       1.237  11.987  18.584  0.00  0.00    +0.000 HD
ENDROOT
BRANCH   7  10
ATOM     10  C   UNL     1       1.989   7.041  19.766  0.00  0.00    +0.000 A 
ATOM     11  C   UNL     1       2.688   6.931  18.552  0.00  0.00    +0.000 A 
ATOM     12  C   UNL     1       3.271   5.725  18.137  0.00  0.00    +0.000 A 
ATOM     13  C   UNL     1       3.156   4.580  18.946  0.00  0.00    +0.000 A 
ATOM     14  N   UNL     1       3.671   3.326  18.663  0.00  0.00    +0.000 NA
ATOM     15  C   UNL     1       3.367   2.498  19.637  0.00  0.00    +0.000 A 
ATOM     16  S   UNL     1       2.471   3.151  20.940  0.00  0.00    +0.000 S 
ATOM     17  C   UNL     1       2.463   4.684  20.152  0.00  0.00    +0.000 A 
ATOM     18  C   UNL     1       1.878   5.892  20.576  0.00  0.00    +0.000 A 
ENDBRANCH   7  10
BRANCH   5  19
ATOM     19  C   UNL     1      -0.727  12.466  19.124  0.00  0.00    +0.000 C 
ATOM     20  C   UNL     1      -0.455  13.885  18.622  0.00  0.00    +0.000 C 
BRANCH  19  21
ATOM     21  C   UNL     1      -1.987  11.903  18.468  0.00  0.00    +0.000 A 
ATOM     22  C   UNL     1      -1.983  11.387  17.165  0.00  0.00    +0.000 A 
ATOM     23  C   UNL     1      -3.176  11.003  16.559  0.00  0.00    +0.000 A 
ATOM     24  C   UNL     1      -4.387  11.150  17.239  0.00  0.00    +0.000 A 
ATOM     25  C   UNL     1      -4.422  11.611  18.562  0.00  0.00    +0.000 A 
ATOM     26  C   UNL     1      -3.204  11.942  19.171  0.00  0.00    +0.000 A 
BRANCH  25  27
ATOM     27  C   UNL     1      -5.680  11.803  19.280  0.00  0.00    +0.000 A 
ATOM     28  C   UNL     1      -6.730  10.882  19.602  0.00  0.00    +0.000 A 
ATOM     29  C   UNL     1      -6.873   9.431  19.324  0.00  0.00    +0.000 C 
ATOM     30  N   UNL     1      -7.717  11.484  20.278  0.00  0.00    +0.000 NA
ATOM     31  O   UNL     1      -7.334  12.793  20.423  0.00  0.00    +0.000 OA
ATOM     32  C   UNL     1      -6.123  12.991  19.837  0.00  0.00    +0.000 A 
ATOM     33  C   UNL     1      -5.617  14.375  19.938  0.00  0.00    +0.000 C 
ENDBRANCH  25  27
ENDBRANCH  19  21
ENDBRANCH   5  19
TORSDOF 4
ENDMDL
MODEL 3
REMARK VINA RESULT:      -9.0      0.919      1.267
REMARK  Name = 
REMARK  8 active torsions:
REMARK  status: ('A' for Active; 'I' for Inactive)
REMARK    1  A    between atoms: C_1  and  C_2
REMARK    2  A    between atoms: N_5  and  C_6
REMARK    3  A    between atoms: C_6  and  C_7
REMARK    4  A    between atoms: C_6  and  C_8
REMARK    5  A    between atoms: C_12  and  C_13
REMARK    6  A    between atoms: C_14  and  C_15
REMARK    7  A    between atoms: C_18  and  C_19
REMARK    8  A    between atoms: C_22  and  C_23
REMARK                            x       y       z     vdW  Elec       q    Type
REMARK                         _______ _______ _______ _____ _____    ______ ____
ROOT
ATOM      1  C   UNL     1       0.085   9.635  23.348  0.00  0.00    +0.000 C 
ATOM      2  C   UNL     1       0.441   9.495  21.901  0.00  0.00    +0.000 A 
ATOM      3  N   UNL     1       0.164  10.521  21.078  0.00  0.00    +0.000 NA
ATOM      4  C   UNL     1       0.574  10.415  19.807  0.00  0.00    +0.000 A 
ATOM      5  N   UNL     1       0.320  11.428  18.879  0.00  0.00    +0.000 N 
ATOM      6  C   UNL     1       1.243   9.298  19.354  0.00  0.00    +0.000 A 
ATOM      7  C   UNL     1       1.427   8.256  20.241  0.00  0.00    +0.000 A 
ATOM      8  N   UNL     1       1.036   8.351  21.527  0.00  0.00    +0.000 NA
ATOM      9  H   UNL     1       1.177  11.876  18.577  0.00  0.00    +0.000 HD
ENDROOT
BRANCH   7  10
ATOM     10  C   UNL     1       2.022   6.965  19.836  0.00  0.00    +0.000 A 
ATOM     11  C   UNL     1       1.752   5.793  20.563  0.00  0.00    +0.000 A 
ATOM     12  C   UNL     1       2.291   4.551  20.198  0.00  0.00    +0.000 A 
ATOM     13  C   UNL     1       3.135   4.460  19.076  0.00  0.00    +0.000 A 
ATOM     14  N   UNL     1       3.743   3.309  18.604  0.00  0.00    +0.000 NA
ATOM     15  C   UNL     1       4.464   3.598  17.545  0.00  0.00    +0.000 A 
ATOM     16  S   UNL     1       4.457   5.233  17.041  0.00  0.00    +0.000 S 
ATOM     17  C   UNL     1       3.407   5.620  18.352  0.00  0.00    +0.000 A 
ATOM     18  C   UNL     1       2.866   6.869  18.711  0.00  0.00    +0.000 A 
ENDBRANCH   7  10
BRANCH   5  19
ATOM     19  C   UNL     1      -0.777  12.344  19.162  0.00  0.00    +0.000 C 
ATOM     20  C   UNL     1      -0.496  13.777  18.710  0.00  0.00    +0.000 C 
BRANCH  19  21
ATOM     21  C   UNL     1      -2.027  11.803  18.470  0.00  0.00    +0.000 A 
ATOM     22  C   UNL     1      -1.991  11.271  17.173  0.00  0.00    +0.000 A 
ATOM     23  C   UNL     1      -3.171  10.909  16.530  0.00  0.00    +0.000 A 
ATOM     24  C   UNL     1      -4.401  11.093  17.166  0.00  0.00    +0.000 A 
ATOM     25  C   UNL     1      -4.471  11.570  18.482  0.00  0.00    +0.000 A 
ATOM     26  C   UNL     1      -3.267  11.879  19.130  0.00  0.00    +0.000 A 
BRANCH  25  27
ATOM     27  C   UNL     1      -5.747  11.801  19.154  0.00  0.00    +0.000 A 
ATOM     28  C   UNL     1      -6.360  13.009  19.624  0.00  0.00    +0.000 A 
ATOM     29  C   UNL     1      -5.902  14.419  19.564  0.00  0.00    +0.000 C 
ATOM     30  N   UNL     1      -7.548  12.766  20.191  0.00  0.00    +0.000 NA
ATOM     31  O   UNL     1      -7.743  11.411  20.096  0.00  0.00    +0.000 OA
ATOM     32  C   UNL     1      -6.681  10.830  19.478  0.00  0.00    +0.000 A 
ATOM     33  C   UNL     1      -6.792   9.365  19.324  0.00  0.00    +0.000 C 
ENDBRANCH  25  27
ENDBRANCH  19  21
ENDBRANCH   5  19
TORSDOF 4
ENDMDL
MODEL 4
REMARK VINA RESULT:      -8.9      0.999      1.192
REMARK  Name = 
REMARK  8 active torsions:
REMARK  status: ('A' for Active; 'I' for Inactive)
REMARK    1  A    between atoms: C_1  and  C_2
REMARK    2  A    between atoms: N_5  and  C_6
REMARK    3  A    between atoms: C_6  and  C_7
REMARK    4  A    between atoms: C_6  and  C_8
REMARK    5  A    between atoms: C_12  and  C_13
REMARK    6  A    between atoms: C_14  and  C_15
REMARK    7  A    between atoms: C_18  and  C_19
REMARK    8  A    between atoms: C_22  and  C_23
REMARK                            x       y       z     vdW  Elec       q    Type
REMARK                         _______ _______ _______ _____ _____    ______ ____
ROOT
ATOM      1  C   UNL     1       0.496   9.455  23.072  0.00  0.00    +0.000 C 
ATOM      2  C   UNL     1       0.801   9.316  21.614  0.00  0.00    +0.000 A 
ATOM      3  N   UNL     1       0.541  10.363  20.810  0.00  0.00    +0.000 NA
ATOM      4  C   UNL     1       0.906  10.253  19.525  0.00  0.00    +0.000 A 
ATOM      5  N   UNL     1       0.666  11.286  18.616  0.00  0.00    +0.000 N 
ATOM      6  C   UNL     1       1.514   9.115  19.041  0.00  0.00    +0.000 A 
ATOM      7  C   UNL     1       1.682   8.056  19.911  0.00  0.00    +0.000 A 
ATOM      8  N   UNL     1       1.336   8.153  21.211  0.00  0.00    +0.000 NA
ATOM      9  H   UNL     1       1.531  11.702  18.291  0.00  0.00    +0.000 HD
ENDROOT
BRANCH   7  10
ATOM     10  C   UNL     1       2.211   6.746  19.476  0.00  0.00    +0.000 A 
ATOM     11  C   UNL     1       2.781   6.593  18.202  0.00  0.00    +0.000 A 
ATOM     12  C   UNL     1       3.303   5.367  17.763  0.00  0.00    +0.000 A 
ATOM     13  C   UNL     1       3.256   4.246  18.612  0.00  0.00    +0.000 A 
ATOM     14  N   UNL     1       3.722   2.976  18.313  0.00  0.00    +0.000 NA
ATOM     15  C   UNL     1       3.506   2.180  19.335  0.00  0.00    +0.000 A 
ATOM     16  S   UNL     1       2.756   2.881  20.704  0.00  0.00    +0.000 S 
ATOM     17  C   UNL     1       2.690   4.393  19.878  0.00  0.00    +0.000 A 
ATOM     18  C   UNL     1       2.168   5.621  20.325  0.00  0.00    +0.000 A 
ENDBRANCH   7  10
BRANCH   5  19
ATOM     19  C   UNL     1      -0.383  12.242  18.942  0.00  0.00    +0.000 C 
ATOM     20  C   UNL     1      -0.223  13.581  18.219  0.00  0.00    +0.000 C 
BRANCH  19  21
ATOM     21  C   UNL     1      -1.725  11.604  18.587  0.00  0.00    +0.000 A 
ATOM     22  C   UNL     1      -1.827  10.534  17.686  0.00  0.00    +0.000 A 
ATOM     23  C   UNL     1      -3.077  10.067  17.291  0.00  0.00    +0.000 A 
ATOM     24  C   UNL     1      -4.238  10.674  17.775  0.00  0.00    +0.000 A 
ATOM     25  C   UNL     1      -4.174  11.710  18.717  0.00  0.00    +0.000 A 
ATOM     26  C   UNL     1      -2.906  12.129  19.141  0.00  0.00    +0.000 A 
BRANCH  25  27
ATOM     27  C   UNL     1      -5.374  12.381  19.211  0.00  0.00    +0.000 A 
ATOM     28  C   UNL     1      -5.764  12.756  20.538  0.00  0.00    +0.000 A 
ATOM     29  C   UNL     1      -5.067  12.599  21.839  0.00  0.00    +0.000 C 
ATOM     30  N   UNL     1      -6.961  13.357  20.544  0.00  0.00    +0.000 NA
ATOM     31  O   UNL     1      -7.370  13.399  19.236  0.00  0.00    +0.000 OA
ATOM     32  C   UNL     1      -6.432  12.826  18.436  0.00  0.00    +0.000 A 
ATOM     33  C   UNL     1      -6.777  12.819  16.999  0.00  0.00    +0.000 C 
ENDBRANCH  25  27
ENDBRANCH  19  21
ENDBRANCH   5  19
TORSDOF 4
ENDMDL
MODEL 5
REMARK VINA RESULT:      -8.9      1.103      1.320
REMARK  Name = 
REMARK  8 active torsions:
REMARK  status: ('A' for Active; 'I' for Inactive)
REMARK    1  A    between atoms: C_1  and  C_2
REMARK    2  A    between atoms: N_5  and  C_6
REMARK    3  A    between atoms: C_6  and  C_7
REMARK    4  A    between atoms: C_6  and  C_8
REMARK    5  A    between atoms: C_12  and  C_13
REMARK    6  A    between atoms: C_14  and  C_15
REMARK    7  A    between atoms: C_18  and  C_19
REMARK    8  A    between atoms: C_22  and  C_23
REMARK                            x       y       z     vdW  Elec       q    Type
REMARK                         _______ _______ _______ _____ _____    ______ ____
ROOT
ATOM      1  C   UNL     1       0.798   9.309  22.905  0.00  0.00    +0.000 C 
ATOM      2  C   UNL     1       1.023   9.193  21.430  0.00  0.00    +0.000 A 
ATOM      3  N   UNL     1       0.714  10.249  20.656  0.00  0.00    +0.000 NA
ATOM      4  C   UNL     1       1.008  10.160  19.352  0.00  0.00    +0.000 A 
ATOM      5  N   UNL     1       0.713  11.204  18.473  0.00  0.00    +0.000 N 
ATOM      6  C   UNL     1       1.594   9.032  18.819  0.00  0.00    +0.000 A 
ATOM      7  C   UNL     1       1.815   7.962  19.663  0.00  0.00    +0.000 A 
ATOM      8  N   UNL     1       1.541   8.039  20.981  0.00  0.00    +0.000 NA
ATOM      9  H   UNL     1       1.556  11.630  18.107  0.00  0.00    +0.000 HD
ENDROOT
BRANCH   7  10
ATOM     10  C   UNL     1       2.326   6.662  19.181  0.00  0.00    +0.000 A 
ATOM     11  C   UNL     1       3.107   6.588  18.015  0.00  0.00    +0.000 A 
ATOM     12  C   UNL     1       3.617   5.372  17.538  0.00  0.00    +0.000 A 
ATOM     13  C   UNL     1       3.341   4.180  18.232  0.00  0.00    +0.000 A 
ATOM     14  N   UNL     1       3.768   2.911  17.877  0.00  0.00    +0.000 NA
ATOM     15  C   UNL     1       3.319   2.038  18.750  0.00  0.00    +0.000 A 
ATOM     16  S   UNL     1       2.381   2.661  20.038  0.00  0.00    +0.000 S 
ATOM     17  C   UNL     1       2.566   4.248  19.390  0.00  0.00    +0.000 A 
ATOM     18  C   UNL     1       2.055   5.466  19.876  0.00  0.00    +0.000 A 
ENDBRANCH   7  10
BRANCH   5  19
ATOM     19  C   UNL     1      -0.322  12.150  18.870  0.00  0.00    +0.000 C 
ATOM     20  C   UNL     1      -0.176  13.517  18.201  0.00  0.00    +0.000 C 
BRANCH  19  21
ATOM     21  C   UNL     1      -1.676  11.532  18.528  0.00  0.00    +0.000 A 
ATOM     22  C   UNL     1      -1.800  10.443  17.653  0.00  0.00    +0.000 A 
ATOM     23  C   UNL     1      -3.059   9.993  17.267  0.00  0.00    +0.000 A 
ATOM     24  C   UNL     1      -4.208  10.637  17.733  0.00  0.00    +0.000 A 
ATOM     25  C   UNL     1      -4.122  11.694  18.650  0.00  0.00    +0.000 A 
ATOM     26  C   UNL     1      -2.846  12.096  19.067  0.00  0.00    +0.000 A 
BRANCH  25  27
ATOM     27  C   UNL     1      -5.308  12.403  19.125  0.00  0.00    +0.000 A 
ATOM     28  C   UNL     1      -6.454  12.898  18.421  0.00  0.00    +0.000 A 
ATOM     29  C   UNL     1      -6.815  12.835  16.982  0.00  0.00    +0.000 C 
ATOM     30  N   UNL     1      -7.317  13.496  19.251  0.00  0.00    +0.000 NA
ATOM     31  O   UNL     1      -6.768  13.397  20.503  0.00  0.00    +0.000 OA
ATOM     32  C   UNL     1      -5.577  12.745  20.440  0.00  0.00    +0.000 A 
ATOM     33  C   UNL     1      -4.900  12.584  21.743  0.00  0.00    +0.000 C 
ENDBRANCH  25  27
ENDBRANCH  19  21
ENDBRANCH   5  19
TORSDOF 4
ENDMDL
MODEL 6
REMARK VINA RESULT:      -8.6      5.372     10.276
REMARK  Name = 
REMARK  8 active torsions:
REMARK  status: ('A' for Active; 'I' for Inactive)
REMARK    1  A    between atoms: C_1  and  C_2
REMARK    2  A    between atoms: N_5  and  C_6
REMARK    3  A    between atoms: C_6  and  C_7
REMARK    4  A    between atoms: C_6  and  C_8
REMARK    5  A    between atoms: C_12  and  C_13
REMARK    6  A    between atoms: C_14  and  C_15
REMARK    7  A    between atoms: C_18  and  C_19
REMARK    8  A    between atoms: C_22  and  C_23
REMARK                            x       y       z     vdW  Elec       q    Type
REMARK                         _______ _______ _______ _____ _____    ______ ____
ROOT
ATOM      1  C   UNL     1       0.093   9.492  23.119  0.00  0.00    +0.000 C 
ATOM      2  C   UNL     1       0.631   9.725  21.742  0.00  0.00    +0.000 A 
ATOM      3  N   UNL     1       1.050   8.659  21.037  0.00  0.00    +0.000 NA
ATOM      4  C   UNL     1       1.442   8.876  19.775  0.00  0.00    +0.000 A 
ATOM      5  N   UNL     1       1.902   7.829  18.972  0.00  0.00    +0.000 N 
ATOM      6  C   UNL     1       1.429  10.138  19.221  0.00  0.00    +0.000 A 
ATOM      7  C   UNL     1       1.054  11.192  20.030  0.00  0.00    +0.000 A 
ATOM      8  N   UNL     1       0.641  10.991  21.297  0.00  0.00    +0.000 NA
ATOM      9  H   UNL     1       1.271   7.650  18.200  0.00  0.00    +0.000 HD
ENDROOT
BRANCH   7  10
ATOM     10  C   UNL     1       1.116  12.599  19.581  0.00  0.00    +0.000 A 
ATOM     11  C   UNL     1       0.002  13.443  19.720  0.00  0.00    +0.000 A 
ATOM     12  C   UNL     1       0.033  14.786  19.317  0.00  0.00    +0.000 A 
ATOM     13  C   UNL     1       1.205  15.317  18.748  0.00  0.00    +0.000 A 
ATOM     14  N   UNL     1       1.379  16.615  18.298  0.00  0.00    +0.000 NA
ATOM     15  C   UNL     1       2.596  16.754  17.822  0.00  0.00    +0.000 A 
ATOM     16  S   UNL     1       3.603  15.373  17.889  0.00  0.00    +0.000 S 
ATOM     17  C   UNL     1       2.314  14.482  18.607  0.00  0.00    +0.000 A 
ATOM     18  C   UNL     1       2.290  13.134  19.014  0.00  0.00    +0.000 A 
ENDBRANCH   7  10
BRANCH   5  19
ATOM     19  C   UNL     1       2.401   6.635  19.640  0.00  0.00    +0.000 C 
ATOM     20  C   UNL     1       1.376   6.000  20.581  0.00  0.00    +0.000 C 
BRANCH  19  21
ATOM     21  C   UNL     1       2.822   5.638  18.562  0.00  0.00    +0.000 A 
ATOM     22  C   UNL     1       2.149   4.425  18.362  0.00  0.00    +0.000 A 
ATOM     23  C   UNL     1       2.642   3.488  17.459  0.00  0.00    +0.000 A 
ATOM     24  C   UNL     1       3.824   3.743  16.760  0.00  0.00    +0.000 A 
ATOM     25  C   UNL     1       4.494   4.967  16.894  0.00  0.00    +0.000 A 
ATOM     26  C   UNL     1       3.951   5.917  17.770  0.00  0.00    +0.000 A 
BRANCH  25  27
ATOM     27  C   UNL     1       5.749   5.242  16.198  0.00  0.00    +0.000 A 
ATOM     28  C   UNL     1       6.928   5.937  16.622  0.00  0.00    +0.000 A 
ATOM     29  C   UNL     1       7.264   6.588  17.913  0.00  0.00    +0.000 C 
ATOM     30  N   UNL     1       7.855   5.960  15.656  0.00  0.00    +0.000 NA
ATOM     31  O   UNL     1       7.315   5.280  14.596  0.00  0.00    +0.000 OA
ATOM     32  C   UNL     1       6.065   4.845  14.909  0.00  0.00    +0.000 A 
ATOM     33  C   UNL     1       5.391   4.096  13.829  0.00  0.00    +0.000 C 
ENDBRANCH  25  27
ENDBRANCH  19  21
ENDBRANCH   5  19
TORSDOF 4
ENDMDL
MODEL 7
REMARK VINA RESULT:      -8.6      2.639      4.324
REMARK  Name = 
REMARK  8 active torsions:
REMARK  status: ('A' for Active; 'I' for Inactive)
REMARK    1  A    between atoms: C_1  and  C_2
REMARK    2  A    between atoms: N_5  and  C_6
REMARK    3  A    between atoms: C_6  and  C_7
REMARK    4  A    between atoms: C_6  and  C_8
REMARK    5  A    between atoms: C_12  and  C_13
REMARK    6  A    between atoms: C_14  and  C_15
REMARK    7  A    between atoms: C_18  and  C_19
REMARK    8  A    between atoms: C_22  and  C_23
REMARK                            x       y       z     vdW  Elec       q    Type
REMARK                         _______ _______ _______ _____ _____    ______ ____
ROOT
ATOM      1  C   UNL     1       1.010   3.838  20.786  0.00  0.00    +0.000 C 
ATOM      2  C   UNL     1       1.729   5.024  20.225  0.00  0.00    +0.000 A 
ATOM      3  N   UNL     1       1.282   6.250  20.554  0.00  0.00    +0.000 NA
ATOM      4  C   UNL     1       1.994   7.298  20.118  0.00  0.00    +0.000 A 
ATOM      5  N   UNL     1       1.599   8.607  20.403  0.00  0.00    +0.000 N 
ATOM      6  C   UNL     1       3.130   7.133  19.356  0.00  0.00    +0.000 A 
ATOM      7  C   UNL     1       3.484   5.847  18.999  0.00  0.00    +0.000 A 
ATOM      8  N   UNL     1       2.791   4.779  19.441  0.00  0.00    +0.000 NA
ATOM      9  H   UNL     1       2.261   9.069  21.015  0.00  0.00    +0.000 HD
ENDROOT
BRANCH   7  10
ATOM     10  C   UNL     1       4.611   5.558  18.087  0.00  0.00    +0.000 A 
ATOM     11  C   UNL     1       5.938   5.633  18.543  0.00  0.00    +0.000 A 
ATOM     12  C   UNL     1       7.028   5.351  17.707  0.00  0.00    +0.000 A 
ATOM     13  C   UNL     1       6.804   4.989  16.367  0.00  0.00    +0.000 A 
ATOM     14  N   UNL     1       7.777   4.693  15.427  0.00  0.00    +0.000 NA
ATOM     15  C   UNL     1       7.205   4.404  14.280  0.00  0.00    +0.000 A 
ATOM     16  S   UNL     1       5.495   4.454  14.248  0.00  0.00    +0.000 S 
ATOM     17  C   UNL     1       5.488   4.914  15.909  0.00  0.00    +0.000 A 
ATOM     18  C   UNL     1       4.390   5.191  16.744  0.00  0.00    +0.000 A 
ENDBRANCH   7  10
BRANCH   5  19
ATOM     19  C   UNL     1       0.199   8.832  20.740  0.00  0.00    +0.000 C 
ATOM     20  C   UNL     1      -0.058   8.862  22.248  0.00  0.00    +0.000 C 
BRANCH  19  21
ATOM     21  C   UNL     1      -0.229  10.151  20.101  0.00  0.00    +0.000 A 
ATOM     22  C   UNL     1       0.461  11.350  20.328  0.00  0.00    +0.000 A 
ATOM     23  C   UNL     1      -0.036  12.552  19.833  0.00  0.00    +0.000 A 
ATOM     24  C   UNL     1      -1.240  12.573  19.123  0.00  0.00    +0.000 A 
ATOM     25  C   UNL     1      -1.928  11.387  18.831  0.00  0.00    +0.000 A 
ATOM     26  C   UNL     1      -1.381  10.183  19.295  0.00  0.00    +0.000 A 
BRANCH  25  27
ATOM     27  C   UNL     1      -3.204  11.390  18.120  0.00  0.00    +0.000 A 
ATOM     28  C   UNL     1      -4.510  11.816  18.529  0.00  0.00    +0.000 A 
ATOM     29  C   UNL     1      -4.985  12.408  19.805  0.00  0.00    +0.000 C 
ATOM     30  N   UNL     1      -5.410  11.639  17.554  0.00  0.00    +0.000 NA
ATOM     31  O   UNL     1      -4.719  11.111  16.493  0.00  0.00    +0.000 OA
ATOM     32  C   UNL     1      -3.408  10.963  16.817  0.00  0.00    +0.000 A 
ATOM     33  C   UNL     1      -2.572  10.400  15.738  0.00  0.00    +0.000 C 
ENDBRANCH  25  27
ENDBRANCH  19  21
ENDBRANCH   5  19
TORSDOF 4
ENDMDL
MODEL 8
REMARK VINA RESULT:      -8.6      5.289     10.386
REMARK  Name = 
REMARK  8 active torsions:
REMARK  status: ('A' for Active; 'I' for Inactive)
REMARK    1  A    between atoms: C_1  and  C_2
REMARK    2  A    between atoms: N_5  and  C_6
REMARK    3  A    between atoms: C_6  and  C_7
REMARK    4  A    between atoms: C_6  and  C_8
REMARK    5  A    between atoms: C_12  and  C_13
REMARK    6  A    between atoms: C_14  and  C_15
REMARK    7  A    between atoms: C_18  and  C_19
REMARK    8  A    between atoms: C_22  and  C_23
REMARK                            x       y       z     vdW  Elec       q    Type
REMARK                         _______ _______ _______ _____ _____    ______ ____
ROOT
ATOM      1  C   UNL     1       0.039   9.440  23.292  0.00  0.00    +0.000 C 
ATOM      2  C   UNL     1       0.550   9.687  21.908  0.00  0.00    +0.000 A 
ATOM      3  N   UNL     1       0.989   8.633  21.197  0.00  0.00    +0.000 NA
ATOM      4  C   UNL     1       1.355   8.860  19.928  0.00  0.00    +0.000 A 
ATOM      5  N   UNL     1       1.832   7.827  19.118  0.00  0.00    +0.000 N 
ATOM      6  C   UNL     1       1.296  10.121  19.374  0.00  0.00    +0.000 A 
ATOM      7  C   UNL     1       0.904  11.164  20.188  0.00  0.00    +0.000 A 
ATOM      8  N   UNL     1       0.517  10.953  21.462  0.00  0.00    +0.000 NA
ATOM      9  H   UNL     1       1.194   7.628  18.357  0.00  0.00    +0.000 HD
ENDROOT
BRANCH   7  10
ATOM     10  C   UNL     1       0.918  12.572  19.738  0.00  0.00    +0.000 A 
ATOM     11  C   UNL     1      -0.283  13.276  19.552  0.00  0.00    +0.000 A 
ATOM     12  C   UNL     1      -0.303  14.616  19.138  0.00  0.00    +0.000 A 
ATOM     13  C   UNL     1       0.908  15.288  18.892  0.00  0.00    +0.000 A 
ATOM     14  N   UNL     1       1.043  16.601  18.473  0.00  0.00    +0.000 NA
ATOM     15  C   UNL     1       2.317  16.889  18.339  0.00  0.00    +0.000 A 
ATOM     16  S   UNL     1       3.424  15.638  18.707  0.00  0.00    +0.000 S 
ATOM     17  C   UNL     1       2.104  14.593  19.075  0.00  0.00    +0.000 A 
ATOM     18  C   UNL     1       2.130  13.249  19.494  0.00  0.00    +0.000 A 
ENDBRANCH   7  10
BRANCH   5  19
ATOM     19  C   UNL     1       2.376   6.648  19.779  0.00  0.00    +0.000 C 
ATOM     20  C   UNL     1       1.430   6.054  20.824  0.00  0.00    +0.000 C 
BRANCH  19  21
ATOM     21  C   UNL     1       2.694   5.613  18.701  0.00  0.00    +0.000 A 
ATOM     22  C   UNL     1       1.807   4.577  18.376  0.00  0.00    +0.000 A 
ATOM     23  C   UNL     1       2.189   3.581  17.482  0.00  0.00    +0.000 A 
ATOM     24  C   UNL     1       3.468   3.597  16.919  0.00  0.00    +0.000 A 
ATOM     25  C   UNL     1       4.360   4.646  17.180  0.00  0.00    +0.000 A 
ATOM     26  C   UNL     1       3.935   5.666  18.042  0.00  0.00    +0.000 A 
BRANCH  25  27
ATOM     27  C   UNL     1       5.712   4.665  16.628  0.00  0.00    +0.000 A 
ATOM     28  C   UNL     1       6.184   4.494  15.285  0.00  0.00    +0.000 A 
ATOM     29  C   UNL     1       5.448   4.258  14.017  0.00  0.00    +0.000 C 
ATOM     30  N   UNL     1       7.518   4.585  15.220  0.00  0.00    +0.000 NA
ATOM     31  O   UNL     1       7.944   4.826  16.501  0.00  0.00    +0.000 OA
ATOM     32  C   UNL     1       6.878   4.880  17.344  0.00  0.00    +0.000 A 
ATOM     33  C   UNL     1       7.229   5.138  18.756  0.00  0.00    +0.000 C 
ENDBRANCH  25  27
ENDBRANCH  19  21
ENDBRANCH   5  19
TORSDOF 4
ENDMDL
MODEL 9
REMARK VINA RESULT:      -8.6      1.666      2.061
REMARK  Name = 
REMARK  8 active torsions:
REMARK  status: ('A' for Active; 'I' for Inactive)
REMARK    1  A    between atoms: C_1  and  C_2
REMARK    2  A    between atoms: N_5  and  C_6
REMARK    3  A    between atoms: C_6  and  C_7
REMARK    4  A    between atoms: C_6  and  C_8
REMARK    5  A    between atoms: C_12  and  C_13
REMARK    6  A    between atoms: C_14  and  C_15
REMARK    7  A    between atoms: C_18  and  C_19
REMARK    8  A    between atoms: C_22  and  C_23
REMARK                            x       y       z     vdW  Elec       q    Type
REMARK                         _______ _______ _______ _____ _____    ______ ____
ROOT
ATOM      1  C   UNL     1       0.919   9.186  22.612  0.00  0.00    +0.000 C 
ATOM      2  C   UNL     1       1.130   9.219  21.130  0.00  0.00    +0.000 A 
ATOM      3  N   UNL     1       0.757  10.325  20.462  0.00  0.00    +0.000 NA
ATOM      4  C   UNL     1       1.038  10.373  19.153  0.00  0.00    +0.000 A 
ATOM      5  N   UNL     1       0.679  11.478  18.377  0.00  0.00    +0.000 N 
ATOM      6  C   UNL     1       1.673   9.331  18.511  0.00  0.00    +0.000 A 
ATOM      7  C   UNL     1       1.960   8.201  19.250  0.00  0.00    +0.000 A 
ATOM      8  N   UNL     1       1.699   8.140  20.571  0.00  0.00    +0.000 NA
ATOM      9  H   UNL     1       1.494  11.979  18.046  0.00  0.00    +0.000 HD
ENDROOT
BRANCH   7  10
ATOM     10  C   UNL     1       2.529   6.979  18.643  0.00  0.00    +0.000 A 
ATOM     11  C   UNL     1       1.964   5.720  18.906  0.00  0.00    +0.000 A 
ATOM     12  C   UNL     1       2.472   4.543  18.336  0.00  0.00    +0.000 A 
ATOM     13  C   UNL     1       3.585   4.609  17.478  0.00  0.00    +0.000 A 
ATOM     14  N   UNL     1       4.197   3.536  16.852  0.00  0.00    +0.000 NA
ATOM     15  C   UNL     1       5.209   3.967  16.133  0.00  0.00    +0.000 A 
ATOM     16  S   UNL     1       5.487   5.655  16.145  0.00  0.00    +0.000 S 
ATOM     17  C   UNL     1       4.150   5.857  17.214  0.00  0.00    +0.000 A 
ATOM     18  C   UNL     1       3.642   7.041  17.780  0.00  0.00    +0.000 A 
ENDBRANCH   7  10
BRANCH   5  19
ATOM     19  C   UNL     1      -0.397  12.328  18.870  0.00  0.00    +0.000 C 
ATOM     20  C   UNL     1      -0.346  13.749  18.309  0.00  0.00    +0.000 C 
BRANCH  19  21
ATOM     21  C   UNL     1      -1.723  11.661  18.508  0.00  0.00    +0.000 A 
ATOM     22  C   UNL     1      -1.797  10.583  17.615  0.00  0.00    +0.000 A 
ATOM     23  C   UNL     1      -3.034  10.089  17.212  0.00  0.00    +0.000 A 
ATOM     24  C   UNL     1      -4.211  10.678  17.680  0.00  0.00    +0.000 A 
ATOM     25  C   UNL     1      -4.175  11.721  18.616  0.00  0.00    +0.000 A 
ATOM     26  C   UNL     1      -2.918  12.168  19.048  0.00  0.00    +0.000 A 
BRANCH  25  27
ATOM     27  C   UNL     1      -5.391  12.373  19.093  0.00  0.00    +0.000 A 
ATOM     28  C   UNL     1      -6.547  12.843  18.388  0.00  0.00    +0.000 A 
ATOM     29  C   UNL     1      -6.888  12.805  16.944  0.00  0.00    +0.000 C 
ATOM     30  N   UNL     1      -7.441  13.387  19.222  0.00  0.00    +0.000 NA
ATOM     31  O   UNL     1      -6.903  13.276  20.479  0.00  0.00    +0.000 OA
ATOM     32  C   UNL     1      -5.688  12.671  20.414  0.00  0.00    +0.000 A 
ATOM     33  C   UNL     1      -5.020  12.501  21.720  0.00  0.00    +0.000 C 
ENDBRANCH  25  27
ENDBRANCH  19  21
ENDBRANCH   5  19
TORSDOF 4
ENDMDL
