MODEL 1
REMARK VINA RESULT:      -8.0      0.000      0.000
REMARK  Name = 
REMARK  3 active torsions:
REMARK  status: ('A' for Active; 'I' for Inactive)
REMARK    1  A    between atoms: C_1  and  O_2
REMARK    2  A    between atoms: O_2  and  C_3
REMARK    3  A    between atoms: N_9  and  C_10
REMARK                            x       y       z     vdW  Elec       q    Type
REMARK                         _______ _______ _______ _____ _____    ______ ____
ROOT
ATOM      1  C   UNL     1       7.128   5.029  14.381  0.00  0.00    +0.000 A 
ATOM      2  C   UNL     1       6.064   4.241  13.939  0.00  0.00    +0.000 A 
ATOM      3  C   UNL     1       5.112   3.770  14.850  0.00  0.00    +0.000 A 
ATOM      4  C   UNL     1       5.221   4.096  16.204  0.00  0.00    +0.000 A 
ATOM      5  C   UNL     1       4.222   3.648  17.181  0.00  0.00    +0.000 A 
ATOM      6  O   UNL     1       3.309   2.926  16.783  0.00  0.00    +0.000 OA
ATOM      7  N   UNL     1       4.408   4.064  18.497  0.00  0.00    +0.000 N 
ATOM      8  C   UNL     1       5.461   4.888  18.920  0.00  0.00    +0.000 A 
ATOM      9  O   UNL     1       5.540   5.403  20.035  0.00  0.00    +0.000 OA
ATOM     10  O   UNL     1       6.443   5.205  17.976  0.00  0.00    +0.000 OA
ATOM     11  C   UNL     1       6.289   4.853  16.637  0.00  0.00    +0.000 A 
ATOM     12  C   UNL     1       7.253   5.317  15.742  0.00  0.00    +0.000 A 
ENDROOT
BRANCH   7  13
ATOM     13  C   UNL     1       3.437   3.684  19.478  0.00  0.00    +0.000 A 
ATOM     14  C   UNL     1       2.233   4.390  19.615  0.00  0.00    +0.000 A 
ATOM     15  C   UNL     1       1.331   4.048  20.626  0.00  0.00    +0.000 A 
ATOM     16  C   UNL     1       1.617   2.983  21.475  0.00  0.00    +0.000 A 
ATOM     17  F   UNL     1       0.748   2.661  22.442  0.00  0.00    +0.000 F 
ATOM     18  C   UNL     1       2.784   2.247  21.334  0.00  0.00    +0.000 A 
ATOM     19  C   UNL     1       3.686   2.605  20.341  0.00  0.00    +0.000 A 
ATOM     20  F   UNL     1       4.783   1.849  20.173  0.00  0.00    +0.000 F 
ENDBRANCH   7  13
BRANCH   1  22
ATOM     21  C   UNL     1       7.879   5.448  12.182  0.00  0.00    +0.000 C 
ATOM     22  O   UNL     1       8.114   5.538  13.584  0.00  0.00    +0.000 OA
ENDBRANCH   1  22
TORSDOF 2
ENDMDL
MODEL 2
REMARK VINA RESULT:      -7.9      1.033      1.452
REMARK  Name = 
REMARK  3 active torsions:
REMARK  status: ('A' for Active; 'I' for Inactive)
REMARK    1  A    between atoms: C_1  and  O_2
REMARK    2  A    between atoms: O_2  and  C_3
REMARK    3  A    between atoms: N_9  and  C_10
REMARK                            x       y       z     vdW  Elec       q    Type
REMARK                         _______ _______ _______ _____ _____    ______ ____
ROOT
ATOM      1  C   UNL     1       7.189   5.036  14.294  0.00  0.00    +0.000 A 
ATOM      2  C   UNL     1       5.997   4.438  13.886  0.00  0.00    +0.000 A 
ATOM      3  C   UNL     1       5.058   4.021  14.835  0.00  0.00    +0.000 A 
ATOM      4  C   UNL     1       5.310   4.211  16.196  0.00  0.00    +0.000 A 
ATOM      5  C   UNL     1       4.333   3.817  17.217  0.00  0.00    +0.000 A 
ATOM      6  O   UNL     1       3.303   3.260  16.845  0.00  0.00    +0.000 OA
ATOM      7  N   UNL     1       4.672   4.088  18.540  0.00  0.00    +0.000 N 
ATOM      8  C   UNL     1       5.858   4.725  18.935  0.00  0.00    +0.000 A 
ATOM      9  O   UNL     1       6.090   5.126  20.075  0.00  0.00    +0.000 OA
ATOM     10  O   UNL     1       6.802   4.990  17.937  0.00  0.00    +0.000 OA
ATOM     11  C   UNL     1       6.503   4.778  16.593  0.00  0.00    +0.000 A 
ATOM     12  C   UNL     1       7.453   5.186  15.658  0.00  0.00    +0.000 A 
ENDROOT
BRANCH   7  13
ATOM     13  C   UNL     1       3.733   3.757  19.569  0.00  0.00    +0.000 A 
ATOM     14  C   UNL     1       3.845   2.560  20.292  0.00  0.00    +0.000 A 
ATOM     15  C   UNL     1       2.877   2.222  21.242  0.00  0.00    +0.000 A 
ATOM     16  C   UNL     1       1.820   3.092  21.491  0.00  0.00    +0.000 A 
ATOM     17  F   UNL     1       0.896   2.762  22.402  0.00  0.00    +0.000 F 
ATOM     18  C   UNL     1       1.710   4.298  20.814  0.00  0.00    +0.000 A 
ATOM     19  C   UNL     1       2.663   4.619  19.856  0.00  0.00    +0.000 A 
ATOM     20  F   UNL     1       2.582   5.814  19.251  0.00  0.00    +0.000 F 
ENDBRANCH   7  13
BRANCH   1  22
ATOM     21  C   UNL     1       7.847   5.485  12.071  0.00  0.00    +0.000 C 
ATOM     22  O   UNL     1       8.176   5.476  13.457  0.00  0.00    +0.000 OA
ENDBRANCH   1  22
TORSDOF 2
ENDMDL
MODEL 3
REMARK VINA RESULT:      -7.3      1.224      1.571
REMARK  Name = 
REMARK  3 active torsions:
REMARK  status: ('A' for Active; 'I' for Inactive)
REMARK    1  A    between atoms: C_1  and  O_2
REMARK    2  A    between atoms: O_2  and  C_3
REMARK    3  A    between atoms: N_9  and  C_10
REMARK                            x       y       z     vdW  Elec       q    Type
REMARK                         _______ _______ _______ _____ _____    ______ ____
ROOT
ATOM      1  C   UNL     1       6.879   5.010  14.455  0.00  0.00    +0.000 A 
ATOM      2  C   UNL     1       6.301   3.755  14.257  0.00  0.00    +0.000 A 
ATOM      3  C   UNL     1       5.468   3.202  15.235  0.00  0.00    +0.000 A 
ATOM      4  C   UNL     1       5.205   3.911  16.410  0.00  0.00    +0.000 A 
ATOM      5  C   UNL     1       4.307   3.377  17.440  0.00  0.00    +0.000 A 
ATOM      6  O   UNL     1       3.833   2.256  17.268  0.00  0.00    +0.000 OA
ATOM      7  N   UNL     1       4.087   4.185  18.553  0.00  0.00    +0.000 N 
ATOM      8  C   UNL     1       4.643   5.461  18.722  0.00  0.00    +0.000 A 
ATOM      9  O   UNL     1       4.322   6.252  19.608  0.00  0.00    +0.000 OA
ATOM     10  O   UNL     1       5.570   5.885  17.764  0.00  0.00    +0.000 OA
ATOM     11  C   UNL     1       5.800   5.138  16.611  0.00  0.00    +0.000 A 
ATOM     12  C   UNL     1       6.645   5.695  15.650  0.00  0.00    +0.000 A 
ENDROOT
BRANCH   7  13
ATOM     13  C   UNL     1       3.188   3.722  19.567  0.00  0.00    +0.000 A 
ATOM     14  C   UNL     1       3.657   2.995  20.671  0.00  0.00    +0.000 A 
ATOM     15  C   UNL     1       2.754   2.490  21.611  0.00  0.00    +0.000 A 
ATOM     16  C   UNL     1       1.393   2.741  21.467  0.00  0.00    +0.000 A 
ATOM     17  F   UNL     1       0.535   2.254  22.372  0.00  0.00    +0.000 F 
ATOM     18  C   UNL     1       0.911   3.490  20.404  0.00  0.00    +0.000 A 
ATOM     19  C   UNL     1       1.810   3.970  19.460  0.00  0.00    +0.000 A 
ATOM     20  F   UNL     1       1.341   4.745  18.469  0.00  0.00    +0.000 F 
ENDBRANCH   7  13
BRANCH   1  22
ATOM     21  C   UNL     1       7.644   5.178  12.229  0.00  0.00    +0.000 C 
ATOM     22  O   UNL     1       7.710   5.642  13.574  0.00  0.00    +0.000 OA
ENDBRANCH   1  22
TORSDOF 2
ENDMDL
MODEL 4
REMARK VINA RESULT:      -7.3      4.692      7.528
REMARK  Name = 
REMARK  3 active torsions:
REMARK  status: ('A' for Active; 'I' for Inactive)
REMARK    1  A    between atoms: C_1  and  O_2
REMARK    2  A    between atoms: O_2  and  C_3
REMARK    3  A    between atoms: N_9  and  C_10
REMARK                            x       y       z     vdW  Elec       q    Type
REMARK                         _______ _______ _______ _____ _____    ______ ____
ROOT
ATOM      1  C   UNL     1      -0.166  10.637  20.749  0.00  0.00    +0.000 A 
ATOM      2  C   UNL     1       0.264  11.017  19.478  0.00  0.00    +0.000 A 
ATOM      3  C   UNL     1       1.083  10.165  18.728  0.00  0.00    +0.000 A 
ATOM      4  C   UNL     1       1.465   8.927  19.250  0.00  0.00    +0.000 A 
ATOM      5  C   UNL     1       2.293   7.994  18.478  0.00  0.00    +0.000 A 
ATOM      6  O   UNL     1       2.694   8.356  17.374  0.00  0.00    +0.000 OA
ATOM      7  N   UNL     1       2.581   6.772  19.081  0.00  0.00    +0.000 N 
ATOM      8  C   UNL     1       2.110   6.387  20.345  0.00  0.00    +0.000 A 
ATOM      9  O   UNL     1       2.209   5.253  20.812  0.00  0.00    +0.000 OA
ATOM     10  O   UNL     1       1.410   7.346  21.084  0.00  0.00    +0.000 OA
ATOM     11  C   UNL     1       1.058   8.569  20.519  0.00  0.00    +0.000 A 
ATOM     12  C   UNL     1       0.253   9.415  21.282  0.00  0.00    +0.000 A 
ENDROOT
BRANCH   7  13
ATOM     13  C   UNL     1       3.355   5.814  18.350  0.00  0.00    +0.000 A 
ATOM     14  C   UNL     1       4.756   5.878  18.333  0.00  0.00    +0.000 A 
ATOM     15  C   UNL     1       5.489   4.978  17.554  0.00  0.00    +0.000 A 
ATOM     16  C   UNL     1       4.825   3.996  16.824  0.00  0.00    +0.000 A 
ATOM     17  F   UNL     1       5.534   3.137  16.082  0.00  0.00    +0.000 F 
ATOM     18  C   UNL     1       3.443   3.890  16.857  0.00  0.00    +0.000 A 
ATOM     19  C   UNL     1       2.718   4.802  17.615  0.00  0.00    +0.000 A 
ATOM     20  F   UNL     1       1.386   4.653  17.689  0.00  0.00    +0.000 F 
ENDBRANCH   7  13
BRANCH   1  22
ATOM     21  C   UNL     1      -1.047  10.943  22.918  0.00  0.00    +0.000 C 
ATOM     22  O   UNL     1      -0.960  11.388  21.568  0.00  0.00    +0.000 OA
ENDBRANCH   1  22
TORSDOF 2
ENDMDL
MODEL 5
REMARK VINA RESULT:      -7.2      1.372      2.580
REMARK  Name = 
REMARK  3 active torsions:
REMARK  status: ('A' for Active; 'I' for Inactive)
REMARK    1  A    between atoms: C_1  and  O_2
REMARK    2  A    between atoms: O_2  and  C_3
REMARK    3  A    between atoms: N_9  and  C_10
REMARK                            x       y       z     vdW  Elec       q    Type
REMARK                         _______ _______ _______ _____ _____    ______ ____
ROOT
ATOM      1  C   UNL     1       7.235   5.476  15.181  0.00  0.00    +0.000 A 
ATOM      2  C   UNL     1       7.341   6.311  16.295  0.00  0.00    +0.000 A 
ATOM      3  C   UNL     1       6.515   6.109  17.405  0.00  0.00    +0.000 A 
ATOM      4  C   UNL     1       5.587   5.065  17.405  0.00  0.00    +0.000 A 
ATOM      5  C   UNL     1       4.729   4.803  18.566  0.00  0.00    +0.000 A 
ATOM      6  O   UNL     1       4.809   5.567  19.526  0.00  0.00    +0.000 OA
ATOM      7  N   UNL     1       3.868   3.712  18.470  0.00  0.00    +0.000 N 
ATOM      8  C   UNL     1       3.799   2.859  17.361  0.00  0.00    +0.000 A 
ATOM      9  O   UNL     1       3.176   1.798  17.332  0.00  0.00    +0.000 OA
ATOM     10  O   UNL     1       4.561   3.206  16.240  0.00  0.00    +0.000 OA
ATOM     11  C   UNL     1       5.469   4.261  16.291  0.00  0.00    +0.000 A 
ATOM     12  C   UNL     1       6.277   4.460  15.171  0.00  0.00    +0.000 A 
ENDROOT
BRANCH   7  13
ATOM     13  C   UNL     1       3.040   3.395  19.594  0.00  0.00    +0.000 A 
ATOM     14  C   UNL     1       3.536   2.640  20.668  0.00  0.00    +0.000 A 
ATOM     15  C   UNL     1       2.690   2.280  21.720  0.00  0.00    +0.000 A 
ATOM     16  C   UNL     1       1.364   2.701  21.717  0.00  0.00    +0.000 A 
ATOM     17  F   UNL     1       0.559   2.353  22.729  0.00  0.00    +0.000 F 
ATOM     18  C   UNL     1       0.862   3.481  20.685  0.00  0.00    +0.000 A 
ATOM     19  C   UNL     1       1.701   3.817  19.630  0.00  0.00    +0.000 A 
ATOM     20  F   UNL     1       1.224   4.622  18.668  0.00  0.00    +0.000 F 
ENDBRANCH   7  13
BRANCH   1  22
ATOM     21  C   UNL     1       7.464   4.912  12.900  0.00  0.00    +0.000 C 
ATOM     22  O   UNL     1       7.984   5.583  14.044  0.00  0.00    +0.000 OA
ENDBRANCH   1  22
TORSDOF 2
ENDMDL
MODEL 6
REMARK VINA RESULT:      -7.2      0.858      2.176
REMARK  Name = 
REMARK  3 active torsions:
REMARK  status: ('A' for Active; 'I' for Inactive)
REMARK    1  A    between atoms: C_1  and  O_2
REMARK    2  A    between atoms: O_2  and  C_3
REMARK    3  A    between atoms: N_9  and  C_10
REMARK                            x       y       z     vdW  Elec       q    Type
REMARK                         _______ _______ _______ _____ _____    ______ ____
ROOT
ATOM      1  C   UNL     1       7.129   5.433  15.028  0.00  0.00    +0.000 A 
ATOM      2  C   UNL     1       7.471   6.028  16.243  0.00  0.00    +0.000 A 
ATOM      3  C   UNL     1       6.694   5.796  17.383  0.00  0.00    +0.000 A 
ATOM      4  C   UNL     1       5.577   4.960  17.307  0.00  0.00    +0.000 A 
ATOM      5  C   UNL     1       4.759   4.667  18.490  0.00  0.00    +0.000 A 
ATOM      6  O   UNL     1       5.052   5.225  19.546  0.00  0.00    +0.000 OA
ATOM      7  N   UNL     1       3.693   3.790  18.308  0.00  0.00    +0.000 N 
ATOM      8  C   UNL     1       3.383   3.169  17.089  0.00  0.00    +0.000 A 
ATOM      9  O   UNL     1       2.559   2.266  16.955  0.00  0.00    +0.000 OA
ATOM     10  O   UNL     1       4.126   3.556  15.969  0.00  0.00    +0.000 OA
ATOM     11  C   UNL     1       5.229   4.397  16.097  0.00  0.00    +0.000 A 
ATOM     12  C   UNL     1       5.988   4.632  14.950  0.00  0.00    +0.000 A 
ENDROOT
BRANCH   7  13
ATOM     13  C   UNL     1       2.891   3.444  19.442  0.00  0.00    +0.000 A 
ATOM     14  C   UNL     1       1.599   3.970  19.602  0.00  0.00    +0.000 A 
ATOM     15  C   UNL     1       0.861   3.677  20.752  0.00  0.00    +0.000 A 
ATOM     16  C   UNL     1       1.398   2.835  21.722  0.00  0.00    +0.000 A 
ATOM     17  F   UNL     1       0.684   2.559  22.820  0.00  0.00    +0.000 F 
ATOM     18  C   UNL     1       2.656   2.274  21.566  0.00  0.00    +0.000 A 
ATOM     19  C   UNL     1       3.395   2.586  20.432  0.00  0.00    +0.000 A 
ATOM     20  F   UNL     1       4.585   1.990  20.262  0.00  0.00    +0.000 F 
ENDBRANCH   7  13
BRANCH   1  22
ATOM     21  C   UNL     1       7.407   4.739  12.788  0.00  0.00    +0.000 C 
ATOM     22  O   UNL     1       7.811   5.593  13.855  0.00  0.00    +0.000 OA
ENDBRANCH   1  22
TORSDOF 2
ENDMDL
MODEL 7
REMARK VINA RESULT:      -7.1      6.382      8.252
REMARK  Name = 
REMARK  3 active torsions:
REMARK  status: ('A' for Active; 'I' for Inactive)
REMARK    1  A    between atoms: C_1  and  O_2
REMARK    2  A    between atoms: O_2  and  C_3
REMARK    3  A    between atoms: N_9  and  C_10
REMARK                            x       y       z     vdW  Elec       q    Type
REMARK                         _______ _______ _______ _____ _____    ______ ____
ROOT
ATOM      1  C   UNL     1       2.921   4.933  19.786  0.00  0.00    +0.000 A 
ATOM      2  C   UNL     1       3.275   5.371  18.509  0.00  0.00    +0.000 A 
ATOM      3  C   UNL     1       2.898   6.645  18.073  0.00  0.00    +0.000 A 
ATOM      4  C   UNL     1       2.172   7.486  18.920  0.00  0.00    +0.000 A 
ATOM      5  C   UNL     1       1.789   8.841  18.508  0.00  0.00    +0.000 A 
ATOM      6  O   UNL     1       2.077   9.201  17.369  0.00  0.00    +0.000 OA
ATOM      7  N   UNL     1       1.101   9.606  19.447  0.00  0.00    +0.000 N 
ATOM      8  C   UNL     1       0.785   9.167  20.741  0.00  0.00    +0.000 A 
ATOM      9  O   UNL     1       0.337   9.887  21.633  0.00  0.00    +0.000 OA
ATOM     10  O   UNL     1       1.079   7.836  21.053  0.00  0.00    +0.000 OA
ATOM     11  C   UNL     1       1.802   7.037  20.171  0.00  0.00    +0.000 A 
ATOM     12  C   UNL     1       2.160   5.763  20.612  0.00  0.00    +0.000 A 
ENDROOT
BRANCH   7  13
ATOM     13  C   UNL     1       0.741  10.948  19.104  0.00  0.00    +0.000 A 
ATOM     14  C   UNL     1       1.657  12.001  19.246  0.00  0.00    +0.000 A 
ATOM     15  C   UNL     1       1.262  13.314  18.975  0.00  0.00    +0.000 A 
ATOM     16  C   UNL     1      -0.031  13.570  18.530  0.00  0.00    +0.000 A 
ATOM     17  F   UNL     1      -0.401  14.830  18.272  0.00  0.00    +0.000 F 
ATOM     18  C   UNL     1      -0.941  12.540  18.346  0.00  0.00    +0.000 A 
ATOM     19  C   UNL     1      -0.551  11.239  18.638  0.00  0.00    +0.000 A 
ATOM     20  F   UNL     1      -1.419  10.244  18.399  0.00  0.00    +0.000 F 
ENDBRANCH   7  13
BRANCH   1  22
ATOM     21  C   UNL     1       2.368   3.251  21.347  0.00  0.00    +0.000 C 
ATOM     22  O   UNL     1       3.231   3.711  20.312  0.00  0.00    +0.000 OA
ENDBRANCH   1  22
TORSDOF 2
ENDMDL
MODEL 8
REMARK VINA RESULT:      -7.1      4.621      7.379
REMARK  Name = 
REMARK  3 active torsions:
REMARK  status: ('A' for Active; 'I' for Inactive)
REMARK    1  A    between atoms: C_1  and  O_2
REMARK    2  A    between atoms: O_2  and  C_3
REMARK    3  A    between atoms: N_9  and  C_10
REMARK                            x       y       z     vdW  Elec       q    Type
REMARK                         _______ _______ _______ _____ _____    ______ ____
ROOT
ATOM      1  C   UNL     1       0.476  10.756  21.475  0.00  0.00    +0.000 A 
ATOM      2  C   UNL     1       0.260   9.690  22.350  0.00  0.00    +0.000 A 
ATOM      3  C   UNL     1       0.621   8.391  21.978  0.00  0.00    +0.000 A 
ATOM      4  C   UNL     1       1.206   8.159  20.731  0.00  0.00    +0.000 A 
ATOM      5  C   UNL     1       1.628   6.815  20.322  0.00  0.00    +0.000 A 
ATOM      6  O   UNL     1       1.401   5.881  21.088  0.00  0.00    +0.000 OA
ATOM      7  N   UNL     1       2.235   6.706  19.073  0.00  0.00    +0.000 N 
ATOM      8  C   UNL     1       2.480   7.791  18.220  0.00  0.00    +0.000 A 
ATOM      9  O   UNL     1       3.167   7.737  17.200  0.00  0.00    +0.000 OA
ATOM     10  O   UNL     1       1.970   9.035  18.606  0.00  0.00    +0.000 OA
ATOM     11  C   UNL     1       1.391   9.213  19.860  0.00  0.00    +0.000 A 
ATOM     12  C   UNL     1       1.023  10.511  20.213  0.00  0.00    +0.000 A 
ENDROOT
BRANCH   7  13
ATOM     13  C   UNL     1       2.699   5.420  18.648  0.00  0.00    +0.000 A 
ATOM     14  C   UNL     1       1.906   4.599  17.832  0.00  0.00    +0.000 A 
ATOM     15  C   UNL     1       2.347   3.318  17.489  0.00  0.00    +0.000 A 
ATOM     16  C   UNL     1       3.589   2.873  17.930  0.00  0.00    +0.000 A 
ATOM     17  F   UNL     1       4.005   1.645  17.596  0.00  0.00    +0.000 F 
ATOM     18  C   UNL     1       4.407   3.683  18.705  0.00  0.00    +0.000 A 
ATOM     19  C   UNL     1       3.954   4.946  19.062  0.00  0.00    +0.000 A 
ATOM     20  F   UNL     1       4.777   5.744  19.761  0.00  0.00    +0.000 F 
ENDBRANCH   7  13
BRANCH   1  22
ATOM     21  C   UNL     1      -0.896  12.264  22.665  0.00  0.00    +0.000 C 
ATOM     22  O   UNL     1       0.159  12.060  21.731  0.00  0.00    +0.000 OA
ENDBRANCH   1  22
TORSDOF 2
ENDMDL
MODEL 9
REMARK VINA RESULT:      -7.0      4.678      6.882
REMARK  Name = 
REMARK  3 active torsions:
REMARK  status: ('A' for Active; 'I' for Inactive)
REMARK    1  A    between atoms: C_1  and  O_2
REMARK    2  A    between atoms: O_2  and  C_3
REMARK    3  A    between atoms: N_9  and  C_10
REMARK                            x       y       z     vdW  Elec       q    Type
REMARK                         _______ _______ _______ _____ _____    ______ ____
ROOT
ATOM      1  C   UNL     1       0.732  11.164  19.969  0.00  0.00    +0.000 A 
ATOM      2  C   UNL     1       1.291  11.171  18.690  0.00  0.00    +0.000 A 
ATOM      3  C   UNL     1       1.850  10.004  18.160  0.00  0.00    +0.000 A 
ATOM      4  C   UNL     1       1.842   8.824  18.909  0.00  0.00    +0.000 A 
ATOM      5  C   UNL     1       2.388   7.573  18.371  0.00  0.00    +0.000 A 
ATOM      6  O   UNL     1       2.908   7.602  17.257  0.00  0.00    +0.000 OA
ATOM      7  N   UNL     1       2.293   6.450  19.189  0.00  0.00    +0.000 N 
ATOM      8  C   UNL     1       1.695   6.448  20.457  0.00  0.00    +0.000 A 
ATOM      9  O   UNL     1       1.449   5.436  21.112  0.00  0.00    +0.000 OA
ATOM     10  O   UNL     1       1.281   7.682  20.970  0.00  0.00    +0.000 OA
ATOM     11  C   UNL     1       1.313   8.831  20.183  0.00  0.00    +0.000 A 
ATOM     12  C   UNL     1       0.765   9.992  20.728  0.00  0.00    +0.000 A 
ENDROOT
BRANCH   7  13
ATOM     13  C   UNL     1       2.778   5.198  18.691  0.00  0.00    +0.000 A 
ATOM     14  C   UNL     1       1.976   4.385  17.876  0.00  0.00    +0.000 A 
ATOM     15  C   UNL     1       2.441   3.135  17.460  0.00  0.00    +0.000 A 
ATOM     16  C   UNL     1       3.715   2.713  17.829  0.00  0.00    +0.000 A 
ATOM     17  F   UNL     1       4.154   1.514  17.426  0.00  0.00    +0.000 F 
ATOM     18  C   UNL     1       4.540   3.517  18.602  0.00  0.00    +0.000 A 
ATOM     19  C   UNL     1       4.064   4.750  19.031  0.00  0.00    +0.000 A 
ATOM     20  F   UNL     1       4.891   5.545  19.727  0.00  0.00    +0.000 F 
ENDBRANCH   7  13
BRANCH   1  22
ATOM     21  C   UNL     1      -1.249  12.350  20.460  0.00  0.00    +0.000 C 
ATOM     22  O   UNL     1       0.165  12.243  20.586  0.00  0.00    +0.000 OA
ENDBRANCH   1  22
TORSDOF 2
ENDMDL
