MODEL 1
REMARK VINA RESULT:      -7.8      0.000      0.000
REMARK  Name = 
REMARK  9 active torsions:
REMARK  status: ('A' for Active; 'I' for Inactive)
REMARK    1  A    between atoms: C_1  and  O_2
REMARK    2  A    between atoms: O_2  and  C_3
REMARK    3  A    between atoms: C_5  and  C_6
REMARK    4  A    between atoms: C_6  and  C_8
REMARK    5  A    between atoms: C_12  and  C_13
REMARK    6  A    between atoms: C_20  and  O_21
REMARK    7  A    between atoms: O_21  and  C_22
REMARK    8  A    between atoms: C_23  and  O_24
REMARK    9  A    between atoms: O_24  and  C_25
REMARK                            x       y       z     vdW  Elec       q    Type
REMARK                         _______ _______ _______ _____ _____    ______ ____
ROOT
ATOM      1  C   UNL     1       2.595   6.337  19.562  0.00  0.00    +0.000 C 
ATOM      2  O   UNL     1       2.306   5.673  20.557  0.00  0.00    +0.000 OA
ENDROOT
BRANCH   1   5
ATOM      3  C   UNL     1       5.407   6.008  17.066  0.00  0.00    +0.000 A 
ATOM      4  C   UNL     1       4.446   6.562  17.929  0.00  0.00    +0.000 A 
ATOM      5  C   UNL     1       3.491   5.750  18.534  0.00  0.00    +0.000 A 
ATOM      6  C   UNL     1       3.412   4.409  18.176  0.00  0.00    +0.000 A 
ATOM      7  C   UNL     1       4.313   3.848  17.262  0.00  0.00    +0.000 A 
ATOM      8  C   UNL     1       5.329   4.646  16.688  0.00  0.00    +0.000 A 
BRANCH   3  10
ATOM      9  C   UNL     1       7.444   7.138  17.503  0.00  0.00    +0.000 C 
ATOM     10  O   UNL     1       6.414   6.800  16.570  0.00  0.00    +0.000 OA
ENDBRANCH   3  10
BRANCH   7  11
ATOM     11  O   UNL     1       4.053   2.514  17.079  0.00  0.00    +0.000 OA
ATOM     12  C   UNL     1       3.492   1.753  18.134  0.00  0.00    +0.000 C 
ENDBRANCH   7  11
BRANCH   8  13
ATOM     13  O   UNL     1       6.145   4.010  15.794  0.00  0.00    +0.000 OA
ATOM     14  C   UNL     1       5.969   4.165  14.398  0.00  0.00    +0.000 C 
ENDBRANCH   8  13
ENDBRANCH   1   5
BRANCH   1  15
ATOM     15  C   UNL     1       2.020   7.699  19.367  0.00  0.00    +0.000 A 
ATOM     16  C   UNL     1       2.187   8.339  18.146  0.00  0.00    +0.000 A 
ATOM     17  C   UNL     1       1.623   9.598  17.988  0.00  0.00    +0.000 A 
ATOM     18  C   UNL     1       0.925  10.175  19.051  0.00  0.00    +0.000 A 
ATOM     19  C   UNL     1       0.818   9.476  20.249  0.00  0.00    +0.000 A 
ATOM     20  N   UNL     1       1.368   8.252  20.417  0.00  0.00    +0.000 NA
BRANCH  19  21
ATOM     21  C   UNL     1       0.084  10.032  21.385  0.00  0.00    +0.000 A 
ATOM     22  C   UNL     1      -0.425  11.345  21.604  0.00  0.00    +0.000 A 
ATOM     23  C   UNL     1      -1.044  11.367  22.836  0.00  0.00    +0.000 A 
ATOM     24  N   UNL     1      -0.941  10.116  23.377  0.00  0.00    +0.000 N 
ATOM     25  C   UNL     1      -0.262   9.299  22.511  0.00  0.00    +0.000 A 
ATOM     26  H   UNL     1      -1.311   9.834  24.277  0.00  0.00    +0.000 HD
ENDBRANCH  19  21
ENDBRANCH   1  15
TORSDOF 6
ENDMDL
MODEL 2
REMARK VINA RESULT:      -7.7      2.215      3.039
REMARK  Name = 
REMARK  9 active torsions:
REMARK  status: ('A' for Active; 'I' for Inactive)
REMARK    1  A    between atoms: C_1  and  O_2
REMARK    2  A    between atoms: O_2  and  C_3
REMARK    3  A    between atoms: C_5  and  C_6
REMARK    4  A    between atoms: C_6  and  C_8
REMARK    5  A    between atoms: C_12  and  C_13
REMARK    6  A    between atoms: C_20  and  O_21
REMARK    7  A    between atoms: O_21  and  C_22
REMARK    8  A    between atoms: C_23  and  O_24
REMARK    9  A    between atoms: O_24  and  C_25
REMARK                            x       y       z     vdW  Elec       q    Type
REMARK                         _______ _______ _______ _____ _____    ______ ____
ROOT
ATOM      1  C   UNL     1       2.386   7.898  18.156  0.00  0.00    +0.000 C 
ATOM      2  O   UNL     1       2.636   8.597  17.175  0.00  0.00    +0.000 OA
ENDROOT
BRANCH   1   5
ATOM      3  C   UNL     1       4.676   4.943  18.675  0.00  0.00    +0.000 A 
ATOM      4  C   UNL     1       4.214   6.257  18.485  0.00  0.00    +0.000 A 
ATOM      5  C   UNL     1       2.875   6.497  18.192  0.00  0.00    +0.000 A 
ATOM      6  C   UNL     1       2.025   5.422  17.959  0.00  0.00    +0.000 A 
ATOM      7  C   UNL     1       2.479   4.101  18.072  0.00  0.00    +0.000 A 
ATOM      8  C   UNL     1       3.821   3.842  18.432  0.00  0.00    +0.000 A 
BRANCH   3  10
ATOM      9  C   UNL     1       6.954   4.774  18.043  0.00  0.00    +0.000 C 
ATOM     10  O   UNL     1       5.970   4.729  19.080  0.00  0.00    +0.000 OA
ENDBRANCH   3  10
BRANCH   7  11
ATOM     11  O   UNL     1       1.464   3.214  17.816  0.00  0.00    +0.000 OA
ATOM     12  C   UNL     1       0.743   2.637  18.890  0.00  0.00    +0.000 C 
ENDBRANCH   7  11
BRANCH   8  13
ATOM     13  O   UNL     1       4.169   2.521  18.497  0.00  0.00    +0.000 OA
ATOM     14  C   UNL     1       4.325   1.862  19.740  0.00  0.00    +0.000 C 
ENDBRANCH   8  13
ENDBRANCH   1   5
BRANCH   1  15
ATOM     15  C   UNL     1       1.637   8.462  19.317  0.00  0.00    +0.000 A 
ATOM     16  C   UNL     1       1.742   7.847  20.556  0.00  0.00    +0.000 A 
ATOM     17  C   UNL     1       1.048   8.407  21.621  0.00  0.00    +0.000 A 
ATOM     18  C   UNL     1       0.272   9.548  21.410  0.00  0.00    +0.000 A 
ATOM     19  C   UNL     1       0.205  10.094  20.133  0.00  0.00    +0.000 A 
ATOM     20  N   UNL     1       0.870   9.554  19.086  0.00  0.00    +0.000 NA
BRANCH  19  21
ATOM     21  C   UNL     1      -0.582  11.298  19.865  0.00  0.00    +0.000 A 
ATOM     22  C   UNL     1      -1.513  11.995  20.688  0.00  0.00    +0.000 A 
ATOM     23  C   UNL     1      -1.991  13.075  19.977  0.00  0.00    +0.000 A 
ATOM     24  N   UNL     1      -1.383  13.072  18.754  0.00  0.00    +0.000 N 
ATOM     25  C   UNL     1      -0.529  12.002  18.672  0.00  0.00    +0.000 A 
ATOM     26  H   UNL     1      -1.537  13.754  18.020  0.00  0.00    +0.000 HD
ENDBRANCH  19  21
ENDBRANCH   1  15
TORSDOF 6
ENDMDL
MODEL 3
REMARK VINA RESULT:      -7.6      2.398      3.953
REMARK  Name = 
REMARK  9 active torsions:
REMARK  status: ('A' for Active; 'I' for Inactive)
REMARK    1  A    between atoms: C_1  and  O_2
REMARK    2  A    between atoms: O_2  and  C_3
REMARK    3  A    between atoms: C_5  and  C_6
REMARK    4  A    between atoms: C_6  and  C_8
REMARK    5  A    between atoms: C_12  and  C_13
REMARK    6  A    between atoms: C_20  and  O_21
REMARK    7  A    between atoms: O_21  and  C_22
REMARK    8  A    between atoms: C_23  and  O_24
REMARK    9  A    between atoms: O_24  and  C_25
REMARK                            x       y       z     vdW  Elec       q    Type
REMARK                         _______ _______ _______ _____ _____    ______ ____
ROOT
ATOM      1  C   UNL     1       2.518   7.811  18.226  0.00  0.00    +0.000 C 
ATOM      2  O   UNL     1       2.953   8.467  17.280  0.00  0.00    +0.000 OA
ENDROOT
BRANCH   1   5
ATOM      3  C   UNL     1       2.510   4.038  18.132  0.00  0.00    +0.000 A 
ATOM      4  C   UNL     1       2.076   5.375  18.121  0.00  0.00    +0.000 A 
ATOM      5  C   UNL     1       2.966   6.407  18.402  0.00  0.00    +0.000 A 
ATOM      6  C   UNL     1       4.255   6.099  18.822  0.00  0.00    +0.000 A 
ATOM      7  C   UNL     1       4.691   4.771  18.910  0.00  0.00    +0.000 A 
ATOM      8  C   UNL     1       3.818   3.714  18.566  0.00  0.00    +0.000 A 
BRANCH   3  10
ATOM      9  C   UNL     1       0.821   2.501  18.768  0.00  0.00    +0.000 C 
ATOM     10  O   UNL     1       1.653   3.041  17.737  0.00  0.00    +0.000 OA
ENDBRANCH   3  10
BRANCH   7  11
ATOM     11  O   UNL     1       5.997   4.715  19.327  0.00  0.00    +0.000 OA
ATOM     12  C   UNL     1       6.928   5.676  18.862  0.00  0.00    +0.000 C 
ENDBRANCH   7  11
BRANCH   8  13
ATOM     13  O   UNL     1       4.333   2.455  18.705  0.00  0.00    +0.000 OA
ATOM     14  C   UNL     1       4.409   1.827  19.971  0.00  0.00    +0.000 C 
ENDBRANCH   8  13
ENDBRANCH   1   5
BRANCH   1  15
ATOM     15  C   UNL     1       1.582   8.430  19.210  0.00  0.00    +0.000 A 
ATOM     16  C   UNL     1       1.735   8.150  20.560  0.00  0.00    +0.000 A 
ATOM     17  C   UNL     1       0.861   8.756  21.454  0.00  0.00    +0.000 A 
ATOM     18  C   UNL     1      -0.134   9.607  20.968  0.00  0.00    +0.000 A 
ATOM     19  C   UNL     1      -0.232   9.821  19.598  0.00  0.00    +0.000 A 
ATOM     20  N   UNL     1       0.609   9.232  18.717  0.00  0.00    +0.000 NA
BRANCH  19  21
ATOM     21  C   UNL     1      -1.248  10.716  19.044  0.00  0.00    +0.000 A 
ATOM     22  C   UNL     1      -2.276  10.468  18.088  0.00  0.00    +0.000 A 
ATOM     23  C   UNL     1      -2.975  11.640  17.894  0.00  0.00    +0.000 A 
ATOM     24  N   UNL     1      -2.421  12.595  18.700  0.00  0.00    +0.000 N 
ATOM     25  C   UNL     1      -1.375  12.050  19.400  0.00  0.00    +0.000 A 
ATOM     26  H   UNL     1      -2.734  13.556  18.771  0.00  0.00    +0.000 HD
ENDBRANCH  19  21
ENDBRANCH   1  15
TORSDOF 6
ENDMDL
MODEL 4
REMARK VINA RESULT:      -7.6      0.170      2.567
REMARK  Name = 
REMARK  9 active torsions:
REMARK  status: ('A' for Active; 'I' for Inactive)
REMARK    1  A    between atoms: C_1  and  O_2
REMARK    2  A    between atoms: O_2  and  C_3
REMARK    3  A    between atoms: C_5  and  C_6
REMARK    4  A    between atoms: C_6  and  C_8
REMARK    5  A    between atoms: C_12  and  C_13
REMARK    6  A    between atoms: C_20  and  O_21
REMARK    7  A    between atoms: O_21  and  C_22
REMARK    8  A    between atoms: C_23  and  O_24
REMARK    9  A    between atoms: O_24  and  C_25
REMARK                            x       y       z     vdW  Elec       q    Type
REMARK                         _______ _______ _______ _____ _____    ______ ____
ROOT
ATOM      1  C   UNL     1       2.629   6.247  19.702  0.00  0.00    +0.000 C 
ATOM      2  O   UNL     1       2.290   5.602  20.694  0.00  0.00    +0.000 OA
ENDROOT
BRANCH   1   5
ATOM      3  C   UNL     1       4.312   3.723  17.457  0.00  0.00    +0.000 A 
ATOM      4  C   UNL     1       3.516   4.290  18.467  0.00  0.00    +0.000 A 
ATOM      5  C   UNL     1       3.594   5.652  18.744  0.00  0.00    +0.000 A 
ATOM      6  C   UNL     1       4.558   6.423  18.105  0.00  0.00    +0.000 A 
ATOM      7  C   UNL     1       5.413   5.866  17.145  0.00  0.00    +0.000 A 
ATOM      8  C   UNL     1       5.302   4.498  16.807  0.00  0.00    +0.000 A 
BRANCH   3  10
ATOM      9  C   UNL     1       3.535   1.583  18.116  0.00  0.00    +0.000 C 
ATOM     10  O   UNL     1       4.139   2.405  17.114  0.00  0.00    +0.000 OA
ENDBRANCH   3  10
BRANCH   7  11
ATOM     11  O   UNL     1       6.264   6.817  16.641  0.00  0.00    +0.000 OA
ATOM     12  C   UNL     1       7.342   7.288  17.429  0.00  0.00    +0.000 C 
ENDBRANCH   7  11
BRANCH   8  13
ATOM     13  O   UNL     1       6.195   4.047  15.874  0.00  0.00    +0.000 OA
ATOM     14  C   UNL     1       5.903   4.105  14.490  0.00  0.00    +0.000 C 
ENDBRANCH   8  13
ENDBRANCH   1   5
BRANCH   1  15
ATOM     15  C   UNL     1       2.047   7.596  19.441  0.00  0.00    +0.000 A 
ATOM     16  C   UNL     1       2.202   8.172  18.188  0.00  0.00    +0.000 A 
ATOM     17  C   UNL     1       1.633   9.419  17.969  0.00  0.00    +0.000 A 
ATOM     18  C   UNL     1       0.940  10.048  19.006  0.00  0.00    +0.000 A 
ATOM     19  C   UNL     1       0.846   9.413  20.239  0.00  0.00    +0.000 A 
ATOM     20  N   UNL     1       1.401   8.200  20.467  0.00  0.00    +0.000 NA
BRANCH  19  21
ATOM     21  C   UNL     1       0.117  10.024  21.351  0.00  0.00    +0.000 A 
ATOM     22  C   UNL     1      -0.291  11.373  21.557  0.00  0.00    +0.000 A 
ATOM     23  C   UNL     1      -0.950  11.444  22.766  0.00  0.00    +0.000 A 
ATOM     24  N   UNL     1      -0.969  10.188  23.305  0.00  0.00    +0.000 N 
ATOM     25  C   UNL     1      -0.326   9.320  22.460  0.00  0.00    +0.000 A 
ATOM     26  H   UNL     1      -1.392   9.936  24.190  0.00  0.00    +0.000 HD
ENDBRANCH  19  21
ENDBRANCH   1  15
TORSDOF 6
ENDMDL
MODEL 5
REMARK VINA RESULT:      -7.6      2.307      3.833
REMARK  Name = 
REMARK  9 active torsions:
REMARK  status: ('A' for Active; 'I' for Inactive)
REMARK    1  A    between atoms: C_1  and  O_2
REMARK    2  A    between atoms: O_2  and  C_3
REMARK    3  A    between atoms: C_5  and  C_6
REMARK    4  A    between atoms: C_6  and  C_8
REMARK    5  A    between atoms: C_12  and  C_13
REMARK    6  A    between atoms: C_20  and  O_21
REMARK    7  A    between atoms: O_21  and  C_22
REMARK    8  A    between atoms: C_23  and  O_24
REMARK    9  A    between atoms: O_24  and  C_25
REMARK                            x       y       z     vdW  Elec       q    Type
REMARK                         _______ _______ _______ _____ _____    ______ ____
ROOT
ATOM      1  C   UNL     1       2.404   7.821  18.182  0.00  0.00    +0.000 C 
ATOM      2  O   UNL     1       2.640   8.396  17.120  0.00  0.00    +0.000 OA
ENDROOT
BRANCH   1   5
ATOM      3  C   UNL     1       2.515   4.049  18.145  0.00  0.00    +0.000 A 
ATOM      4  C   UNL     1       2.038   5.371  18.112  0.00  0.00    +0.000 A 
ATOM      5  C   UNL     1       2.894   6.435  18.382  0.00  0.00    +0.000 A 
ATOM      6  C   UNL     1       4.191   6.174  18.812  0.00  0.00    +0.000 A 
ATOM      7  C   UNL     1       4.667   4.861  18.923  0.00  0.00    +0.000 A 
ATOM      8  C   UNL     1       3.829   3.773  18.590  0.00  0.00    +0.000 A 
BRANCH   3  10
ATOM      9  C   UNL     1       0.838   2.500  18.785  0.00  0.00    +0.000 C 
ATOM     10  O   UNL     1       1.691   3.019  17.761  0.00  0.00    +0.000 OA
ENDBRANCH   3  10
BRANCH   7  11
ATOM     11  O   UNL     1       5.972   4.852  19.346  0.00  0.00    +0.000 OA
ATOM     12  C   UNL     1       7.014   5.142  18.431  0.00  0.00    +0.000 C 
ENDBRANCH   7  11
BRANCH   8  13
ATOM     13  O   UNL     1       4.382   2.532  18.750  0.00  0.00    +0.000 OA
ATOM     14  C   UNL     1       4.398   1.891  20.012  0.00  0.00    +0.000 C 
ENDBRANCH   8  13
ENDBRANCH   1   5
BRANCH   1  15
ATOM     15  C   UNL     1       1.670   8.522  19.276  0.00  0.00    +0.000 A 
ATOM     16  C   UNL     1       1.603   7.938  20.533  0.00  0.00    +0.000 A 
ATOM     17  C   UNL     1       0.929   8.623  21.535  0.00  0.00    +0.000 A 
ATOM     18  C   UNL     1       0.341   9.856  21.246  0.00  0.00    +0.000 A 
ATOM     19  C   UNL     1       0.437  10.366  19.956  0.00  0.00    +0.000 A 
ATOM     20  N   UNL     1       1.085   9.705  18.969  0.00  0.00    +0.000 NA
BRANCH  19  21
ATOM     21  C   UNL     1      -0.149  11.660  19.608  0.00  0.00    +0.000 A 
ATOM     22  C   UNL     1       0.470  12.865  19.164  0.00  0.00    +0.000 A 
ATOM     23  C   UNL     1      -0.516  13.809  18.970  0.00  0.00    +0.000 A 
ATOM     24  N   UNL     1      -1.716  13.227  19.271  0.00  0.00    +0.000 N 
ATOM     25  C   UNL     1      -1.508  11.928  19.659  0.00  0.00    +0.000 A 
ATOM     26  H   UNL     1      -2.619  13.683  19.215  0.00  0.00    +0.000 HD
ENDBRANCH  19  21
ENDBRANCH   1  15
TORSDOF 6
ENDMDL
MODEL 6
REMARK VINA RESULT:      -7.4      2.459      4.382
REMARK  Name = 
REMARK  9 active torsions:
REMARK  status: ('A' for Active; 'I' for Inactive)
REMARK    1  A    between atoms: C_1  and  O_2
REMARK    2  A    between atoms: O_2  and  C_3
REMARK    3  A    between atoms: C_5  and  C_6
REMARK    4  A    between atoms: C_6  and  C_8
REMARK    5  A    between atoms: C_12  and  C_13
REMARK    6  A    between atoms: C_20  and  O_21
REMARK    7  A    between atoms: O_21  and  C_22
REMARK    8  A    between atoms: C_23  and  O_24
REMARK    9  A    between atoms: O_24  and  C_25
REMARK                            x       y       z     vdW  Elec       q    Type
REMARK                         _______ _______ _______ _____ _____    ______ ____
ROOT
ATOM      1  C   UNL     1       3.461   3.870  17.076  0.00  0.00    +0.000 C 
ATOM      2  O   UNL     1       2.763   2.937  16.679  0.00  0.00    +0.000 OA
ENDROOT
BRANCH   1   5
ATOM      3  C   UNL     1       6.042   4.007  14.326  0.00  0.00    +0.000 A 
ATOM      4  C   UNL     1       4.951   3.602  15.113  0.00  0.00    +0.000 A 
ATOM      5  C   UNL     1       4.708   4.204  16.344  0.00  0.00    +0.000 A 
ATOM      6  C   UNL     1       5.629   5.116  16.850  0.00  0.00    +0.000 A 
ATOM      7  C   UNL     1       6.764   5.482  16.115  0.00  0.00    +0.000 A 
ATOM      8  C   UNL     1       6.990   4.927  14.835  0.00  0.00    +0.000 A 
BRANCH   3  10
ATOM      9  C   UNL     1       5.028   3.499  12.244  0.00  0.00    +0.000 C 
ATOM     10  O   UNL     1       6.200   3.490  13.063  0.00  0.00    +0.000 OA
ENDBRANCH   3  10
BRANCH   7  11
ATOM     11  O   UNL     1       7.513   6.402  16.804  0.00  0.00    +0.000 OA
ATOM     12  C   UNL     1       6.882   7.524  17.396  0.00  0.00    +0.000 C 
ENDBRANCH   7  11
BRANCH   8  13
ATOM     13  O   UNL     1       8.135   5.335  14.209  0.00  0.00    +0.000 OA
ATOM     14  C   UNL     1       8.136   5.692  12.839  0.00  0.00    +0.000 C 
ENDBRANCH   8  13
ENDBRANCH   1   5
BRANCH   1  15
ATOM     15  C   UNL     1       3.040   4.683  18.254  0.00  0.00    +0.000 A 
ATOM     16  C   UNL     1       3.025   4.098  19.512  0.00  0.00    +0.000 A 
ATOM     17  C   UNL     1       2.647   4.886  20.591  0.00  0.00    +0.000 A 
ATOM     18  C   UNL     1       2.291   6.219  20.376  0.00  0.00    +0.000 A 
ATOM     19  C   UNL     1       2.315   6.725  19.081  0.00  0.00    +0.000 A 
ATOM     20  N   UNL     1       2.675   5.966  18.020  0.00  0.00    +0.000 NA
BRANCH  19  21
ATOM     21  C   UNL     1       1.967   8.119  18.807  0.00  0.00    +0.000 A 
ATOM     22  C   UNL     1       1.283   9.076  19.611  0.00  0.00    +0.000 A 
ATOM     23  C   UNL     1       1.201  10.255  18.901  0.00  0.00    +0.000 A 
ATOM     24  N   UNL     1       1.816  10.060  17.697  0.00  0.00    +0.000 N 
ATOM     25  C   UNL     1       2.283   8.773  17.625  0.00  0.00    +0.000 A 
ATOM     26  H   UNL     1       1.913  10.758  16.968  0.00  0.00    +0.000 HD
ENDBRANCH  19  21
ENDBRANCH   1  15
TORSDOF 6
ENDMDL
MODEL 7
REMARK VINA RESULT:      -7.4      2.422      4.052
REMARK  Name = 
REMARK  9 active torsions:
REMARK  status: ('A' for Active; 'I' for Inactive)
REMARK    1  A    between atoms: C_1  and  O_2
REMARK    2  A    between atoms: O_2  and  C_3
REMARK    3  A    between atoms: C_5  and  C_6
REMARK    4  A    between atoms: C_6  and  C_8
REMARK    5  A    between atoms: C_12  and  C_13
REMARK    6  A    between atoms: C_20  and  O_21
REMARK    7  A    between atoms: O_21  and  C_22
REMARK    8  A    between atoms: C_23  and  O_24
REMARK    9  A    between atoms: O_24  and  C_25
REMARK                            x       y       z     vdW  Elec       q    Type
REMARK                         _______ _______ _______ _____ _____    ______ ____
ROOT
ATOM      1  C   UNL     1       2.691   7.472  18.413  0.00  0.00    +0.000 C 
ATOM      2  O   UNL     1       3.074   7.919  17.332  0.00  0.00    +0.000 OA
ENDROOT
BRANCH   1   5
ATOM      3  C   UNL     1       2.487   3.871  19.526  0.00  0.00    +0.000 A 
ATOM      4  C   UNL     1       2.148   5.211  19.272  0.00  0.00    +0.000 A 
ATOM      5  C   UNL     1       3.113   6.109  18.824  0.00  0.00    +0.000 A 
ATOM      6  C   UNL     1       4.441   5.704  18.756  0.00  0.00    +0.000 A 
ATOM      7  C   UNL     1       4.816   4.392  19.074  0.00  0.00    +0.000 A 
ATOM      8  C   UNL     1       3.838   3.452  19.468  0.00  0.00    +0.000 A 
BRANCH   3  10
ATOM      9  C   UNL     1       1.287   2.775  21.252  0.00  0.00    +0.000 C 
ATOM     10  O   UNL     1       1.503   2.970  19.851  0.00  0.00    +0.000 OA
ENDBRANCH   3  10
BRANCH   7  11
ATOM     11  O   UNL     1       6.168   4.222  18.917  0.00  0.00    +0.000 OA
ATOM     12  C   UNL     1       7.029   5.347  18.938  0.00  0.00    +0.000 C 
ENDBRANCH   7  11
BRANCH   8  13
ATOM     13  O   UNL     1       4.308   2.204  19.774  0.00  0.00    +0.000 OA
ATOM     14  C   UNL     1       4.139   1.116  18.885  0.00  0.00    +0.000 C 
ENDBRANCH   8  13
ENDBRANCH   1   5
BRANCH   1  15
ATOM     15  C   UNL     1       1.848   8.303  19.320  0.00  0.00    +0.000 A 
ATOM     16  C   UNL     1       1.645   7.887  20.629  0.00  0.00    +0.000 A 
ATOM     17  C   UNL     1       0.871   8.691  21.454  0.00  0.00    +0.000 A 
ATOM     18  C   UNL     1       0.322   9.870  20.945  0.00  0.00    +0.000 A 
ATOM     19  C   UNL     1       0.557  10.207  19.616  0.00  0.00    +0.000 A 
ATOM     20  N   UNL     1       1.304   9.429  18.800  0.00  0.00    +0.000 NA
BRANCH  19  21
ATOM     21  C   UNL     1       0.018  11.439  19.042  0.00  0.00    +0.000 A 
ATOM     22  C   UNL     1       0.419  12.795  19.219  0.00  0.00    +0.000 A 
ATOM     23  C   UNL     1      -0.409  13.592  18.459  0.00  0.00    +0.000 A 
ATOM     24  N   UNL     1      -1.297  12.777  17.815  0.00  0.00    +0.000 N 
ATOM     25  C   UNL     1      -1.051  11.473  18.159  0.00  0.00    +0.000 A 
ATOM     26  H   UNL     1      -2.025  13.087  17.181  0.00  0.00    +0.000 HD
ENDBRANCH  19  21
ENDBRANCH   1  15
TORSDOF 6
ENDMDL
MODEL 8
REMARK VINA RESULT:      -7.4      3.436      8.056
REMARK  Name = 
REMARK  9 active torsions:
REMARK  status: ('A' for Active; 'I' for Inactive)
REMARK    1  A    between atoms: C_1  and  O_2
REMARK    2  A    between atoms: O_2  and  C_3
REMARK    3  A    between atoms: C_5  and  C_6
REMARK    4  A    between atoms: C_6  and  C_8
REMARK    5  A    between atoms: C_12  and  C_13
REMARK    6  A    between atoms: C_20  and  O_21
REMARK    7  A    between atoms: O_21  and  C_22
REMARK    8  A    between atoms: C_23  and  O_24
REMARK    9  A    between atoms: O_24  and  C_25
REMARK                            x       y       z     vdW  Elec       q    Type
REMARK                         _______ _______ _______ _____ _____    ______ ____
ROOT
ATOM      1  C   UNL     1       3.846   6.878  17.245  0.00  0.00    +0.000 C 
ATOM      2  O   UNL     1       3.421   7.968  16.864  0.00  0.00    +0.000 OA
ENDROOT
BRANCH   1   5
ATOM      3  C   UNL     1       2.116   3.843  18.673  0.00  0.00    +0.000 A 
ATOM      4  C   UNL     1       2.784   4.705  17.787  0.00  0.00    +0.000 A 
ATOM      5  C   UNL     1       3.000   6.037  18.127  0.00  0.00    +0.000 A 
ATOM      6  C   UNL     1       2.434   6.542  19.293  0.00  0.00    +0.000 A 
ATOM      7  C   UNL     1       1.701   5.719  20.158  0.00  0.00    +0.000 A 
ATOM      8  C   UNL     1       1.529   4.349  19.857  0.00  0.00    +0.000 A 
BRANCH   3  10
ATOM      9  C   UNL     1       3.246   1.776  18.404  0.00  0.00    +0.000 C 
ATOM     10  O   UNL     1       2.016   2.506  18.376  0.00  0.00    +0.000 OA
ENDBRANCH   3  10
BRANCH   7  11
ATOM     11  O   UNL     1       1.258   6.429  21.245  0.00  0.00    +0.000 OA
ATOM     12  C   UNL     1       1.249   7.846  21.207  0.00  0.00    +0.000 C 
ENDBRANCH   7  11
BRANCH   8  13
ATOM     13  O   UNL     1       0.783   3.637  20.755  0.00  0.00    +0.000 OA
ATOM     14  C   UNL     1       1.392   2.773  21.696  0.00  0.00    +0.000 C 
ENDBRANCH   8  13
ENDBRANCH   1   5
BRANCH   1  15
ATOM     15  C   UNL     1       5.180   6.386  16.793  0.00  0.00    +0.000 A 
ATOM     16  C   UNL     1       6.291   6.599  17.597  0.00  0.00    +0.000 A 
ATOM     17  C   UNL     1       7.515   6.112  17.158  0.00  0.00    +0.000 A 
ATOM     18  C   UNL     1       7.588   5.442  15.935  0.00  0.00    +0.000 A 
ATOM     19  C   UNL     1       6.432   5.286  15.179  0.00  0.00    +0.000 A 
ATOM     20  N   UNL     1       5.235   5.761  15.592  0.00  0.00    +0.000 NA
BRANCH  19  21
ATOM     21  C   UNL     1       6.455   4.578  13.900  0.00  0.00    +0.000 A 
ATOM     22  C   UNL     1       5.574   3.588  13.375  0.00  0.00    +0.000 A 
ATOM     23  C   UNL     1       6.025   3.230  12.123  0.00  0.00    +0.000 A 
ATOM     24  N   UNL     1       7.144   3.968  11.856  0.00  0.00    +0.000 N 
ATOM     25  C   UNL     1       7.416   4.787  12.921  0.00  0.00    +0.000 A 
ATOM     26  H   UNL     1       7.688   3.920  11.002  0.00  0.00    +0.000 HD
ENDBRANCH  19  21
ENDBRANCH   1  15
TORSDOF 6
ENDMDL
MODEL 9
REMARK VINA RESULT:      -7.3      2.651      3.806
REMARK  Name = 
REMARK  9 active torsions:
REMARK  status: ('A' for Active; 'I' for Inactive)
REMARK    1  A    between atoms: C_1  and  O_2
REMARK    2  A    between atoms: O_2  and  C_3
REMARK    3  A    between atoms: C_5  and  C_6
REMARK    4  A    between atoms: C_6  and  C_8
REMARK    5  A    between atoms: C_12  and  C_13
REMARK    6  A    between atoms: C_20  and  O_21
REMARK    7  A    between atoms: O_21  and  C_22
REMARK    8  A    between atoms: C_23  and  O_24
REMARK    9  A    between atoms: O_24  and  C_25
REMARK                            x       y       z     vdW  Elec       q    Type
REMARK                         _______ _______ _______ _____ _____    ______ ____
ROOT
ATOM      1  C   UNL     1       2.481   8.269  17.919  0.00  0.00    +0.000 C 
ATOM      2  O   UNL     1       2.987   8.828  16.946  0.00  0.00    +0.000 OA
ENDROOT
BRANCH   1   5
ATOM      3  C   UNL     1       4.709   5.232  18.167  0.00  0.00    +0.000 A 
ATOM      4  C   UNL     1       4.112   6.415  17.698  0.00  0.00    +0.000 A 
ATOM      5  C   UNL     1       2.991   6.939  18.336  0.00  0.00    +0.000 A 
ATOM      6  C   UNL     1       2.389   6.214  19.359  0.00  0.00    +0.000 A 
ATOM      7  C   UNL     1       2.924   4.996  19.797  0.00  0.00    +0.000 A 
ATOM      8  C   UNL     1       4.099   4.483  19.201  0.00  0.00    +0.000 A 
BRANCH   3  10
ATOM      9  C   UNL     1       5.773   4.296  16.267  0.00  0.00    +0.000 C 
ATOM     10  O   UNL     1       5.882   4.793  17.603  0.00  0.00    +0.000 OA
ENDBRANCH   3  10
BRANCH   7  11
ATOM     11  O   UNL     1       2.175   4.476  20.821  0.00  0.00    +0.000 OA
ATOM     12  C   UNL     1       0.985   3.761  20.534  0.00  0.00    +0.000 C 
ENDBRANCH   7  11
BRANCH   8  13
ATOM     13  O   UNL     1       4.530   3.280  19.687  0.00  0.00    +0.000 OA
ATOM     14  C   UNL     1       4.001   2.059  19.201  0.00  0.00    +0.000 C 
ENDBRANCH   8  13
ENDBRANCH   1   5
BRANCH   1  15
ATOM     15  C   UNL     1       1.396   8.935  18.697  0.00  0.00    +0.000 A 
ATOM     16  C   UNL     1       1.511   9.032  20.076  0.00  0.00    +0.000 A 
ATOM     17  C   UNL     1       0.494   9.674  20.771  0.00  0.00    +0.000 A 
ATOM     18  C   UNL     1      -0.599  10.186  20.068  0.00  0.00    +0.000 A 
ATOM     19  C   UNL     1      -0.648  10.031  18.687  0.00  0.00    +0.000 A 
ATOM     20  N   UNL     1       0.333   9.402  18.000  0.00  0.00    +0.000 NA
BRANCH  19  21
ATOM     21  C   UNL     1      -1.764  10.564  17.906  0.00  0.00    +0.000 A 
ATOM     22  C   UNL     1      -2.295  10.148  16.650  0.00  0.00    +0.000 A 
ATOM     23  C   UNL     1      -3.351  10.975  16.334  0.00  0.00    +0.000 A 
ATOM     24  N   UNL     1      -3.494  11.876  17.351  0.00  0.00    +0.000 N 
ATOM     25  C   UNL     1      -2.540  11.640  18.307  0.00  0.00    +0.000 A 
ATOM     26  H   UNL     1      -4.195  12.606  17.394  0.00  0.00    +0.000 HD
ENDBRANCH  19  21
ENDBRANCH   1  15
TORSDOF 6
ENDMDL
