MODEL 1
REMARK VINA RESULT:      -6.8      0.000      0.000
REMARK  Name = 
REMARK  6 active torsions:
REMARK  status: ('A' for Active; 'I' for Inactive)
REMARK    1  A    between atoms: C_1  and  S_2
REMARK    2  A    between atoms: S_2  and  N_5
REMARK    3  A    between atoms: C_11  and  C_12
REMARK    4  A    between atoms: C_12  and  N_13
REMARK    5  A    between atoms: N_18  and  C_19
REMARK    6  A    between atoms: C_19  and  C_20
REMARK                            x       y       z     vdW  Elec       q    Type
REMARK                         _______ _______ _______ _____ _____    ______ ____
ROOT
ATOM      1  N   UNL     1       1.938   3.906  18.580  0.00  0.00    +0.000 NA
ATOM      2  C   UNL     1       1.553   5.089  19.390  0.00  0.00    +0.000 C 
ATOM      3  C   UNL     1       2.752   5.744  20.089  0.00  0.00    +0.000 C 
ATOM      4  C   UNL     1       4.042   5.834  19.256  0.00  0.00    +0.000 C 
ATOM      5  C   UNL     1       4.277   4.511  18.543  0.00  0.00    +0.000 C 
ATOM      6  C   UNL     1       5.451   4.808  17.661  0.00  0.00    +0.000 C 
ATOM      7  C   UNL     1       5.273   6.291  17.270  0.00  0.00    +0.000 C 
ATOM      8  N   UNL     1       4.241   6.874  18.191  0.00  0.00    +0.000 NA
ATOM      9  C   UNL     1       3.087   4.084  17.698  0.00  0.00    +0.000 C 
ENDROOT
BRANCH   1  11
ATOM     10  C   UNL     1       1.415   2.463  20.809  0.00  0.00    +0.000 C 
ATOM     11  S   UNL     1       1.551   2.347  19.035  0.00  0.00    +0.000 S 
ATOM     12  O   UNL     1       2.663   1.471  18.733  0.00  0.00    +0.000 OA
ATOM     13  O   UNL     1       0.242   2.062  18.499  0.00  0.00    +0.000 OA
ENDBRANCH   1  11
BRANCH   7  14
ATOM     14  C   UNL     1       5.157   6.467  15.746  0.00  0.00    +0.000 C 
BRANCH  14  15
ATOM     15  N   UNL     1       5.886   5.456  15.006  0.00  0.00    +0.000 N 
ATOM     16  C   UNL     1       5.373   4.395  14.331  0.00  0.00    +0.000 A 
ATOM     17  N   UNL     1       6.325   3.822  13.631  0.00  0.00    +0.000 NA
ATOM     18  C   UNL     1       7.425   4.572  13.939  0.00  0.00    +0.000 A 
ATOM     19  N   UNL     1       7.211   5.570  14.798  0.00  0.00    +0.000 NA
ENDBRANCH  14  15
ENDBRANCH   7  14
BRANCH   8  20
ATOM     20  C   UNL     1       2.978   7.419  17.696  0.00  0.00    +0.000 C 
BRANCH  20  21
ATOM     21  C   UNL     1       2.501   8.804  18.001  0.00  0.00    +0.000 C 
ATOM     22  C   UNL     1       1.034   9.047  17.687  0.00  0.00    +0.000 C 
ATOM     23  C   UNL     1       1.523   9.134  19.101  0.00  0.00    +0.000 C 
ENDBRANCH  20  21
ENDBRANCH   8  20
TORSDOF 5
ENDMDL
MODEL 2
REMARK VINA RESULT:      -6.0      3.150      6.038
REMARK  Name = 
REMARK  6 active torsions:
REMARK  status: ('A' for Active; 'I' for Inactive)
REMARK    1  A    between atoms: C_1  and  S_2
REMARK    2  A    between atoms: S_2  and  N_5
REMARK    3  A    between atoms: C_11  and  C_12
REMARK    4  A    between atoms: C_12  and  N_13
REMARK    5  A    between atoms: N_18  and  C_19
REMARK    6  A    between atoms: C_19  and  C_20
REMARK                            x       y       z     vdW  Elec       q    Type
REMARK                         _______ _______ _______ _____ _____    ______ ____
ROOT
ATOM      1  N   UNL     1       5.362   4.732  16.264  0.00  0.00    +0.000 NA
ATOM      2  C   UNL     1       4.848   3.541  16.985  0.00  0.00    +0.000 C 
ATOM      3  C   UNL     1       4.733   3.768  18.499  0.00  0.00    +0.000 C 
ATOM      4  C   UNL     1       4.208   5.148  18.928  0.00  0.00    +0.000 C 
ATOM      5  C   UNL     1       4.889   6.228  18.102  0.00  0.00    +0.000 C 
ATOM      6  C   UNL     1       4.163   7.473  18.512  0.00  0.00    +0.000 C 
ATOM      7  C   UNL     1       2.720   7.002  18.793  0.00  0.00    +0.000 C 
ATOM      8  N   UNL     1       2.750   5.504  18.880  0.00  0.00    +0.000 NA
ATOM      9  C   UNL     1       4.734   6.004  16.606  0.00  0.00    +0.000 C 
ENDROOT
BRANCH   1  11
ATOM     10  C   UNL     1       6.659   4.086  13.977  0.00  0.00    +0.000 C 
ATOM     11  S   UNL     1       6.893   4.783  15.601  0.00  0.00    +0.000 S 
ATOM     12  O   UNL     1       7.764   3.895  16.342  0.00  0.00    +0.000 OA
ATOM     13  O   UNL     1       7.242   6.175  15.451  0.00  0.00    +0.000 OA
ENDBRANCH   1  11
BRANCH   7  14
ATOM     14  C   UNL     1       1.703   7.718  17.889  0.00  0.00    +0.000 C 
BRANCH  14  15
ATOM     15  N   UNL     1       1.476   9.096  18.278  0.00  0.00    +0.000 N 
ATOM     16  C   UNL     1       0.832   9.547  19.387  0.00  0.00    +0.000 A 
ATOM     17  N   UNL     1       0.998  10.845  19.490  0.00  0.00    +0.000 NA
ATOM     18  C   UNL     1       1.744  11.147  18.386  0.00  0.00    +0.000 A 
ATOM     19  N   UNL     1       2.041  10.111  17.599  0.00  0.00    +0.000 NA
ENDBRANCH  14  15
ENDBRANCH   7  14
BRANCH   8  20
ATOM     20  C   UNL     1       1.996   4.658  17.957  0.00  0.00    +0.000 C 
BRANCH  20  21
ATOM     21  C   UNL     1       0.984   3.649  18.400  0.00  0.00    +0.000 C 
ATOM     22  C   UNL     1       1.528   2.240  18.559  0.00  0.00    +0.000 C 
ATOM     23  C   UNL     1       1.001   2.978  19.751  0.00  0.00    +0.000 C 
ENDBRANCH  20  21
ENDBRANCH   8  20
TORSDOF 5
ENDMDL
MODEL 3
REMARK VINA RESULT:      -6.0      2.508      5.487
REMARK  Name = 
REMARK  6 active torsions:
REMARK  status: ('A' for Active; 'I' for Inactive)
REMARK    1  A    between atoms: C_1  and  S_2
REMARK    2  A    between atoms: S_2  and  N_5
REMARK    3  A    between atoms: C_11  and  C_12
REMARK    4  A    between atoms: C_12  and  N_13
REMARK    5  A    between atoms: N_18  and  C_19
REMARK    6  A    between atoms: C_19  and  C_20
REMARK                            x       y       z     vdW  Elec       q    Type
REMARK                         _______ _______ _______ _____ _____    ______ ____
ROOT
ATOM      1  N   UNL     1       4.477   3.849  19.481  0.00  0.00    +0.000 NA
ATOM      2  C   UNL     1       5.564   4.021  18.485  0.00  0.00    +0.000 C 
ATOM      3  C   UNL     1       5.038   4.386  17.090  0.00  0.00    +0.000 C 
ATOM      4  C   UNL     1       3.871   5.388  17.058  0.00  0.00    +0.000 C 
ATOM      5  C   UNL     1       2.851   5.010  18.121  0.00  0.00    +0.000 C 
ATOM      6  C   UNL     1       1.882   6.152  18.078  0.00  0.00    +0.000 C 
ATOM      7  C   UNL     1       2.750   7.379  17.725  0.00  0.00    +0.000 C 
ATOM      8  N   UNL     1       4.075   6.864  17.242  0.00  0.00    +0.000 NA
ATOM      9  C   UNL     1       3.465   4.901  19.507  0.00  0.00    +0.000 C 
ENDROOT
BRANCH   1  11
ATOM     10  C   UNL     1       3.536   1.456  18.634  0.00  0.00    +0.000 C 
ATOM     11  S   UNL     1       4.049   2.354  20.087  0.00  0.00    +0.000 S 
ATOM     12  O   UNL     1       2.893   2.500  20.948  0.00  0.00    +0.000 OA
ATOM     13  O   UNL     1       5.253   1.743  20.595  0.00  0.00    +0.000 OA
ENDBRANCH   1  11
BRANCH   7  14
ATOM     14  C   UNL     1       2.676   8.460  18.816  0.00  0.00    +0.000 C 
BRANCH  14  15
ATOM     15  N   UNL     1       1.373   9.092  18.894  0.00  0.00    +0.000 N 
ATOM     16  C   UNL     1       0.695   9.451  20.016  0.00  0.00    +0.000 A 
ATOM     17  N   UNL     1      -0.353  10.167  19.681  0.00  0.00    +0.000 NA
ATOM     18  C   UNL     1      -0.281  10.196  18.317  0.00  0.00    +0.000 A 
ATOM     19  N   UNL     1       0.746   9.529  17.787  0.00  0.00    +0.000 NA
ENDBRANCH  14  15
ENDBRANCH   7  14
BRANCH   8  20
ATOM     20  C   UNL     1       5.326   7.177  17.930  0.00  0.00    +0.000 C 
BRANCH  20  21
ATOM     21  C   UNL     1       6.660   7.189  17.253  0.00  0.00    +0.000 C 
ATOM     22  C   UNL     1       7.559   8.346  17.653  0.00  0.00    +0.000 C 
ATOM     23  C   UNL     1       7.966   6.939  17.965  0.00  0.00    +0.000 C 
ENDBRANCH  20  21
ENDBRANCH   8  20
TORSDOF 5
ENDMDL
MODEL 4
REMARK VINA RESULT:      -5.9      2.397      3.484
REMARK  Name = 
REMARK  6 active torsions:
REMARK  status: ('A' for Active; 'I' for Inactive)
REMARK    1  A    between atoms: C_1  and  S_2
REMARK    2  A    between atoms: S_2  and  N_5
REMARK    3  A    between atoms: C_11  and  C_12
REMARK    4  A    between atoms: C_12  and  N_13
REMARK    5  A    between atoms: N_18  and  C_19
REMARK    6  A    between atoms: C_19  and  C_20
REMARK                            x       y       z     vdW  Elec       q    Type
REMARK                         _______ _______ _______ _____ _____    ______ ____
ROOT
ATOM      1  N   UNL     1       3.496   5.217  18.543  0.00  0.00    +0.000 NA
ATOM      2  C   UNL     1       4.603   5.814  19.331  0.00  0.00    +0.000 C 
ATOM      3  C   UNL     1       5.872   4.950  19.318  0.00  0.00    +0.000 C 
ATOM      4  C   UNL     1       6.221   4.297  17.970  0.00  0.00    +0.000 C 
ATOM      5  C   UNL     1       4.961   3.711  17.351  0.00  0.00    +0.000 C 
ATOM      6  C   UNL     1       5.426   3.272  15.996  0.00  0.00    +0.000 C 
ATOM      7  C   UNL     1       6.506   4.303  15.606  0.00  0.00    +0.000 C 
ATOM      8  N   UNL     1       6.868   5.061  16.851  0.00  0.00    +0.000 NA
ATOM      9  C   UNL     1       3.848   4.736  17.211  0.00  0.00    +0.000 C 
ENDROOT
BRANCH   1  11
ATOM     10  C   UNL     1       2.782   3.150  20.139  0.00  0.00    +0.000 C 
ATOM     11  S   UNL     1       2.139   4.564  19.264  0.00  0.00    +0.000 S 
ATOM     12  O   UNL     1       1.240   4.078  18.238  0.00  0.00    +0.000 OA
ATOM     13  O   UNL     1       1.672   5.523  20.235  0.00  0.00    +0.000 OA
ENDBRANCH   1  11
BRANCH   7  14
ATOM     14  C   UNL     1       6.141   5.046  14.310  0.00  0.00    +0.000 C 
BRANCH  14  15
ATOM     15  N   UNL     1       6.076   4.170  13.158  0.00  0.00    +0.000 N 
ATOM     16  C   UNL     1       7.115   3.604  12.489  0.00  0.00    +0.000 A 
ATOM     17  N   UNL     1       6.655   2.725  11.630  0.00  0.00    +0.000 NA
ATOM     18  C   UNL     1       5.302   2.811  11.799  0.00  0.00    +0.000 A 
ATOM     19  N   UNL     1       4.897   3.702  12.707  0.00  0.00    +0.000 NA
ENDBRANCH  14  15
ENDBRANCH   7  14
BRANCH   8  20
ATOM     20  C   UNL     1       6.667   6.504  16.966  0.00  0.00    +0.000 C 
BRANCH  20  21
ATOM     21  C   UNL     1       7.787   7.484  17.128  0.00  0.00    +0.000 C 
ATOM     22  C   UNL     1       7.379   8.807  17.752  0.00  0.00    +0.000 C 
ATOM     23  C   UNL     1       8.345   7.910  18.463  0.00  0.00    +0.000 C 
ENDBRANCH  20  21
ENDBRANCH   8  20
TORSDOF 5
ENDMDL
MODEL 5
REMARK VINA RESULT:      -5.8      0.867      1.041
REMARK  Name = 
REMARK  6 active torsions:
REMARK  status: ('A' for Active; 'I' for Inactive)
REMARK    1  A    between atoms: C_1  and  S_2
REMARK    2  A    between atoms: S_2  and  N_5
REMARK    3  A    between atoms: C_11  and  C_12
REMARK    4  A    between atoms: C_12  and  N_13
REMARK    5  A    between atoms: N_18  and  C_19
REMARK    6  A    between atoms: C_19  and  C_20
REMARK                            x       y       z     vdW  Elec       q    Type
REMARK                         _______ _______ _______ _____ _____    ______ ____
ROOT
ATOM      1  N   UNL     1       2.318   3.821  18.811  0.00  0.00    +0.000 NA
ATOM      2  C   UNL     1       1.865   4.999  19.592  0.00  0.00    +0.000 C 
ATOM      3  C   UNL     1       3.029   5.781  20.216  0.00  0.00    +0.000 C 
ATOM      4  C   UNL     1       4.274   5.946  19.327  0.00  0.00    +0.000 C 
ATOM      5  C   UNL     1       4.594   4.620  18.654  0.00  0.00    +0.000 C 
ATOM      6  C   UNL     1       5.703   4.980  17.713  0.00  0.00    +0.000 C 
ATOM      7  C   UNL     1       5.382   6.425  17.275  0.00  0.00    +0.000 C 
ATOM      8  N   UNL     1       4.340   6.955  18.217  0.00  0.00    +0.000 NA
ATOM      9  C   UNL     1       3.413   4.060  17.876  0.00  0.00    +0.000 C 
ENDROOT
BRANCH   1  11
ATOM     10  C   UNL     1       0.462   1.853  18.722  0.00  0.00    +0.000 C 
ATOM     11  S   UNL     1       2.085   2.255  19.340  0.00  0.00    +0.000 S 
ATOM     12  O   UNL     1       2.023   2.243  20.787  0.00  0.00    +0.000 OA
ATOM     13  O   UNL     1       3.048   1.429  18.653  0.00  0.00    +0.000 OA
ENDBRANCH   1  11
BRANCH   7  14
ATOM     14  C   UNL     1       5.193   6.529  15.752  0.00  0.00    +0.000 C 
BRANCH  14  15
ATOM     15  N   UNL     1       5.888   5.485  15.026  0.00  0.00    +0.000 N 
ATOM     16  C   UNL     1       5.343   4.412  14.395  0.00  0.00    +0.000 A 
ATOM     17  N   UNL     1       6.268   3.803  13.692  0.00  0.00    +0.000 NA
ATOM     18  C   UNL     1       7.387   4.543  13.951  0.00  0.00    +0.000 A 
ATOM     19  N   UNL     1       7.210   5.570  14.785  0.00  0.00    +0.000 NA
ENDBRANCH  14  15
ENDBRANCH   7  14
BRANCH   8  20
ATOM     20  C   UNL     1       3.017   7.371  17.756  0.00  0.00    +0.000 C 
BRANCH  20  21
ATOM     21  C   UNL     1       2.198   8.422  18.436  0.00  0.00    +0.000 C 
ATOM     22  C   UNL     1       2.266   9.793  17.785  0.00  0.00    +0.000 C 
ATOM     23  C   UNL     1       0.966   9.050  17.832  0.00  0.00    +0.000 C 
ENDBRANCH  20  21
ENDBRANCH   8  20
TORSDOF 5
ENDMDL
MODEL 6
REMARK VINA RESULT:      -5.7      2.349      5.335
REMARK  Name = 
REMARK  6 active torsions:
REMARK  status: ('A' for Active; 'I' for Inactive)
REMARK    1  A    between atoms: C_1  and  S_2
REMARK    2  A    between atoms: S_2  and  N_5
REMARK    3  A    between atoms: C_11  and  C_12
REMARK    4  A    between atoms: C_12  and  N_13
REMARK    5  A    between atoms: N_18  and  C_19
REMARK    6  A    between atoms: C_19  and  C_20
REMARK                            x       y       z     vdW  Elec       q    Type
REMARK                         _______ _______ _______ _____ _____    ______ ____
ROOT
ATOM      1  N   UNL     1       3.266   3.936  20.123  0.00  0.00    +0.000 NA
ATOM      2  C   UNL     1       4.492   3.551  19.381  0.00  0.00    +0.000 C 
ATOM      3  C   UNL     1       4.325   3.669  17.859  0.00  0.00    +0.000 C 
ATOM      4  C   UNL     1       3.545   4.900  17.367  0.00  0.00    +0.000 C 
ATOM      5  C   UNL     1       2.307   5.093  18.230  0.00  0.00    +0.000 C 
ATOM      6  C   UNL     1       1.758   6.399  17.743  0.00  0.00    +0.000 C 
ATOM      7  C   UNL     1       3.006   7.220  17.352  0.00  0.00    +0.000 C 
ATOM      8  N   UNL     1       4.164   6.266  17.290  0.00  0.00    +0.000 NA
ATOM      9  C   UNL     1       2.637   5.187  19.712  0.00  0.00    +0.000 C 
ENDROOT
BRANCH   1  11
ATOM     10  C   UNL     1       1.976   1.605  19.643  0.00  0.00    +0.000 C 
ATOM     11  S   UNL     1       2.308   2.816  20.909  0.00  0.00    +0.000 S 
ATOM     12  O   UNL     1       1.050   3.434  21.271  0.00  0.00    +0.000 OA
ATOM     13  O   UNL     1       3.127   2.198  21.923  0.00  0.00    +0.000 OA
ENDBRANCH   1  11
BRANCH   7  14
ATOM     14  C   UNL     1       3.104   8.525  18.158  0.00  0.00    +0.000 C 
BRANCH  14  15
ATOM     15  N   UNL     1       1.816   8.993  18.630  0.00  0.00    +0.000 N 
ATOM     16  C   UNL     1       1.327   8.929  19.896  0.00  0.00    +0.000 A 
ATOM     17  N   UNL     1       0.216   9.625  19.970  0.00  0.00    +0.000 NA
ATOM     18  C   UNL     1       0.055  10.082  18.693  0.00  0.00    +0.000 A 
ATOM     19  N   UNL     1       0.997   9.699  17.828  0.00  0.00    +0.000 NA
ENDBRANCH  14  15
ENDBRANCH   7  14
BRANCH   8  20
ATOM     20  C   UNL     1       5.330   6.404  18.160  0.00  0.00    +0.000 C 
BRANCH  20  21
ATOM     21  C   UNL     1       6.741   6.336  17.668  0.00  0.00    +0.000 C 
ATOM     22  C   UNL     1       7.725   5.738  18.659  0.00  0.00    +0.000 C 
ATOM     23  C   UNL     1       7.462   5.048  17.356  0.00  0.00    +0.000 C 
ENDBRANCH  20  21
ENDBRANCH   8  20
TORSDOF 5
ENDMDL
MODEL 7
REMARK VINA RESULT:      -5.7      3.036      4.572
REMARK  Name = 
REMARK  6 active torsions:
REMARK  status: ('A' for Active; 'I' for Inactive)
REMARK    1  A    between atoms: C_1  and  S_2
REMARK    2  A    between atoms: S_2  and  N_5
REMARK    3  A    between atoms: C_11  and  C_12
REMARK    4  A    between atoms: C_12  and  N_13
REMARK    5  A    between atoms: N_18  and  C_19
REMARK    6  A    between atoms: C_19  and  C_20
REMARK                            x       y       z     vdW  Elec       q    Type
REMARK                         _______ _______ _______ _____ _____    ______ ____
ROOT
ATOM      1  N   UNL     1       1.803   7.382  20.796  0.00  0.00    +0.000 NA
ATOM      2  C   UNL     1       1.592   5.922  20.960  0.00  0.00    +0.000 C 
ATOM      3  C   UNL     1       1.210   5.227  19.646  0.00  0.00    +0.000 C 
ATOM      4  C   UNL     1       1.964   5.706  18.394  0.00  0.00    +0.000 C 
ATOM      5  C   UNL     1       2.032   7.225  18.396  0.00  0.00    +0.000 C 
ATOM      6  C   UNL     1       2.923   7.523  17.229  0.00  0.00    +0.000 C 
ATOM      7  C   UNL     1       3.919   6.344  17.194  0.00  0.00    +0.000 C 
ATOM      8  N   UNL     1       3.367   5.268  18.085  0.00  0.00    +0.000 NA
ATOM      9  C   UNL     1       2.643   7.782  19.672  0.00  0.00    +0.000 C 
ENDROOT
BRANCH   1  11
ATOM     10  C   UNL     1       0.545   9.658  20.043  0.00  0.00    +0.000 C 
ATOM     11  S   UNL     1       0.731   8.512  21.397  0.00  0.00    +0.000 S 
ATOM     12  O   UNL     1       1.352   9.223  22.495  0.00  0.00    +0.000 OA
ATOM     13  O   UNL     1      -0.528   7.838  21.595  0.00  0.00    +0.000 OA
ENDBRANCH   1  11
BRANCH   7  14
ATOM     14  C   UNL     1       5.372   6.823  17.348  0.00  0.00    +0.000 C 
BRANCH  14  15
ATOM     15  N   UNL     1       6.325   5.948  16.694  0.00  0.00    +0.000 N 
ATOM     16  C   UNL     1       7.257   5.153  17.284  0.00  0.00    +0.000 A 
ATOM     17  N   UNL     1       7.797   4.370  16.379  0.00  0.00    +0.000 NA
ATOM     18  C   UNL     1       7.165   4.749  15.229  0.00  0.00    +0.000 A 
ATOM     19  N   UNL     1       6.273   5.732  15.367  0.00  0.00    +0.000 NA
ENDBRANCH  14  15
ENDBRANCH   7  14
BRANCH   8  20
ATOM     20  C   UNL     1       4.083   4.799  19.269  0.00  0.00    +0.000 C 
BRANCH  20  21
ATOM     21  C   UNL     1       4.486   3.373  19.480  0.00  0.00    +0.000 C 
ATOM     22  C   UNL     1       3.534   2.573  20.353  0.00  0.00    +0.000 C 
ATOM     23  C   UNL     1       3.732   2.194  18.917  0.00  0.00    +0.000 C 
ENDBRANCH  20  21
ENDBRANCH   8  20
TORSDOF 5
ENDMDL
MODEL 8
REMARK VINA RESULT:      -5.7      3.079      5.966
REMARK  Name = 
REMARK  6 active torsions:
REMARK  status: ('A' for Active; 'I' for Inactive)
REMARK    1  A    between atoms: C_1  and  S_2
REMARK    2  A    between atoms: S_2  and  N_5
REMARK    3  A    between atoms: C_11  and  C_12
REMARK    4  A    between atoms: C_12  and  N_13
REMARK    5  A    between atoms: N_18  and  C_19
REMARK    6  A    between atoms: C_19  and  C_20
REMARK                            x       y       z     vdW  Elec       q    Type
REMARK                         _______ _______ _______ _____ _____    ______ ____
ROOT
ATOM      1  N   UNL     1       4.880   4.551  16.394  0.00  0.00    +0.000 NA
ATOM      2  C   UNL     1       4.522   3.456  17.330  0.00  0.00    +0.000 C 
ATOM      3  C   UNL     1       4.676   3.861  18.803  0.00  0.00    +0.000 C 
ATOM      4  C   UNL     1       4.215   5.285  19.155  0.00  0.00    +0.000 C 
ATOM      5  C   UNL     1       4.721   6.256  18.099  0.00  0.00    +0.000 C 
ATOM      6  C   UNL     1       4.061   7.545  18.484  0.00  0.00    +0.000 C 
ATOM      7  C   UNL     1       2.699   7.119  19.072  0.00  0.00    +0.000 C 
ATOM      8  N   UNL     1       2.767   5.641  19.328  0.00  0.00    +0.000 NA
ATOM      9  C   UNL     1       4.304   5.858  16.692  0.00  0.00    +0.000 C 
ENDROOT
BRANCH   1  11
ATOM     10  C   UNL     1       7.571   4.466  16.683  0.00  0.00    +0.000 C 
ATOM     11  S   UNL     1       6.268   4.514  15.466  0.00  0.00    +0.000 S 
ATOM     12  O   UNL     1       6.389   5.760  14.738  0.00  0.00    +0.000 OA
ATOM     13  O   UNL     1       6.267   3.260  14.754  0.00  0.00    +0.000 OA
ENDBRANCH   1  11
BRANCH   7  14
ATOM     14  C   UNL     1       1.525   7.729  18.288  0.00  0.00    +0.000 C 
BRANCH  14  15
ATOM     15  N   UNL     1       1.347   9.143  18.552  0.00  0.00    +0.000 N 
ATOM     16  C   UNL     1       0.781   9.715  19.648  0.00  0.00    +0.000 A 
ATOM     17  N   UNL     1       0.975  11.012  19.612  0.00  0.00    +0.000 NA
ATOM     18  C   UNL     1       1.656  11.188  18.440  0.00  0.00    +0.000 A 
ATOM     19  N   UNL     1       1.885  10.074  17.742  0.00  0.00    +0.000 NA
ENDBRANCH  14  15
ENDBRANCH   7  14
BRANCH   8  20
ATOM     20  C   UNL     1       1.873   4.697  18.660  0.00  0.00    +0.000 C 
BRANCH  20  21
ATOM     21  C   UNL     1       0.996   3.730  19.393  0.00  0.00    +0.000 C 
ATOM     22  C   UNL     1       1.076   2.300  18.887  0.00  0.00    +0.000 C 
ATOM     23  C   UNL     1       1.518   2.628  20.280  0.00  0.00    +0.000 C 
ENDBRANCH  20  21
ENDBRANCH   8  20
TORSDOF 5
ENDMDL
MODEL 9
REMARK VINA RESULT:      -5.5      3.038      5.819
REMARK  Name = 
REMARK  6 active torsions:
REMARK  status: ('A' for Active; 'I' for Inactive)
REMARK    1  A    between atoms: C_1  and  S_2
REMARK    2  A    between atoms: S_2  and  N_5
REMARK    3  A    between atoms: C_11  and  C_12
REMARK    4  A    between atoms: C_12  and  N_13
REMARK    5  A    between atoms: N_18  and  C_19
REMARK    6  A    between atoms: C_19  and  C_20
REMARK                            x       y       z     vdW  Elec       q    Type
REMARK                         _______ _______ _______ _____ _____    ______ ____
ROOT
ATOM      1  N   UNL     1       3.026   7.023  17.587  0.00  0.00    +0.000 NA
ATOM      2  C   UNL     1       4.257   7.156  16.769  0.00  0.00    +0.000 C 
ATOM      3  C   UNL     1       5.527   6.776  17.543  0.00  0.00    +0.000 C 
ATOM      4  C   UNL     1       5.406   5.549  18.462  0.00  0.00    +0.000 C 
ATOM      5  C   UNL     1       4.101   5.627  19.240  0.00  0.00    +0.000 C 
ATOM      6  C   UNL     1       4.052   4.307  19.947  0.00  0.00    +0.000 C 
ATOM      7  C   UNL     1       4.733   3.322  18.972  0.00  0.00    +0.000 C 
ATOM      8  N   UNL     1       5.444   4.143  17.935  0.00  0.00    +0.000 NA
ATOM      9  C   UNL     1       2.889   5.777  18.335  0.00  0.00    +0.000 C 
ENDROOT
BRANCH   1  11
ATOM     10  C   UNL     1       1.904   7.978  19.858  0.00  0.00    +0.000 C 
ATOM     11  S   UNL     1       2.169   8.347  18.134  0.00  0.00    +0.000 S 
ATOM     12  O   UNL     1       0.875   8.382  17.485  0.00  0.00    +0.000 OA
ATOM     13  O   UNL     1       3.050   9.486  18.046  0.00  0.00    +0.000 OA
ENDBRANCH   1  11
BRANCH   7  14
ATOM     14  C   UNL     1       3.786   2.183  18.560  0.00  0.00    +0.000 C 
BRANCH  14  15
ATOM     15  N   UNL     1       2.432   2.376  19.041  0.00  0.00    +0.000 N 
ATOM     16  C   UNL     1       2.017   2.455  20.332  0.00  0.00    +0.000 A 
ATOM     17  N   UNL     1       0.757   2.825  20.364  0.00  0.00    +0.000 NA
ATOM     18  C   UNL     1       0.438   2.937  19.040  0.00  0.00    +0.000 A 
ATOM     19  N   UNL     1       1.425   2.646  18.190  0.00  0.00    +0.000 NA
ENDBRANCH  14  15
ENDBRANCH   7  14
BRANCH   8  20
ATOM     20  C   UNL     1       5.103   4.066  16.517  0.00  0.00    +0.000 C 
BRANCH  20  21
ATOM     21  C   UNL     1       6.096   3.748  15.444  0.00  0.00    +0.000 C 
ATOM     22  C   UNL     1       5.709   4.244  14.061  0.00  0.00    +0.000 C 
ATOM     23  C   UNL     1       6.931   4.787  14.736  0.00  0.00    +0.000 C 
ENDBRANCH  20  21
ENDBRANCH   8  20
TORSDOF 5
ENDMDL
