MODEL 1
REMARK VINA RESULT:      -8.4      0.000      0.000
REMARK  Name = 
REMARK  5 active torsions:
REMARK  status: ('A' for Active; 'I' for Inactive)
REMARK    1  A    between atoms: C_5  and  O_6
REMARK    2  A    between atoms: O_6  and  C_7
REMARK    3  A    between atoms: C_7  and  C_8
REMARK    4  A    between atoms: C_8  and  C_9
REMARK    5  A    between atoms: C_9  and  N_10
REMARK                            x       y       z     vdW  Elec       q    Type
REMARK                         _______ _______ _______ _____ _____    ______ ____
ROOT
ATOM      1  O   UNL     1       1.507   7.781  21.593  0.00  0.00    +0.000 OA
ATOM      2  C   UNL     1       1.457   8.191  20.441  0.00  0.00    +0.000 A 
ATOM      3  C   UNL     1       2.267   7.536  19.398  0.00  0.00    +0.000 A 
ATOM      4  C   UNL     1       2.762   6.241  19.498  0.00  0.00    +0.000 A 
ATOM      5  C   UNL     1       3.431   5.746  18.377  0.00  0.00    +0.000 A 
ATOM      6  C   UNL     1       4.107   6.653  17.566  0.00  0.00    +0.000 A 
ATOM      7  C   UNL     1       3.532   7.908  17.411  0.00  0.00    +0.000 A 
ATOM      8  C   UNL     1       2.473   8.268  18.235  0.00  0.00    +0.000 A 
ATOM      9  N   UNL     1       1.502   9.171  17.782  0.00  0.00    +0.000 NA
ATOM     10  C   UNL     1       0.610   9.549  18.641  0.00  0.00    +0.000 A 
ATOM     11  N   UNL     1       0.702   9.268  20.001  0.00  0.00    +0.000 N 
ATOM     12  C   UNL     1      -0.004  10.106  20.974  0.00  0.00    +0.000 C 
ATOM     13  C   UNL     1       0.387  11.599  20.874  0.00  0.00    +0.000 C 
ATOM     14  C   UNL     1       0.347  12.237  19.474  0.00  0.00    +0.000 C 
ATOM     15  C   UNL     1      -0.728  11.638  18.616  0.00  0.00    +0.000 A 
ATOM     16  C   UNL     1      -1.906  12.318  18.297  0.00  0.00    +0.000 A 
ATOM     17  C   UNL     1      -2.930  11.662  17.606  0.00  0.00    +0.000 A 
ATOM     18  C   UNL     1      -2.785  10.325  17.225  0.00  0.00    +0.000 A 
ATOM     19  C   UNL     1      -1.601   9.646  17.513  0.00  0.00    +0.000 A 
ATOM     20  C   UNL     1      -0.579  10.311  18.197  0.00  0.00    +0.000 A 
ENDROOT
BRANCH   5  21
ATOM     21  O   UNL     1       2.617   4.811  17.695  0.00  0.00    +0.000 OA
BRANCH  21  22
ATOM     22  C   UNL     1       3.279   3.787  16.957  0.00  0.00    +0.000 C 
BRANCH  22  23
ATOM     23  C   UNL     1       3.949   2.707  17.835  0.00  0.00    +0.000 C 
BRANCH  23  24
ATOM     24  C   UNL     1       2.974   1.746  18.523  0.00  0.00    +0.000 C 
BRANCH  24  25
ATOM     25  N   UNL     1       2.492   2.224  19.817  0.00  0.00    +0.000 N 
ATOM     26  C   UNL     1       1.231   2.661  20.105  0.00  0.00    +0.000 A 
ATOM     27  C   UNL     1       1.303   3.148  21.404  0.00  0.00    +0.000 A 
ATOM     28  N   UNL     1       2.567   3.009  21.893  0.00  0.00    +0.000 NA
ATOM     29  C   UNL     1       3.264   2.458  20.926  0.00  0.00    +0.000 A 
ENDBRANCH  24  25
ENDBRANCH  23  24
ENDBRANCH  22  23
ENDBRANCH  21  22
ENDBRANCH   5  21
TORSDOF 5
ENDMDL
MODEL 2
REMARK VINA RESULT:      -8.2      5.060      9.115
REMARK  Name = 
REMARK  5 active torsions:
REMARK  status: ('A' for Active; 'I' for Inactive)
REMARK    1  A    between atoms: C_5  and  O_6
REMARK    2  A    between atoms: O_6  and  C_7
REMARK    3  A    between atoms: C_7  and  C_8
REMARK    4  A    between atoms: C_8  and  C_9
REMARK    5  A    between atoms: C_9  and  N_10
REMARK                            x       y       z     vdW  Elec       q    Type
REMARK                         _______ _______ _______ _____ _____    ______ ____
ROOT
ATOM      1  O   UNL     1       5.471   4.773  15.562  0.00  0.00    +0.000 OA
ATOM      2  C   UNL     1       5.436   4.868  16.781  0.00  0.00    +0.000 A 
ATOM      3  C   UNL     1       6.412   5.727  17.475  0.00  0.00    +0.000 A 
ATOM      4  C   UNL     1       7.103   6.767  16.864  0.00  0.00    +0.000 A 
ATOM      5  C   UNL     1       7.921   7.537  17.693  0.00  0.00    +0.000 A 
ATOM      6  C   UNL     1       8.495   6.920  18.801  0.00  0.00    +0.000 A 
ATOM      7  C   UNL     1       7.735   5.952  19.446  0.00  0.00    +0.000 A 
ATOM      8  C   UNL     1       6.577   5.490  18.834  0.00  0.00    +0.000 A 
ATOM      9  N   UNL     1       5.506   5.028  19.610  0.00  0.00    +0.000 NA
ATOM     10  C   UNL     1       4.507   4.505  18.974  0.00  0.00    +0.000 A 
ATOM     11  N   UNL     1       4.547   4.204  17.615  0.00  0.00    +0.000 N 
ATOM     12  C   UNL     1       3.649   3.190  17.059  0.00  0.00    +0.000 C 
ATOM     13  C   UNL     1       3.797   1.814  17.751  0.00  0.00    +0.000 C 
ATOM     14  C   UNL     1       3.752   1.799  19.290  0.00  0.00    +0.000 C 
ATOM     15  C   UNL     1       2.851   2.869  19.833  0.00  0.00    +0.000 A 
ATOM     16  C   UNL     1       1.603   2.591  20.397  0.00  0.00    +0.000 A 
ATOM     17  C   UNL     1       0.750   3.637  20.764  0.00  0.00    +0.000 A 
ATOM     18  C   UNL     1       1.138   4.967  20.577  0.00  0.00    +0.000 A 
ATOM     19  C   UNL     1       2.393   5.256  20.042  0.00  0.00    +0.000 A 
ATOM     20  C   UNL     1       3.243   4.204  19.684  0.00  0.00    +0.000 A 
ENDROOT
BRANCH   5  21
ATOM     21  O   UNL     1       7.320   8.794  17.942  0.00  0.00    +0.000 OA
BRANCH  21  22
ATOM     22  C   UNL     1       8.168   9.938  17.921  0.00  0.00    +0.000 C 
BRANCH  22  23
ATOM     23  C   UNL     1       9.137  10.030  19.121  0.00  0.00    +0.000 C 
BRANCH  23  24
ATOM     24  C   UNL     1       9.556  11.455  19.497  0.00  0.00    +0.000 C 
BRANCH  24  25
ATOM     25  N   UNL     1      10.318  12.138  18.453  0.00  0.00    +0.000 N 
ATOM     26  C   UNL     1      11.608  11.882  18.087  0.00  0.00    +0.000 A 
ATOM     27  C   UNL     1      11.931  12.878  17.174  0.00  0.00    +0.000 A 
ATOM     28  N   UNL     1      10.871  13.713  16.988  0.00  0.00    +0.000 NA
ATOM     29  C   UNL     1       9.917  13.256  17.766  0.00  0.00    +0.000 A 
ENDBRANCH  24  25
ENDBRANCH  23  24
ENDBRANCH  22  23
ENDBRANCH  21  22
ENDBRANCH   5  21
TORSDOF 5
ENDMDL
MODEL 3
REMARK VINA RESULT:      -8.0      2.825      8.407
REMARK  Name = 
REMARK  5 active torsions:
REMARK  status: ('A' for Active; 'I' for Inactive)
REMARK    1  A    between atoms: C_5  and  O_6
REMARK    2  A    between atoms: O_6  and  C_7
REMARK    3  A    between atoms: C_7  and  C_8
REMARK    4  A    between atoms: C_8  and  C_9
REMARK    5  A    between atoms: C_9  and  N_10
REMARK                            x       y       z     vdW  Elec       q    Type
REMARK                         _______ _______ _______ _____ _____    ______ ____
ROOT
ATOM      1  O   UNL     1       3.253   8.550  16.873  0.00  0.00    +0.000 OA
ATOM      2  C   UNL     1       2.822   7.929  17.834  0.00  0.00    +0.000 A 
ATOM      3  C   UNL     1       1.896   8.587  18.773  0.00  0.00    +0.000 A 
ATOM      4  C   UNL     1       1.131   9.703  18.454  0.00  0.00    +0.000 A 
ATOM      5  C   UNL     1       0.238  10.141  19.435  0.00  0.00    +0.000 A 
ATOM      6  C   UNL     1       0.574   9.926  20.768  0.00  0.00    +0.000 A 
ATOM      7  C   UNL     1       1.254   8.752  21.064  0.00  0.00    +0.000 A 
ATOM      8  C   UNL     1       1.762   7.989  20.020  0.00  0.00    +0.000 A 
ATOM      9  N   UNL     1       1.894   6.601  20.161  0.00  0.00    +0.000 NA
ATOM     10  C   UNL     1       2.481   5.969  19.195  0.00  0.00    +0.000 A 
ATOM     11  N   UNL     1       3.148   6.619  18.159  0.00  0.00    +0.000 N 
ATOM     12  C   UNL     1       4.191   5.922  17.405  0.00  0.00    +0.000 C 
ATOM     13  C   UNL     1       5.330   5.391  18.307  0.00  0.00    +0.000 C 
ATOM     14  C   UNL     1       4.916   4.577  19.546  0.00  0.00    +0.000 C 
ATOM     15  C   UNL     1       3.661   3.790  19.304  0.00  0.00    +0.000 A 
ATOM     16  C   UNL     1       3.660   2.402  19.140  0.00  0.00    +0.000 A 
ATOM     17  C   UNL     1       2.482   1.739  18.785  0.00  0.00    +0.000 A 
ATOM     18  C   UNL     1       1.295   2.453  18.595  0.00  0.00    +0.000 A 
ATOM     19  C   UNL     1       1.279   3.835  18.784  0.00  0.00    +0.000 A 
ATOM     20  C   UNL     1       2.460   4.490  19.147  0.00  0.00    +0.000 A 
ENDROOT
BRANCH   5  21
ATOM     21  O   UNL     1      -1.087   9.794  19.079  0.00  0.00    +0.000 OA
BRANCH  21  22
ATOM     22  C   UNL     1      -1.635  10.415  17.919  0.00  0.00    +0.000 C 
BRANCH  22  23
ATOM     23  C   UNL     1      -3.136  10.130  17.697  0.00  0.00    +0.000 C 
BRANCH  23  24
ATOM     24  C   UNL     1      -3.898  11.240  16.967  0.00  0.00    +0.000 C 
BRANCH  24  25
ATOM     25  N   UNL     1      -5.254  11.451  17.469  0.00  0.00    +0.000 N 
ATOM     26  C   UNL     1      -6.082  12.492  17.163  0.00  0.00    +0.000 A 
ATOM     27  C   UNL     1      -7.185  12.334  17.993  0.00  0.00    +0.000 A 
ATOM     28  N   UNL     1      -7.035  11.232  18.777  0.00  0.00    +0.000 NA
ATOM     29  C   UNL     1      -5.871  10.719  18.452  0.00  0.00    +0.000 A 
ENDBRANCH  24  25
ENDBRANCH  23  24
ENDBRANCH  22  23
ENDBRANCH  21  22
ENDBRANCH   5  21
TORSDOF 5
ENDMDL
MODEL 4
REMARK VINA RESULT:      -7.9      2.036      2.931
REMARK  Name = 
REMARK  5 active torsions:
REMARK  status: ('A' for Active; 'I' for Inactive)
REMARK    1  A    between atoms: C_5  and  O_6
REMARK    2  A    between atoms: O_6  and  C_7
REMARK    3  A    between atoms: C_7  and  C_8
REMARK    4  A    between atoms: C_8  and  C_9
REMARK    5  A    between atoms: C_9  and  N_10
REMARK                            x       y       z     vdW  Elec       q    Type
REMARK                         _______ _______ _______ _____ _____    ______ ____
ROOT
ATOM      1  O   UNL     1       1.214   8.314  21.843  0.00  0.00    +0.000 OA
ATOM      2  C   UNL     1       1.043   8.671  20.685  0.00  0.00    +0.000 A 
ATOM      3  C   UNL     1       1.847   8.065  19.609  0.00  0.00    +0.000 A 
ATOM      4  C   UNL     1       2.485   6.834  19.714  0.00  0.00    +0.000 A 
ATOM      5  C   UNL     1       3.127   6.370  18.565  0.00  0.00    +0.000 A 
ATOM      6  C   UNL     1       3.645   7.311  17.680  0.00  0.00    +0.000 A 
ATOM      7  C   UNL     1       2.929   8.491  17.526  0.00  0.00    +0.000 A 
ATOM      8  C   UNL     1       1.895   8.769  18.411  0.00  0.00    +0.000 A 
ATOM      9  N   UNL     1       0.804   9.546  17.999  0.00  0.00    +0.000 NA
ATOM     10  C   UNL     1      -0.064   9.861  18.907  0.00  0.00    +0.000 A 
ATOM     11  N   UNL     1       0.148   9.645  20.266  0.00  0.00    +0.000 N 
ATOM     12  C   UNL     1      -0.577  10.440  21.259  0.00  0.00    +0.000 C 
ATOM     13  C   UNL     1      -0.357  11.962  21.085  0.00  0.00    +0.000 C 
ATOM     14  C   UNL     1      -0.559  12.537  19.671  0.00  0.00    +0.000 C 
ATOM     15  C   UNL     1      -1.618  11.795  18.912  0.00  0.00    +0.000 A 
ATOM     16  C   UNL     1      -2.882  12.334  18.655  0.00  0.00    +0.000 A 
ATOM     17  C   UNL     1      -3.873  11.547  18.060  0.00  0.00    +0.000 A 
ATOM     18  C   UNL     1      -3.610  10.219  17.711  0.00  0.00    +0.000 A 
ATOM     19  C   UNL     1      -2.343   9.680  17.936  0.00  0.00    +0.000 A 
ATOM     20  C   UNL     1      -1.356  10.476  18.525  0.00  0.00    +0.000 A 
ENDROOT
BRANCH   5  21
ATOM     21  O   UNL     1       2.375   5.328  17.971  0.00  0.00    +0.000 OA
BRANCH  21  22
ATOM     22  C   UNL     1       2.525   4.022  18.519  0.00  0.00    +0.000 C 
BRANCH  22  23
ATOM     23  C   UNL     1       3.856   3.330  18.153  0.00  0.00    +0.000 C 
BRANCH  23  24
ATOM     24  C   UNL     1       4.420   3.712  16.781  0.00  0.00    +0.000 C 
BRANCH  24  25
ATOM     25  N   UNL     1       5.667   4.472  16.849  0.00  0.00    +0.000 N 
ATOM     26  C   UNL     1       6.409   4.721  17.967  0.00  0.00    +0.000 A 
ATOM     27  C   UNL     1       7.403   5.598  17.555  0.00  0.00    +0.000 A 
ATOM     28  N   UNL     1       7.274   5.873  16.227  0.00  0.00    +0.000 NA
ATOM     29  C   UNL     1       6.226   5.192  15.824  0.00  0.00    +0.000 A 
ENDBRANCH  24  25
ENDBRANCH  23  24
ENDBRANCH  22  23
ENDBRANCH  21  22
ENDBRANCH   5  21
TORSDOF 5
ENDMDL
MODEL 5
REMARK VINA RESULT:      -7.8      2.214      8.016
REMARK  Name = 
REMARK  5 active torsions:
REMARK  status: ('A' for Active; 'I' for Inactive)
REMARK    1  A    between atoms: C_5  and  O_6
REMARK    2  A    between atoms: O_6  and  C_7
REMARK    3  A    between atoms: C_7  and  C_8
REMARK    4  A    between atoms: C_8  and  C_9
REMARK    5  A    between atoms: C_9  and  N_10
REMARK                            x       y       z     vdW  Elec       q    Type
REMARK                         _______ _______ _______ _____ _____    ______ ____
ROOT
ATOM      1  O   UNL     1       3.081   8.647  17.000  0.00  0.00    +0.000 OA
ATOM      2  C   UNL     1       2.718   7.990  17.965  0.00  0.00    +0.000 A 
ATOM      3  C   UNL     1       1.853   8.609  18.986  0.00  0.00    +0.000 A 
ATOM      4  C   UNL     1       1.064   9.731  18.757  0.00  0.00    +0.000 A 
ATOM      5  C   UNL     1       0.236  10.129  19.809  0.00  0.00    +0.000 A 
ATOM      6  C   UNL     1       0.660   9.870  21.109  0.00  0.00    +0.000 A 
ATOM      7  C   UNL     1       1.363   8.690  21.318  0.00  0.00    +0.000 A 
ATOM      8  C   UNL     1       1.804   7.967  20.217  0.00  0.00    +0.000 A 
ATOM      9  N   UNL     1       1.952   6.576  20.300  0.00  0.00    +0.000 NA
ATOM     10  C   UNL     1       2.476   5.982  19.275  0.00  0.00    +0.000 A 
ATOM     11  N   UNL     1       3.070   6.672  18.222  0.00  0.00    +0.000 N 
ATOM     12  C   UNL     1       4.064   6.008  17.376  0.00  0.00    +0.000 C 
ATOM     13  C   UNL     1       5.262   5.454  18.182  0.00  0.00    +0.000 C 
ATOM     14  C   UNL     1       4.934   4.595  19.416  0.00  0.00    +0.000 C 
ATOM     15  C   UNL     1       3.670   3.809  19.229  0.00  0.00    +0.000 A 
ATOM     16  C   UNL     1       3.664   2.427  19.018  0.00  0.00    +0.000 A 
ATOM     17  C   UNL     1       2.467   1.769  18.718  0.00  0.00    +0.000 A 
ATOM     18  C   UNL     1       1.268   2.481  18.632  0.00  0.00    +0.000 A 
ATOM     19  C   UNL     1       1.258   3.856  18.871  0.00  0.00    +0.000 A 
ATOM     20  C   UNL     1       2.458   4.505  19.177  0.00  0.00    +0.000 A 
ENDROOT
BRANCH   5  21
ATOM     21  O   UNL     1      -1.108   9.785  19.530  0.00  0.00    +0.000 OA
BRANCH  21  22
ATOM     22  C   UNL     1      -1.710  10.385  18.386  0.00  0.00    +0.000 C 
BRANCH  22  23
ATOM     23  C   UNL     1      -1.958  11.903  18.523  0.00  0.00    +0.000 C 
BRANCH  23  24
ATOM     24  C   UNL     1      -2.791  12.308  19.744  0.00  0.00    +0.000 C 
BRANCH  24  25
ATOM     25  N   UNL     1      -1.987  12.707  20.898  0.00  0.00    +0.000 N 
ATOM     26  C   UNL     1      -0.855  13.470  20.876  0.00  0.00    +0.000 A 
ATOM     27  C   UNL     1      -0.376  13.446  22.180  0.00  0.00    +0.000 A 
ATOM     28  N   UNL     1      -1.191  12.696  22.971  0.00  0.00    +0.000 NA
ATOM     29  C   UNL     1      -2.148  12.258  22.184  0.00  0.00    +0.000 A 
ENDBRANCH  24  25
ENDBRANCH  23  24
ENDBRANCH  22  23
ENDBRANCH  21  22
ENDBRANCH   5  21
TORSDOF 5
ENDMDL
MODEL 6
REMARK VINA RESULT:      -7.7      5.022      8.858
REMARK  Name = 
REMARK  5 active torsions:
REMARK  status: ('A' for Active; 'I' for Inactive)
REMARK    1  A    between atoms: C_5  and  O_6
REMARK    2  A    between atoms: O_6  and  C_7
REMARK    3  A    between atoms: C_7  and  C_8
REMARK    4  A    between atoms: C_8  and  C_9
REMARK    5  A    between atoms: C_9  and  N_10
REMARK                            x       y       z     vdW  Elec       q    Type
REMARK                         _______ _______ _______ _____ _____    ______ ____
ROOT
ATOM      1  O   UNL     1       5.399   4.853  15.498  0.00  0.00    +0.000 OA
ATOM      2  C   UNL     1       5.374   4.918  16.720  0.00  0.00    +0.000 A 
ATOM      3  C   UNL     1       6.375   5.736  17.428  0.00  0.00    +0.000 A 
ATOM      4  C   UNL     1       7.087   6.775  16.837  0.00  0.00    +0.000 A 
ATOM      5  C   UNL     1       7.928   7.504  17.680  0.00  0.00    +0.000 A 
ATOM      6  C   UNL     1       8.494   6.847  18.768  0.00  0.00    +0.000 A 
ATOM      7  C   UNL     1       7.715   5.882  19.395  0.00  0.00    +0.000 A 
ATOM      8  C   UNL     1       6.543   5.462  18.779  0.00  0.00    +0.000 A 
ATOM      9  N   UNL     1       5.466   5.007  19.552  0.00  0.00    +0.000 NA
ATOM     10  C   UNL     1       4.450   4.524  18.910  0.00  0.00    +0.000 A 
ATOM     11  N   UNL     1       4.475   4.256  17.544  0.00  0.00    +0.000 N 
ATOM     12  C   UNL     1       3.549   3.277  16.969  0.00  0.00    +0.000 C 
ATOM     13  C   UNL     1       3.668   1.882  17.626  0.00  0.00    +0.000 C 
ATOM     14  C   UNL     1       3.633   1.830  19.164  0.00  0.00    +0.000 C 
ATOM     15  C   UNL     1       2.761   2.907  19.739  0.00  0.00    +0.000 A 
ATOM     16  C   UNL     1       1.510   2.645  20.305  0.00  0.00    +0.000 A 
ATOM     17  C   UNL     1       0.686   3.702  20.704  0.00  0.00    +0.000 A 
ATOM     18  C   UNL     1       1.104   5.027  20.547  0.00  0.00    +0.000 A 
ATOM     19  C   UNL     1       2.363   5.298  20.011  0.00  0.00    +0.000 A 
ATOM     20  C   UNL     1       3.184   4.236  19.621  0.00  0.00    +0.000 A 
ENDROOT
BRANCH   5  21
ATOM     21  O   UNL     1       7.359   8.768  17.963  0.00  0.00    +0.000 OA
BRANCH  21  22
ATOM     22  C   UNL     1       8.205   9.908  17.835  0.00  0.00    +0.000 C 
BRANCH  22  23
ATOM     23  C   UNL     1       9.088  10.184  19.071  0.00  0.00    +0.000 C 
BRANCH  23  24
ATOM     24  C   UNL     1      10.007  11.402  18.941  0.00  0.00    +0.000 C 
BRANCH  24  25
ATOM     25  N   UNL     1       9.869  12.362  20.036  0.00  0.00    +0.000 N 
ATOM     26  C   UNL     1      10.522  13.555  20.159  0.00  0.00    +0.000 A 
ATOM     27  C   UNL     1      10.180  14.026  21.420  0.00  0.00    +0.000 A 
ATOM     28  N   UNL     1       9.343  13.151  22.044  0.00  0.00    +0.000 NA
ATOM     29  C   UNL     1       9.173  12.159  21.200  0.00  0.00    +0.000 A 
ENDBRANCH  24  25
ENDBRANCH  23  24
ENDBRANCH  22  23
ENDBRANCH  21  22
ENDBRANCH   5  21
TORSDOF 5
ENDMDL
MODEL 7
REMARK VINA RESULT:      -7.6      2.564      8.150
REMARK  Name = 
REMARK  5 active torsions:
REMARK  status: ('A' for Active; 'I' for Inactive)
REMARK    1  A    between atoms: C_5  and  O_6
REMARK    2  A    between atoms: O_6  and  C_7
REMARK    3  A    between atoms: C_7  and  C_8
REMARK    4  A    between atoms: C_8  and  C_9
REMARK    5  A    between atoms: C_9  and  N_10
REMARK                            x       y       z     vdW  Elec       q    Type
REMARK                         _______ _______ _______ _____ _____    ______ ____
ROOT
ATOM      1  O   UNL     1       3.393   8.340  16.826  0.00  0.00    +0.000 OA
ATOM      2  C   UNL     1       2.937   7.748  17.794  0.00  0.00    +0.000 A 
ATOM      3  C   UNL     1       2.055   8.460  18.736  0.00  0.00    +0.000 A 
ATOM      4  C   UNL     1       1.348   9.614  18.416  0.00  0.00    +0.000 A 
ATOM      5  C   UNL     1       0.487  10.104  19.400  0.00  0.00    +0.000 A 
ATOM      6  C   UNL     1       0.821   9.879  20.732  0.00  0.00    +0.000 A 
ATOM      7  C   UNL     1       1.439   8.672  21.030  0.00  0.00    +0.000 A 
ATOM      8  C   UNL     1       1.898   7.877  19.987  0.00  0.00    +0.000 A 
ATOM      9  N   UNL     1       1.958   6.485  20.135  0.00  0.00    +0.000 NA
ATOM     10  C   UNL     1       2.502   5.817  19.169  0.00  0.00    +0.000 A 
ATOM     11  N   UNL     1       3.195   6.425  18.125  0.00  0.00    +0.000 N 
ATOM     12  C   UNL     1       4.194   5.669  17.367  0.00  0.00    +0.000 C 
ATOM     13  C   UNL     1       5.310   5.083  18.264  0.00  0.00    +0.000 C 
ATOM     14  C   UNL     1       4.862   4.300  19.511  0.00  0.00    +0.000 C 
ATOM     15  C   UNL     1       3.566   3.579  19.282  0.00  0.00    +0.000 A 
ATOM     16  C   UNL     1       3.490   2.192  19.128  0.00  0.00    +0.000 A 
ATOM     17  C   UNL     1       2.275   1.591  18.785  0.00  0.00    +0.000 A 
ATOM     18  C   UNL     1       1.127   2.366  18.599  0.00  0.00    +0.000 A 
ATOM     19  C   UNL     1       1.185   3.748  18.780  0.00  0.00    +0.000 A 
ATOM     20  C   UNL     1       2.402   4.341  19.130  0.00  0.00    +0.000 A 
ENDROOT
BRANCH   5  21
ATOM     21  O   UNL     1      -0.858   9.826  19.056  0.00  0.00    +0.000 OA
BRANCH  21  22
ATOM     22  C   UNL     1      -1.532  10.779  18.240  0.00  0.00    +0.000 C 
BRANCH  22  23
ATOM     23  C   UNL     1      -2.649  11.560  18.968  0.00  0.00    +0.000 C 
BRANCH  23  24
ATOM     24  C   UNL     1      -2.152  12.680  19.886  0.00  0.00    +0.000 C 
BRANCH  24  25
ATOM     25  N   UNL     1      -2.653  12.583  21.256  0.00  0.00    +0.000 N 
ATOM     26  C   UNL     1      -1.964  12.132  22.345  0.00  0.00    +0.000 A 
ATOM     27  C   UNL     1      -2.898  12.085  23.372  0.00  0.00    +0.000 A 
ATOM     28  N   UNL     1      -4.117  12.496  22.925  0.00  0.00    +0.000 NA
ATOM     29  C   UNL     1      -3.950  12.786  21.654  0.00  0.00    +0.000 A 
ENDBRANCH  24  25
ENDBRANCH  23  24
ENDBRANCH  22  23
ENDBRANCH  21  22
ENDBRANCH   5  21
TORSDOF 5
ENDMDL
MODEL 8
REMARK VINA RESULT:      -7.6      2.211      8.008
REMARK  Name = 
REMARK  5 active torsions:
REMARK  status: ('A' for Active; 'I' for Inactive)
REMARK    1  A    between atoms: C_5  and  O_6
REMARK    2  A    between atoms: O_6  and  C_7
REMARK    3  A    between atoms: C_7  and  C_8
REMARK    4  A    between atoms: C_8  and  C_9
REMARK    5  A    between atoms: C_9  and  N_10
REMARK                            x       y       z     vdW  Elec       q    Type
REMARK                         _______ _______ _______ _____ _____    ______ ____
ROOT
ATOM      1  O   UNL     1       3.145   8.447  17.022  0.00  0.00    +0.000 OA
ATOM      2  C   UNL     1       2.752   7.826  18.000  0.00  0.00    +0.000 A 
ATOM      3  C   UNL     1       1.964   8.518  19.035  0.00  0.00    +0.000 A 
ATOM      4  C   UNL     1       1.262   9.699  18.817  0.00  0.00    +0.000 A 
ATOM      5  C   UNL     1       0.493  10.168  19.884  0.00  0.00    +0.000 A 
ATOM      6  C   UNL     1       0.925   9.882  21.176  0.00  0.00    +0.000 A 
ATOM      7  C   UNL     1       1.536   8.651  21.377  0.00  0.00    +0.000 A 
ATOM      8  C   UNL     1       1.892   7.889  20.272  0.00  0.00    +0.000 A 
ATOM      9  N   UNL     1       1.929   6.491  20.361  0.00  0.00    +0.000 NA
ATOM     10  C   UNL     1       2.380   5.852  19.329  0.00  0.00    +0.000 A 
ATOM     11  N   UNL     1       3.003   6.486  18.258  0.00  0.00    +0.000 N 
ATOM     12  C   UNL     1       3.921   5.740  17.395  0.00  0.00    +0.000 C 
ATOM     13  C   UNL     1       5.089   5.095  18.178  0.00  0.00    +0.000 C 
ATOM     14  C   UNL     1       4.722   4.272  19.425  0.00  0.00    +0.000 C 
ATOM     15  C   UNL     1       3.394   3.589  19.272  0.00  0.00    +0.000 A 
ATOM     16  C   UNL     1       3.272   2.211  19.071  0.00  0.00    +0.000 A 
ATOM     17  C   UNL     1       2.020   1.650  18.802  0.00  0.00    +0.000 A 
ATOM     18  C   UNL     1       0.880   2.456  18.738  0.00  0.00    +0.000 A 
ATOM     19  C   UNL     1       0.986   3.828  18.967  0.00  0.00    +0.000 A 
ATOM     20  C   UNL     1       2.241   4.381  19.242  0.00  0.00    +0.000 A 
ENDROOT
BRANCH   5  21
ATOM     21  O   UNL     1      -0.880   9.932  19.637  0.00  0.00    +0.000 OA
BRANCH  21  22
ATOM     22  C   UNL     1      -1.795  10.956  20.018  0.00  0.00    +0.000 C 
BRANCH  22  23
ATOM     23  C   UNL     1      -2.156  11.938  18.881  0.00  0.00    +0.000 C 
BRANCH  23  24
ATOM     24  C   UNL     1      -3.476  11.632  18.166  0.00  0.00    +0.000 C 
BRANCH  24  25
ATOM     25  N   UNL     1      -3.303  11.020  16.850  0.00  0.00    +0.000 N 
ATOM     26  C   UNL     1      -4.160  11.112  15.791  0.00  0.00    +0.000 A 
ATOM     27  C   UNL     1      -3.645  10.249  14.832  0.00  0.00    +0.000 A 
ATOM     28  N   UNL     1      -2.510   9.652  15.290  0.00  0.00    +0.000 NA
ATOM     29  C   UNL     1      -2.325  10.124  16.502  0.00  0.00    +0.000 A 
ENDBRANCH  24  25
ENDBRANCH  23  24
ENDBRANCH  22  23
ENDBRANCH  21  22
ENDBRANCH   5  21
TORSDOF 5
ENDMDL
MODEL 9
REMARK VINA RESULT:      -7.5      2.313      8.283
REMARK  Name = 
REMARK  5 active torsions:
REMARK  status: ('A' for Active; 'I' for Inactive)
REMARK    1  A    between atoms: C_5  and  O_6
REMARK    2  A    between atoms: O_6  and  C_7
REMARK    3  A    between atoms: C_7  and  C_8
REMARK    4  A    between atoms: C_8  and  C_9
REMARK    5  A    between atoms: C_9  and  N_10
REMARK                            x       y       z     vdW  Elec       q    Type
REMARK                         _______ _______ _______ _____ _____    ______ ____
ROOT
ATOM      1  O   UNL     1       3.078   8.572  17.068  0.00  0.00    +0.000 OA
ATOM      2  C   UNL     1       2.703   7.915  18.029  0.00  0.00    +0.000 A 
ATOM      3  C   UNL     1       1.859   8.546  19.059  0.00  0.00    +0.000 A 
ATOM      4  C   UNL     1       1.098   9.690  18.847  0.00  0.00    +0.000 A 
ATOM      5  C   UNL     1       0.286  10.098  19.907  0.00  0.00    +0.000 A 
ATOM      6  C   UNL     1       0.709   9.815  21.202  0.00  0.00    +0.000 A 
ATOM      7  C   UNL     1       1.383   8.615  21.396  0.00  0.00    +0.000 A 
ATOM      8  C   UNL     1       1.800   7.893  20.285  0.00  0.00    +0.000 A 
ATOM      9  N   UNL     1       1.912   6.498  20.353  0.00  0.00    +0.000 NA
ATOM     10  C   UNL     1       2.415   5.901  19.320  0.00  0.00    +0.000 A 
ATOM     11  N   UNL     1       3.022   6.586  18.270  0.00  0.00    +0.000 N 
ATOM     12  C   UNL     1       3.994   5.906  17.412  0.00  0.00    +0.000 C 
ATOM     13  C   UNL     1       5.182   5.312  18.207  0.00  0.00    +0.000 C 
ATOM     14  C   UNL     1       4.838   4.449  19.434  0.00  0.00    +0.000 C 
ATOM     15  C   UNL     1       3.553   3.698  19.246  0.00  0.00    +0.000 A 
ATOM     16  C   UNL     1       3.510   2.319  19.020  0.00  0.00    +0.000 A 
ATOM     17  C   UNL     1       2.295   1.695  18.720  0.00  0.00    +0.000 A 
ATOM     18  C   UNL     1       1.114   2.439  18.647  0.00  0.00    +0.000 A 
ATOM     19  C   UNL     1       1.141   3.811  18.900  0.00  0.00    +0.000 A 
ATOM     20  C   UNL     1       2.359   4.426  19.206  0.00  0.00    +0.000 A 
ENDROOT
BRANCH   5  21
ATOM     21  O   UNL     1      -1.068   9.792  19.631  0.00  0.00    +0.000 OA
BRANCH  21  22
ATOM     22  C   UNL     1      -1.823  10.764  18.912  0.00  0.00    +0.000 C 
BRANCH  22  23
ATOM     23  C   UNL     1      -1.468  12.226  19.261  0.00  0.00    +0.000 C 
BRANCH  23  24
ATOM     24  C   UNL     1      -0.795  13.009  18.130  0.00  0.00    +0.000 C 
BRANCH  24  25
ATOM     25  N   UNL     1       0.370  13.781  18.561  0.00  0.00    +0.000 N 
ATOM     26  C   UNL     1       0.380  15.089  18.952  0.00  0.00    +0.000 A 
ATOM     27  C   UNL     1       1.722  15.408  19.116  0.00  0.00    +0.000 A 
ATOM     28  N   UNL     1       2.504  14.329  18.837  0.00  0.00    +0.000 NA
ATOM     29  C   UNL     1       1.676  13.366  18.503  0.00  0.00    +0.000 A 
ENDBRANCH  24  25
ENDBRANCH  23  24
ENDBRANCH  22  23
ENDBRANCH  21  22
ENDBRANCH   5  21
TORSDOF 5
ENDMDL
