MODEL 1
REMARK VINA RESULT:      -6.8      0.000      0.000
REMARK  Name = 
REMARK  6 active torsions:
REMARK  status: ('A' for Active; 'I' for Inactive)
REMARK    1  A    between atoms: C_1  and  N_2
REMARK    2  A    between atoms: N_2  and  C_3
REMARK    3  A    between atoms: N_2  and  C_4
REMARK    4  A    between atoms: C_4  and  C_5
REMARK    5  A    between atoms: C_5  and  N_6
REMARK    6  A    between atoms: N_6  and  C_7
REMARK                            x       y       z     vdW  Elec       q    Type
REMARK                         _______ _______ _______ _____ _____    ______ ____
ROOT
ATOM      1  C   UNL     1       5.230   4.383  18.420  0.00  0.00    +0.000 C 
ATOM      2  C   UNL     1       6.069   4.206  17.387  0.00  0.00    +0.000 C 
ATOM      3  C   UNL     1       6.127   5.107  16.228  0.00  0.00    +0.000 C 
ATOM      4  O   UNL     1       6.934   4.923  15.330  0.00  0.00    +0.000 OA
ATOM      5  C   UNL     1       5.160   6.270  16.198  0.00  0.00    +0.000 C 
ATOM      6  O   UNL     1       5.155   7.047  15.254  0.00  0.00    +0.000 OA
ATOM      7  C   UNL     1       4.246   6.437  17.344  0.00  0.00    +0.000 A 
ATOM      8  C   UNL     1       3.365   7.534  17.330  0.00  0.00    +0.000 A 
ATOM      9  C   UNL     1       2.506   7.753  18.399  0.00  0.00    +0.000 A 
ATOM     10  C   UNL     1       2.531   6.886  19.484  0.00  0.00    +0.000 A 
ATOM     11  C   UNL     1       3.412   5.795  19.497  0.00  0.00    +0.000 A 
ATOM     12  C   UNL     1       4.282   5.535  18.422  0.00  0.00    +0.000 A 
ENDROOT
BRANCH   1  13
ATOM     13  N   UNL     1       5.226   3.481  19.478  0.00  0.00    +0.000 N 
ATOM     14  H   UNL     1       6.150   3.231  19.830  0.00  0.00    +0.000 HD
BRANCH  13  15
ATOM     15  C   UNL     1       4.380   2.280  19.480  0.00  0.00    +0.000 C 
BRANCH  15  16
ATOM     16  C   UNL     1       3.155   2.479  20.404  0.00  0.00    +0.000 C 
BRANCH  16  18
ATOM     17  C   UNL     1       0.869   3.290  20.163  0.00  0.00    +0.000 C 
ATOM     18  N   UNL     1       1.841   2.275  19.744  0.00  0.00    +0.000 NA
ATOM     19  C   UNL     1       2.013   2.345  18.287  0.00  0.00    +0.000 C 
ENDBRANCH  16  18
ENDBRANCH  15  16
ENDBRANCH  13  15
ENDBRANCH   1  13
TORSDOF 4
ENDMDL
MODEL 2
REMARK VINA RESULT:      -6.6      1.678      3.202
REMARK  Name = 
REMARK  6 active torsions:
REMARK  status: ('A' for Active; 'I' for Inactive)
REMARK    1  A    between atoms: C_1  and  N_2
REMARK    2  A    between atoms: N_2  and  C_3
REMARK    3  A    between atoms: N_2  and  C_4
REMARK    4  A    between atoms: C_4  and  C_5
REMARK    5  A    between atoms: C_5  and  N_6
REMARK    6  A    between atoms: N_6  and  C_7
REMARK                            x       y       z     vdW  Elec       q    Type
REMARK                         _______ _______ _______ _____ _____    ______ ____
ROOT
ATOM      1  C   UNL     1       4.623   4.375  18.955  0.00  0.00    +0.000 C 
ATOM      2  C   UNL     1       3.776   5.131  19.670  0.00  0.00    +0.000 C 
ATOM      3  C   UNL     1       3.211   6.397  19.183  0.00  0.00    +0.000 C 
ATOM      4  O   UNL     1       2.414   7.031  19.858  0.00  0.00    +0.000 OA
ATOM      5  C   UNL     1       3.644   6.874  17.813  0.00  0.00    +0.000 C 
ATOM      6  O   UNL     1       3.215   7.925  17.359  0.00  0.00    +0.000 OA
ATOM      7  C   UNL     1       4.581   6.026  17.052  0.00  0.00    +0.000 A 
ATOM      8  C   UNL     1       4.963   6.454  15.768  0.00  0.00    +0.000 A 
ATOM      9  C   UNL     1       5.818   5.676  14.997  0.00  0.00    +0.000 A 
ATOM     10  C   UNL     1       6.283   4.469  15.502  0.00  0.00    +0.000 A 
ATOM     11  C   UNL     1       5.898   4.042  16.782  0.00  0.00    +0.000 A 
ATOM     12  C   UNL     1       5.048   4.815  17.593  0.00  0.00    +0.000 A 
ENDROOT
BRANCH   1  13
ATOM     13  N   UNL     1       5.124   3.193  19.488  0.00  0.00    +0.000 N 
ATOM     14  H   UNL     1       5.914   2.796  18.980  0.00  0.00    +0.000 HD
BRANCH  13  15
ATOM     15  C   UNL     1       4.248   2.098  19.927  0.00  0.00    +0.000 C 
BRANCH  15  16
ATOM     16  C   UNL     1       3.157   1.816  18.866  0.00  0.00    +0.000 C 
BRANCH  16  18
ATOM     17  C   UNL     1       1.732   2.437  20.744  0.00  0.00    +0.000 C 
ATOM     18  N   UNL     1       1.764   1.968  19.354  0.00  0.00    +0.000 NA
ATOM     19  C   UNL     1       1.053   2.932  18.504  0.00  0.00    +0.000 C 
ENDBRANCH  16  18
ENDBRANCH  15  16
ENDBRANCH  13  15
ENDBRANCH   1  13
TORSDOF 4
ENDMDL
MODEL 3
REMARK VINA RESULT:      -6.5      2.380      4.890
REMARK  Name = 
REMARK  6 active torsions:
REMARK  status: ('A' for Active; 'I' for Inactive)
REMARK    1  A    between atoms: C_1  and  N_2
REMARK    2  A    between atoms: N_2  and  C_3
REMARK    3  A    between atoms: N_2  and  C_4
REMARK    4  A    between atoms: C_4  and  C_5
REMARK    5  A    between atoms: C_5  and  N_6
REMARK    6  A    between atoms: N_6  and  C_7
REMARK                            x       y       z     vdW  Elec       q    Type
REMARK                         _______ _______ _______ _____ _____    ______ ____
ROOT
ATOM      1  C   UNL     1       4.017   5.115  17.742  0.00  0.00    +0.000 C 
ATOM      2  C   UNL     1       3.762   6.404  17.469  0.00  0.00    +0.000 C 
ATOM      3  C   UNL     1       2.962   7.274  18.341  0.00  0.00    +0.000 C 
ATOM      4  O   UNL     1       2.790   8.452  18.066  0.00  0.00    +0.000 OA
ATOM      5  C   UNL     1       2.374   6.659  19.592  0.00  0.00    +0.000 C 
ATOM      6  O   UNL     1       1.690   7.332  20.351  0.00  0.00    +0.000 OA
ATOM      7  C   UNL     1       2.665   5.239  19.864  0.00  0.00    +0.000 A 
ATOM      8  C   UNL     1       2.141   4.673  21.041  0.00  0.00    +0.000 A 
ATOM      9  C   UNL     1       2.412   3.348  21.359  0.00  0.00    +0.000 A 
ATOM     10  C   UNL     1       3.211   2.592  20.512  0.00  0.00    +0.000 A 
ATOM     11  C   UNL     1       3.734   3.159  19.341  0.00  0.00    +0.000 A 
ATOM     12  C   UNL     1       3.464   4.492  18.981  0.00  0.00    +0.000 A 
ENDROOT
BRANCH   1  13
ATOM     13  N   UNL     1       4.775   4.351  16.862  0.00  0.00    +0.000 N 
ATOM     14  H   UNL     1       4.927   3.386  17.156  0.00  0.00    +0.000 HD
BRANCH  13  15
ATOM     15  C   UNL     1       6.010   4.858  16.249  0.00  0.00    +0.000 C 
BRANCH  15  16
ATOM     16  C   UNL     1       7.232   4.535  17.141  0.00  0.00    +0.000 C 
BRANCH  16  18
ATOM     17  C   UNL     1       7.348   6.965  17.297  0.00  0.00    +0.000 C 
ATOM     18  N   UNL     1       7.776   5.694  17.892  0.00  0.00    +0.000 NA
ATOM     19  C   UNL     1       7.310   5.633  19.284  0.00  0.00    +0.000 C 
ENDBRANCH  16  18
ENDBRANCH  15  16
ENDBRANCH  13  15
ENDBRANCH   1  13
TORSDOF 4
ENDMDL
MODEL 4
REMARK VINA RESULT:      -6.5      1.305      1.594
REMARK  Name = 
REMARK  6 active torsions:
REMARK  status: ('A' for Active; 'I' for Inactive)
REMARK    1  A    between atoms: C_1  and  N_2
REMARK    2  A    between atoms: N_2  and  C_3
REMARK    3  A    between atoms: N_2  and  C_4
REMARK    4  A    between atoms: C_4  and  C_5
REMARK    5  A    between atoms: C_5  and  N_6
REMARK    6  A    between atoms: N_6  and  C_7
REMARK                            x       y       z     vdW  Elec       q    Type
REMARK                         _______ _______ _______ _____ _____    ______ ____
ROOT
ATOM      1  C   UNL     1       4.419   3.832  17.191  0.00  0.00    +0.000 C 
ATOM      2  C   UNL     1       5.683   3.656  16.775  0.00  0.00    +0.000 C 
ATOM      3  C   UNL     1       6.621   4.763  16.544  0.00  0.00    +0.000 C 
ATOM      4  O   UNL     1       7.774   4.548  16.201  0.00  0.00    +0.000 OA
ATOM      5  C   UNL     1       6.107   6.170  16.757  0.00  0.00    +0.000 C 
ATOM      6  O   UNL     1       6.839   7.131  16.570  0.00  0.00    +0.000 OA
ATOM      7  C   UNL     1       4.712   6.334  17.208  0.00  0.00    +0.000 A 
ATOM      8  C   UNL     1       4.242   7.640  17.433  0.00  0.00    +0.000 A 
ATOM      9  C   UNL     1       2.946   7.848  17.887  0.00  0.00    +0.000 A 
ATOM     10  C   UNL     1       2.124   6.754  18.127  0.00  0.00    +0.000 A 
ATOM     11  C   UNL     1       2.596   5.453  17.904  0.00  0.00    +0.000 A 
ATOM     12  C   UNL     1       3.897   5.210  17.427  0.00  0.00    +0.000 A 
ENDROOT
BRANCH   1  13
ATOM     13  N   UNL     1       3.586   2.735  17.378  0.00  0.00    +0.000 N 
ATOM     14  H   UNL     1       2.663   2.822  16.955  0.00  0.00    +0.000 HD
BRANCH  13  15
ATOM     15  C   UNL     1       3.447   2.071  18.681  0.00  0.00    +0.000 C 
BRANCH  15  16
ATOM     16  C   UNL     1       1.958   1.989  19.094  0.00  0.00    +0.000 C 
BRANCH  16  18
ATOM     17  C   UNL     1       2.910   2.686  21.228  0.00  0.00    +0.000 C 
ATOM     18  N   UNL     1       1.673   2.448  20.477  0.00  0.00    +0.000 NA
ATOM     19  C   UNL     1       0.894   3.692  20.425  0.00  0.00    +0.000 C 
ENDBRANCH  16  18
ENDBRANCH  15  16
ENDBRANCH  13  15
ENDBRANCH   1  13
TORSDOF 4
ENDMDL
MODEL 5
REMARK VINA RESULT:      -6.5      4.037      5.838
REMARK  Name = 
REMARK  6 active torsions:
REMARK  status: ('A' for Active; 'I' for Inactive)
REMARK    1  A    between atoms: C_1  and  N_2
REMARK    2  A    between atoms: N_2  and  C_3
REMARK    3  A    between atoms: N_2  and  C_4
REMARK    4  A    between atoms: C_4  and  C_5
REMARK    5  A    between atoms: C_5  and  N_6
REMARK    6  A    between atoms: N_6  and  C_7
REMARK                            x       y       z     vdW  Elec       q    Type
REMARK                         _______ _______ _______ _____ _____    ______ ____
ROOT
ATOM      1  C   UNL     1       2.263   6.119  19.969  0.00  0.00    +0.000 C 
ATOM      2  C   UNL     1       1.612   5.197  20.695  0.00  0.00    +0.000 C 
ATOM      3  C   UNL     1       1.654   3.758  20.403  0.00  0.00    +0.000 C 
ATOM      4  O   UNL     1       1.073   2.955  21.117  0.00  0.00    +0.000 OA
ATOM      5  C   UNL     1       2.450   3.313  19.196  0.00  0.00    +0.000 C 
ATOM      6  O   UNL     1       2.513   2.129  18.897  0.00  0.00    +0.000 OA
ATOM      7  C   UNL     1       3.151   4.348  18.412  0.00  0.00    +0.000 A 
ATOM      8  C   UNL     1       3.915   3.933  17.306  0.00  0.00    +0.000 A 
ATOM      9  C   UNL     1       4.619   4.865  16.554  0.00  0.00    +0.000 A 
ATOM     10  C   UNL     1       4.570   6.207  16.911  0.00  0.00    +0.000 A 
ATOM     11  C   UNL     1       3.811   6.618  18.015  0.00  0.00    +0.000 A 
ATOM     12  C   UNL     1       3.072   5.701  18.786  0.00  0.00    +0.000 A 
ENDROOT
BRANCH   1  13
ATOM     13  N   UNL     1       2.167   7.465  20.302  0.00  0.00    +0.000 N 
ATOM     14  H   UNL     1       3.015   7.868  20.700  0.00  0.00    +0.000 HD
BRANCH  13  15
ATOM     15  C   UNL     1       1.004   8.015  21.012  0.00  0.00    +0.000 C 
BRANCH  15  16
ATOM     16  C   UNL     1       1.458   8.980  22.133  0.00  0.00    +0.000 C 
BRANCH  16  18
ATOM     17  C   UNL     1       0.204  10.690  20.930  0.00  0.00    +0.000 C 
ATOM     18  N   UNL     1       0.652  10.221  22.246  0.00  0.00    +0.000 NA
ATOM     19  C   UNL     1      -0.522   9.963  23.090  0.00  0.00    +0.000 C 
ENDBRANCH  16  18
ENDBRANCH  15  16
ENDBRANCH  13  15
ENDBRANCH   1  13
TORSDOF 4
ENDMDL
MODEL 6
REMARK VINA RESULT:      -6.4      2.802      4.610
REMARK  Name = 
REMARK  6 active torsions:
REMARK  status: ('A' for Active; 'I' for Inactive)
REMARK    1  A    between atoms: C_1  and  N_2
REMARK    2  A    between atoms: N_2  and  C_3
REMARK    3  A    between atoms: N_2  and  C_4
REMARK    4  A    between atoms: C_4  and  C_5
REMARK    5  A    between atoms: C_5  and  N_6
REMARK    6  A    between atoms: N_6  and  C_7
REMARK                            x       y       z     vdW  Elec       q    Type
REMARK                         _______ _______ _______ _____ _____    ______ ____
ROOT
ATOM      1  C   UNL     1       3.876   5.167  17.412  0.00  0.00    +0.000 C 
ATOM      2  C   UNL     1       4.037   3.848  17.222  0.00  0.00    +0.000 C 
ATOM      3  C   UNL     1       3.442   2.826  18.094  0.00  0.00    +0.000 C 
ATOM      4  O   UNL     1       3.588   1.636  17.857  0.00  0.00    +0.000 OA
ATOM      5  C   UNL     1       2.636   3.304  19.282  0.00  0.00    +0.000 C 
ATOM      6  O   UNL     1       2.125   2.499  20.048  0.00  0.00    +0.000 OA
ATOM      7  C   UNL     1       2.480   4.759  19.470  0.00  0.00    +0.000 A 
ATOM      8  C   UNL     1       1.709   5.204  20.558  0.00  0.00    +0.000 A 
ATOM      9  C   UNL     1       1.506   6.563  20.761  0.00  0.00    +0.000 A 
ATOM     10  C   UNL     1       2.063   7.476  19.874  0.00  0.00    +0.000 A 
ATOM     11  C   UNL     1       2.829   7.030  18.788  0.00  0.00    +0.000 A 
ATOM     12  C   UNL     1       3.068   5.661  18.566  0.00  0.00    +0.000 A 
ENDROOT
BRANCH   1  13
ATOM     13  N   UNL     1       4.479   6.075  16.550  0.00  0.00    +0.000 N 
ATOM     14  H   UNL     1       3.948   6.279  15.703  0.00  0.00    +0.000 HD
BRANCH  13  15
ATOM     15  C   UNL     1       5.905   5.998  16.205  0.00  0.00    +0.000 C 
BRANCH  15  16
ATOM     16  C   UNL     1       6.765   6.698  17.285  0.00  0.00    +0.000 C 
BRANCH  16  18
ATOM     17  C   UNL     1       6.963   5.592  19.449  0.00  0.00    +0.000 C 
ATOM     18  N   UNL     1       7.571   5.778  18.127  0.00  0.00    +0.000 NA
ATOM     19  C   UNL     1       7.678   4.475  17.458  0.00  0.00    +0.000 C 
ENDBRANCH  16  18
ENDBRANCH  15  16
ENDBRANCH  13  15
ENDBRANCH   1  13
TORSDOF 4
ENDMDL
MODEL 7
REMARK VINA RESULT:      -6.4      2.964      4.859
REMARK  Name = 
REMARK  6 active torsions:
REMARK  status: ('A' for Active; 'I' for Inactive)
REMARK    1  A    between atoms: C_1  and  N_2
REMARK    2  A    between atoms: N_2  and  C_3
REMARK    3  A    between atoms: N_2  and  C_4
REMARK    4  A    between atoms: C_4  and  C_5
REMARK    5  A    between atoms: C_5  and  N_6
REMARK    6  A    between atoms: N_6  and  C_7
REMARK                            x       y       z     vdW  Elec       q    Type
REMARK                         _______ _______ _______ _____ _____    ______ ____
ROOT
ATOM      1  C   UNL     1       4.428   4.459  17.923  0.00  0.00    +0.000 C 
ATOM      2  C   UNL     1       4.414   3.376  18.716  0.00  0.00    +0.000 C 
ATOM      3  C   UNL     1       3.647   3.297  19.966  0.00  0.00    +0.000 C 
ATOM      4  O   UNL     1       3.638   2.274  20.634  0.00  0.00    +0.000 OA
ATOM      5  C   UNL     1       2.865   4.523  20.385  0.00  0.00    +0.000 C 
ATOM      6  O   UNL     1       2.216   4.520  21.421  0.00  0.00    +0.000 OA
ATOM      7  C   UNL     1       2.903   5.702  19.498  0.00  0.00    +0.000 A 
ATOM      8  C   UNL     1       2.155   6.832  19.872  0.00  0.00    +0.000 A 
ATOM      9  C   UNL     1       2.132   7.957  19.056  0.00  0.00    +0.000 A 
ATOM     10  C   UNL     1       2.847   7.949  17.865  0.00  0.00    +0.000 A 
ATOM     11  C   UNL     1       3.590   6.820  17.493  0.00  0.00    +0.000 A 
ATOM     12  C   UNL     1       3.647   5.673  18.305  0.00  0.00    +0.000 A 
ENDROOT
BRANCH   1  13
ATOM     13  N   UNL     1       5.187   4.463  16.759  0.00  0.00    +0.000 N 
ATOM     14  H   UNL     1       4.912   3.765  16.067  0.00  0.00    +0.000 HD
BRANCH  13  15
ATOM     15  C   UNL     1       6.653   4.552  16.781  0.00  0.00    +0.000 C 
BRANCH  15  16
ATOM     16  C   UNL     1       7.110   6.025  16.651  0.00  0.00    +0.000 C 
BRANCH  16  18
ATOM     17  C   UNL     1       7.869   5.990  18.968  0.00  0.00    +0.000 C 
ATOM     18  N   UNL     1       7.177   6.768  17.935  0.00  0.00    +0.000 NA
ATOM     19  C   UNL     1       7.890   8.035  17.727  0.00  0.00    +0.000 C 
ENDBRANCH  16  18
ENDBRANCH  15  16
ENDBRANCH  13  15
ENDBRANCH   1  13
TORSDOF 4
ENDMDL
MODEL 8
REMARK VINA RESULT:      -6.4      3.240      5.255
REMARK  Name = 
REMARK  6 active torsions:
REMARK  status: ('A' for Active; 'I' for Inactive)
REMARK    1  A    between atoms: C_1  and  N_2
REMARK    2  A    between atoms: N_2  and  C_3
REMARK    3  A    between atoms: N_2  and  C_4
REMARK    4  A    between atoms: C_4  and  C_5
REMARK    5  A    between atoms: C_5  and  N_6
REMARK    6  A    between atoms: N_6  and  C_7
REMARK                            x       y       z     vdW  Elec       q    Type
REMARK                         _______ _______ _______ _____ _____    ______ ____
ROOT
ATOM      1  C   UNL     1       2.468   6.268  19.598  0.00  0.00    +0.000 C 
ATOM      2  C   UNL     1       3.347   6.851  18.767  0.00  0.00    +0.000 C 
ATOM      3  C   UNL     1       3.959   6.162  17.622  0.00  0.00    +0.000 C 
ATOM      4  O   UNL     1       4.725   6.748  16.873  0.00  0.00    +0.000 OA
ATOM      5  C   UNL     1       3.594   4.710  17.404  0.00  0.00    +0.000 C 
ATOM      6  O   UNL     1       4.080   4.082  16.474  0.00  0.00    +0.000 OA
ATOM      7  C   UNL     1       2.631   4.093  18.336  0.00  0.00    +0.000 A 
ATOM      8  C   UNL     1       2.270   2.751  18.118  0.00  0.00    +0.000 A 
ATOM      9  C   UNL     1       1.343   2.133  18.949  0.00  0.00    +0.000 A 
ATOM     10  C   UNL     1       0.771   2.855  19.988  0.00  0.00    +0.000 A 
ATOM     11  C   UNL     1       1.130   4.194  20.202  0.00  0.00    +0.000 A 
ATOM     12  C   UNL     1       2.078   4.842  19.390  0.00  0.00    +0.000 A 
ENDROOT
BRANCH   1  13
ATOM     13  N   UNL     1       1.939   6.982  20.667  0.00  0.00    +0.000 N 
ATOM     14  H   UNL     1       1.275   6.462  21.240  0.00  0.00    +0.000 HD
BRANCH  13  15
ATOM     15  C   UNL     1       1.460   8.363  20.525  0.00  0.00    +0.000 C 
BRANCH  15  16
ATOM     16  C   UNL     1       0.950   8.904  21.881  0.00  0.00    +0.000 C 
BRANCH  16  18
ATOM     17  C   UNL     1      -0.727  10.180  23.108  0.00  0.00    +0.000 C 
ATOM     18  N   UNL     1      -0.198   9.841  21.783  0.00  0.00    +0.000 NA
ATOM     19  C   UNL     1       0.235  11.071  21.108  0.00  0.00    +0.000 C 
ENDBRANCH  16  18
ENDBRANCH  15  16
ENDBRANCH  13  15
ENDBRANCH   1  13
TORSDOF 4
ENDMDL
MODEL 9
REMARK VINA RESULT:      -6.3      2.366      3.888
REMARK  Name = 
REMARK  6 active torsions:
REMARK  status: ('A' for Active; 'I' for Inactive)
REMARK    1  A    between atoms: C_1  and  N_2
REMARK    2  A    between atoms: N_2  and  C_3
REMARK    3  A    between atoms: N_2  and  C_4
REMARK    4  A    between atoms: C_4  and  C_5
REMARK    5  A    between atoms: C_5  and  N_6
REMARK    6  A    between atoms: N_6  and  C_7
REMARK                            x       y       z     vdW  Elec       q    Type
REMARK                         _______ _______ _______ _____ _____    ______ ____
ROOT
ATOM      1  C   UNL     1       4.229   4.015  17.350  0.00  0.00    +0.000 C 
ATOM      2  C   UNL     1       4.669   4.337  18.576  0.00  0.00    +0.000 C 
ATOM      3  C   UNL     1       6.008   4.884  18.839  0.00  0.00    +0.000 C 
ATOM      4  O   UNL     1       6.348   5.196  19.969  0.00  0.00    +0.000 OA
ATOM      5  C   UNL     1       6.937   5.053  17.656  0.00  0.00    +0.000 C 
ATOM      6  O   UNL     1       8.067   5.494  17.815  0.00  0.00    +0.000 OA
ATOM      7  C   UNL     1       6.429   4.685  16.321  0.00  0.00    +0.000 A 
ATOM      8  C   UNL     1       7.282   4.868  15.218  0.00  0.00    +0.000 A 
ATOM      9  C   UNL     1       6.840   4.567  13.936  0.00  0.00    +0.000 A 
ATOM     10  C   UNL     1       5.548   4.093  13.753  0.00  0.00    +0.000 A 
ATOM     11  C   UNL     1       4.698   3.914  14.854  0.00  0.00    +0.000 A 
ATOM     12  C   UNL     1       5.121   4.193  16.166  0.00  0.00    +0.000 A 
ENDROOT
BRANCH   1  13
ATOM     13  N   UNL     1       2.952   3.493  17.182  0.00  0.00    +0.000 N 
ATOM     14  H   UNL     1       2.690   3.306  16.214  0.00  0.00    +0.000 HD
BRANCH  13  15
ATOM     15  C   UNL     1       1.784   4.036  17.890  0.00  0.00    +0.000 C 
BRANCH  15  16
ATOM     16  C   UNL     1       1.188   2.977  18.848  0.00  0.00    +0.000 C 
BRANCH  16  18
ATOM     17  C   UNL     1       1.599   2.596  21.221  0.00  0.00    +0.000 C 
ATOM     18  N   UNL     1       0.946   3.460  20.231  0.00  0.00    +0.000 NA
ATOM     19  C   UNL     1       1.465   4.827  20.367  0.00  0.00    +0.000 C 
ENDBRANCH  16  18
ENDBRANCH  15  16
ENDBRANCH  13  15
ENDBRANCH   1  13
TORSDOF 4
ENDMDL
