MODEL 1
REMARK VINA RESULT:      -6.4      0.000      0.000
REMARK  Name = 
REMARK  10 active torsions:
REMARK  status: ('A' for Active; 'I' for Inactive)
REMARK    1  A    between atoms: C_1  and  C_2
REMARK    2  A    between atoms: C_2  and  C_3
REMARK    3  A    between atoms: C_2  and  N_4
REMARK    4  A    between atoms: N_4  and  C_5
REMARK    5  A    between atoms: N_4  and  C_6
REMARK    6  A    between atoms: C_6  and  C_7
REMARK    7  A    between atoms: C_6  and  C_8
REMARK    8  A    between atoms: C_8  and  C_9
REMARK    9  A    between atoms: C_12  and  O_13
REMARK   10  A    between atoms: C_14  and  O_15
REMARK                            x       y       z     vdW  Elec       q    Type
REMARK                         _______ _______ _______ _____ _____    ______ ____
ROOT
ATOM      1  C   UNL     1       4.949   5.485  18.402  0.00  0.00    +0.000 A 
ATOM      2  C   UNL     1       4.642   6.126  17.185  0.00  0.00    +0.000 A 
ATOM      3  C   UNL     1       5.512   6.058  16.101  0.00  0.00    +0.000 A 
ATOM      4  C   UNL     1       6.722   5.365  16.206  0.00  0.00    +0.000 A 
ATOM      5  C   UNL     1       7.051   4.727  17.416  0.00  0.00    +0.000 A 
ATOM      6  C   UNL     1       6.164   4.781  18.499  0.00  0.00    +0.000 A 
ENDROOT
BRANCH   4   7
ATOM      7  O   UNL     1       7.564   5.313  15.154  0.00  0.00    +0.000 OA
ATOM      8  H   UNL     1       7.741   6.086  14.595  0.00  0.00    +0.000 HD
ENDBRANCH   4   7
BRANCH   5   9
ATOM      9  O   UNL     1       8.218   4.065  17.556  0.00  0.00    +0.000 OA
ATOM     10  H   UNL     1       8.455   3.305  17.005  0.00  0.00    +0.000 HD
ENDBRANCH   5   9
BRANCH   1  11
ATOM     11  C   UNL     1       4.021   5.549  19.611  0.00  0.00    +0.000 C 
BRANCH  11  12
ATOM     12  C   UNL     1       2.506   5.792  19.265  0.00  0.00    +0.000 C 
ATOM     13  C   UNL     1       2.201   7.204  19.827  0.00  0.00    +0.000 C 
BRANCH  12  14
ATOM     14  N   UNL     1       1.621   4.666  19.770  0.00  0.00    +0.000 NA
ATOM     15  C   UNL     1       2.109   4.220  21.111  0.00  0.00    +0.000 C 
BRANCH  14  17
ATOM     16  C   UNL     1       1.755   3.691  17.456  0.00  0.00    +0.000 C 
ATOM     17  C   UNL     1       1.356   3.433  18.936  0.00  0.00    +0.000 C 
ATOM     18  C   UNL     1       2.137   2.166  19.330  0.00  0.00    +0.000 C 
ENDBRANCH  14  17
ENDBRANCH  12  14
ENDBRANCH  11  12
ENDBRANCH   1  11
TORSDOF 6
ENDMDL
MODEL 2
REMARK VINA RESULT:      -6.3      1.845      2.883
REMARK  Name = 
REMARK  10 active torsions:
REMARK  status: ('A' for Active; 'I' for Inactive)
REMARK    1  A    between atoms: C_1  and  C_2
REMARK    2  A    between atoms: C_2  and  C_3
REMARK    3  A    between atoms: C_2  and  N_4
REMARK    4  A    between atoms: N_4  and  C_5
REMARK    5  A    between atoms: N_4  and  C_6
REMARK    6  A    between atoms: C_6  and  C_7
REMARK    7  A    between atoms: C_6  and  C_8
REMARK    8  A    between atoms: C_8  and  C_9
REMARK    9  A    between atoms: C_12  and  O_13
REMARK   10  A    between atoms: C_14  and  O_15
REMARK                            x       y       z     vdW  Elec       q    Type
REMARK                         _______ _______ _______ _____ _____    ______ ____
ROOT
ATOM      1  C   UNL     1       5.111   4.740  17.603  0.00  0.00    +0.000 A 
ATOM      2  C   UNL     1       5.462   5.759  16.693  0.00  0.00    +0.000 A 
ATOM      3  C   UNL     1       6.509   6.634  16.969  0.00  0.00    +0.000 A 
ATOM      4  C   UNL     1       7.222   6.531  18.167  0.00  0.00    +0.000 A 
ATOM      5  C   UNL     1       6.879   5.528  19.092  0.00  0.00    +0.000 A 
ATOM      6  C   UNL     1       5.837   4.637  18.804  0.00  0.00    +0.000 A 
ENDROOT
BRANCH   4   7
ATOM      7  O   UNL     1       8.228   7.389  18.430  0.00  0.00    +0.000 OA
ATOM      8  H   UNL     1       8.094   8.350  18.456  0.00  0.00    +0.000 HD
ENDBRANCH   4   7
BRANCH   5   9
ATOM      9  O   UNL     1       7.536   5.412  20.265  0.00  0.00    +0.000 OA
ATOM     10  H   UNL     1       7.172   4.929  21.021  0.00  0.00    +0.000 HD
ENDBRANCH   5   9
BRANCH   1  11
ATOM     11  C   UNL     1       3.962   3.772  17.335  0.00  0.00    +0.000 C 
BRANCH  11  12
ATOM     12  C   UNL     1       3.359   3.096  18.621  0.00  0.00    +0.000 C 
ATOM     13  C   UNL     1       3.702   1.593  18.465  0.00  0.00    +0.000 C 
BRANCH  12  14
ATOM     14  N   UNL     1       1.890   3.432  18.803  0.00  0.00    +0.000 NA
ATOM     15  C   UNL     1       1.450   4.333  17.694  0.00  0.00    +0.000 C 
BRANCH  14  17
ATOM     16  C   UNL     1       1.370   2.903  21.206  0.00  0.00    +0.000 C 
ATOM     17  C   UNL     1       1.362   3.997  20.102  0.00  0.00    +0.000 C 
ATOM     18  C   UNL     1       2.164   5.163  20.710  0.00  0.00    +0.000 C 
ENDBRANCH  14  17
ENDBRANCH  12  14
ENDBRANCH  11  12
ENDBRANCH   1  11
TORSDOF 6
ENDMDL
MODEL 3
REMARK VINA RESULT:      -6.3      0.753      1.290
REMARK  Name = 
REMARK  10 active torsions:
REMARK  status: ('A' for Active; 'I' for Inactive)
REMARK    1  A    between atoms: C_1  and  C_2
REMARK    2  A    between atoms: C_2  and  C_3
REMARK    3  A    between atoms: C_2  and  N_4
REMARK    4  A    between atoms: N_4  and  C_5
REMARK    5  A    between atoms: N_4  and  C_6
REMARK    6  A    between atoms: C_6  and  C_7
REMARK    7  A    between atoms: C_6  and  C_8
REMARK    8  A    between atoms: C_8  and  C_9
REMARK    9  A    between atoms: C_12  and  O_13
REMARK   10  A    between atoms: C_14  and  O_15
REMARK                            x       y       z     vdW  Elec       q    Type
REMARK                         _______ _______ _______ _____ _____    ______ ____
ROOT
ATOM      1  C   UNL     1       5.000   5.575  18.394  0.00  0.00    +0.000 A 
ATOM      2  C   UNL     1       4.713   6.219  17.173  0.00  0.00    +0.000 A 
ATOM      3  C   UNL     1       5.582   6.120  16.090  0.00  0.00    +0.000 A 
ATOM      4  C   UNL     1       6.771   5.393  16.200  0.00  0.00    +0.000 A 
ATOM      5  C   UNL     1       7.080   4.752  17.413  0.00  0.00    +0.000 A 
ATOM      6  C   UNL     1       6.195   4.837  18.495  0.00  0.00    +0.000 A 
ENDROOT
BRANCH   4   7
ATOM      7  O   UNL     1       7.612   5.311  15.150  0.00  0.00    +0.000 OA
ATOM      8  H   UNL     1       7.715   4.497  14.633  0.00  0.00    +0.000 HD
ENDBRANCH   4   7
BRANCH   5   9
ATOM      9  O   UNL     1       8.227   4.056  17.558  0.00  0.00    +0.000 OA
ATOM     10  H   UNL     1       8.449   3.581  18.371  0.00  0.00    +0.000 HD
ENDBRANCH   5   9
BRANCH   1  11
ATOM     11  C   UNL     1       4.073   5.672  19.602  0.00  0.00    +0.000 C 
BRANCH  11  12
ATOM     12  C   UNL     1       2.543   5.518  19.270  0.00  0.00    +0.000 C 
ATOM     13  C   UNL     1       1.818   6.181  20.470  0.00  0.00    +0.000 C 
BRANCH  12  14
ATOM     14  N   UNL     1       2.169   4.076  18.977  0.00  0.00    +0.000 NA
ATOM     15  C   UNL     1       1.792   3.948  17.536  0.00  0.00    +0.000 C 
BRANCH  14  17
ATOM     16  C   UNL     1       0.533   2.166  18.982  0.00  0.00    +0.000 C 
ATOM     17  C   UNL     1       1.129   3.347  19.798  0.00  0.00    +0.000 C 
ATOM     18  C   UNL     1       1.627   2.699  21.104  0.00  0.00    +0.000 C 
ENDBRANCH  14  17
ENDBRANCH  12  14
ENDBRANCH  11  12
ENDBRANCH   1  11
TORSDOF 6
ENDMDL
MODEL 4
REMARK VINA RESULT:      -6.2      1.542      3.100
REMARK  Name = 
REMARK  10 active torsions:
REMARK  status: ('A' for Active; 'I' for Inactive)
REMARK    1  A    between atoms: C_1  and  C_2
REMARK    2  A    between atoms: C_2  and  C_3
REMARK    3  A    between atoms: C_2  and  N_4
REMARK    4  A    between atoms: N_4  and  C_5
REMARK    5  A    between atoms: N_4  and  C_6
REMARK    6  A    between atoms: C_6  and  C_7
REMARK    7  A    between atoms: C_6  and  C_8
REMARK    8  A    between atoms: C_8  and  C_9
REMARK    9  A    between atoms: C_12  and  O_13
REMARK   10  A    between atoms: C_14  and  O_15
REMARK                            x       y       z     vdW  Elec       q    Type
REMARK                         _______ _______ _______ _____ _____    ______ ____
ROOT
ATOM      1  C   UNL     1       5.056   4.397  17.804  0.00  0.00    +0.000 A 
ATOM      2  C   UNL     1       5.421   4.721  19.127  0.00  0.00    +0.000 A 
ATOM      3  C   UNL     1       6.485   5.579  19.386  0.00  0.00    +0.000 A 
ATOM      4  C   UNL     1       7.229   6.123  18.335  0.00  0.00    +0.000 A 
ATOM      5  C   UNL     1       6.888   5.804  17.008  0.00  0.00    +0.000 A 
ATOM      6  C   UNL     1       5.804   4.955  16.750  0.00  0.00    +0.000 A 
ENDROOT
BRANCH   4   7
ATOM      7  O   UNL     1       8.265   6.945  18.596  0.00  0.00    +0.000 OA
ATOM      8  H   UNL     1       8.257   7.882  18.346  0.00  0.00    +0.000 HD
ENDBRANCH   4   7
BRANCH   5   9
ATOM      9  O   UNL     1       7.596   6.298  15.972  0.00  0.00    +0.000 OA
ATOM     10  H   UNL     1       7.339   7.105  15.503  0.00  0.00    +0.000 HD
ENDBRANCH   5   9
BRANCH   1  11
ATOM     11  C   UNL     1       3.901   3.453  17.487  0.00  0.00    +0.000 C 
BRANCH  11  12
ATOM     12  C   UNL     1       3.252   2.763  18.744  0.00  0.00    +0.000 C 
ATOM     13  C   UNL     1       3.480   1.247  18.514  0.00  0.00    +0.000 C 
BRANCH  12  14
ATOM     14  N   UNL     1       1.813   3.199  18.950  0.00  0.00    +0.000 NA
ATOM     15  C   UNL     1       1.430   4.161  17.872  0.00  0.00    +0.000 C 
BRANCH  14  17
ATOM     16  C   UNL     1       1.939   2.948  21.449  0.00  0.00    +0.000 C 
ATOM     17  C   UNL     1       1.339   3.764  20.270  0.00  0.00    +0.000 C 
ATOM     18  C   UNL     1       1.738   5.221  20.567  0.00  0.00    +0.000 C 
ENDBRANCH  14  17
ENDBRANCH  12  14
ENDBRANCH  11  12
ENDBRANCH   1  11
TORSDOF 6
ENDMDL
MODEL 5
REMARK VINA RESULT:      -6.2      1.931      2.397
REMARK  Name = 
REMARK  10 active torsions:
REMARK  status: ('A' for Active; 'I' for Inactive)
REMARK    1  A    between atoms: C_1  and  C_2
REMARK    2  A    between atoms: C_2  and  C_3
REMARK    3  A    between atoms: C_2  and  N_4
REMARK    4  A    between atoms: N_4  and  C_5
REMARK    5  A    between atoms: N_4  and  C_6
REMARK    6  A    between atoms: C_6  and  C_7
REMARK    7  A    between atoms: C_6  and  C_8
REMARK    8  A    between atoms: C_8  and  C_9
REMARK    9  A    between atoms: C_12  and  O_13
REMARK   10  A    between atoms: C_14  and  O_15
REMARK                            x       y       z     vdW  Elec       q    Type
REMARK                         _______ _______ _______ _____ _____    ______ ____
ROOT
ATOM      1  C   UNL     1       5.567   5.203  17.523  0.00  0.00    +0.000 A 
ATOM      2  C   UNL     1       6.016   6.321  16.790  0.00  0.00    +0.000 A 
ATOM      3  C   UNL     1       7.067   7.105  17.254  0.00  0.00    +0.000 A 
ATOM      4  C   UNL     1       7.688   6.809  18.471  0.00  0.00    +0.000 A 
ATOM      5  C   UNL     1       7.249   5.704  19.222  0.00  0.00    +0.000 A 
ATOM      6  C   UNL     1       6.203   4.905  18.743  0.00  0.00    +0.000 A 
ENDROOT
BRANCH   4   7
ATOM      7  O   UNL     1       8.700   7.581  18.918  0.00  0.00    +0.000 OA
ATOM      8  H   UNL     1       9.299   7.290  19.624  0.00  0.00    +0.000 HD
ENDBRANCH   4   7
BRANCH   5   9
ATOM      9  O   UNL     1       7.816   5.401  20.408  0.00  0.00    +0.000 OA
ATOM     10  H   UNL     1       7.573   4.614  20.916  0.00  0.00    +0.000 HD
ENDBRANCH   5   9
BRANCH   1  11
ATOM     11  C   UNL     1       4.411   4.329  17.047  0.00  0.00    +0.000 C 
BRANCH  11  12
ATOM     12  C   UNL     1       3.040   4.604  17.767  0.00  0.00    +0.000 C 
ATOM     13  C   UNL     1       3.036   6.133  18.023  0.00  0.00    +0.000 C 
BRANCH  12  14
ATOM     14  N   UNL     1       2.854   3.722  18.989  0.00  0.00    +0.000 NA
ATOM     15  C   UNL     1       3.454   2.379  18.723  0.00  0.00    +0.000 C 
BRANCH  14  17
ATOM     16  C   UNL     1       0.722   2.395  18.850  0.00  0.00    +0.000 C 
ATOM     17  C   UNL     1       1.492   3.510  19.611  0.00  0.00    +0.000 C 
ATOM     18  C   UNL     1       1.481   3.051  21.081  0.00  0.00    +0.000 C 
ENDBRANCH  14  17
ENDBRANCH  12  14
ENDBRANCH  11  12
ENDBRANCH   1  11
TORSDOF 6
ENDMDL
MODEL 6
REMARK VINA RESULT:      -6.1      0.978      1.258
REMARK  Name = 
REMARK  10 active torsions:
REMARK  status: ('A' for Active; 'I' for Inactive)
REMARK    1  A    between atoms: C_1  and  C_2
REMARK    2  A    between atoms: C_2  and  C_3
REMARK    3  A    between atoms: C_2  and  N_4
REMARK    4  A    between atoms: N_4  and  C_5
REMARK    5  A    between atoms: N_4  and  C_6
REMARK    6  A    between atoms: C_6  and  C_7
REMARK    7  A    between atoms: C_6  and  C_8
REMARK    8  A    between atoms: C_8  and  C_9
REMARK    9  A    between atoms: C_12  and  O_13
REMARK   10  A    between atoms: C_14  and  O_15
REMARK                            x       y       z     vdW  Elec       q    Type
REMARK                         _______ _______ _______ _____ _____    ______ ____
ROOT
ATOM      1  C   UNL     1       5.020   5.629  18.172  0.00  0.00    +0.000 A 
ATOM      2  C   UNL     1       4.660   6.215  16.941  0.00  0.00    +0.000 A 
ATOM      3  C   UNL     1       5.467   6.070  15.817  0.00  0.00    +0.000 A 
ATOM      4  C   UNL     1       6.665   5.354  15.892  0.00  0.00    +0.000 A 
ATOM      5  C   UNL     1       7.047   4.771  17.114  0.00  0.00    +0.000 A 
ATOM      6  C   UNL     1       6.223   4.902  18.239  0.00  0.00    +0.000 A 
ENDROOT
BRANCH   4   7
ATOM      7  O   UNL     1       7.446   5.227  14.800  0.00  0.00    +0.000 OA
ATOM      8  H   UNL     1       7.781   4.367  14.502  0.00  0.00    +0.000 HD
ENDBRANCH   4   7
BRANCH   5   9
ATOM      9  O   UNL     1       8.205   4.087  17.224  0.00  0.00    +0.000 OA
ATOM     10  H   UNL     1       8.238   3.121  17.264  0.00  0.00    +0.000 HD
ENDBRANCH   5   9
BRANCH   1  11
ATOM     11  C   UNL     1       4.163   5.778  19.425  0.00  0.00    +0.000 C 
BRANCH  11  12
ATOM     12  C   UNL     1       2.614   5.643  19.182  0.00  0.00    +0.000 C 
ATOM     13  C   UNL     1       1.984   6.735  20.084  0.00  0.00    +0.000 C 
BRANCH  12  14
ATOM     14  N   UNL     1       2.125   4.224  19.409  0.00  0.00    +0.000 NA
ATOM     15  C   UNL     1       0.943   4.251  20.325  0.00  0.00    +0.000 C 
BRANCH  14  17
ATOM     16  C   UNL     1       2.599   2.599  21.268  0.00  0.00    +0.000 C 
ATOM     17  C   UNL     1       3.058   3.133  19.883  0.00  0.00    +0.000 C 
ATOM     18  C   UNL     1       3.142   1.878  18.995  0.00  0.00    +0.000 C 
ENDBRANCH  14  17
ENDBRANCH  12  14
ENDBRANCH  11  12
ENDBRANCH   1  11
TORSDOF 6
ENDMDL
MODEL 7
REMARK VINA RESULT:      -6.1      1.475      2.827
REMARK  Name = 
REMARK  10 active torsions:
REMARK  status: ('A' for Active; 'I' for Inactive)
REMARK    1  A    between atoms: C_1  and  C_2
REMARK    2  A    between atoms: C_2  and  C_3
REMARK    3  A    between atoms: C_2  and  N_4
REMARK    4  A    between atoms: N_4  and  C_5
REMARK    5  A    between atoms: N_4  and  C_6
REMARK    6  A    between atoms: C_6  and  C_7
REMARK    7  A    between atoms: C_6  and  C_8
REMARK    8  A    between atoms: C_8  and  C_9
REMARK    9  A    between atoms: C_12  and  O_13
REMARK   10  A    between atoms: C_14  and  O_15
REMARK                            x       y       z     vdW  Elec       q    Type
REMARK                         _______ _______ _______ _____ _____    ______ ____
ROOT
ATOM      1  C   UNL     1       4.422   4.443  17.076  0.00  0.00    +0.000 A 
ATOM      2  C   UNL     1       4.295   5.744  17.603  0.00  0.00    +0.000 A 
ATOM      3  C   UNL     1       5.322   6.674  17.471  0.00  0.00    +0.000 A 
ATOM      4  C   UNL     1       6.513   6.326  16.827  0.00  0.00    +0.000 A 
ATOM      5  C   UNL     1       6.664   5.029  16.303  0.00  0.00    +0.000 A 
ATOM      6  C   UNL     1       5.621   4.102  16.421  0.00  0.00    +0.000 A 
ENDROOT
BRANCH   4   7
ATOM      7  O   UNL     1       7.507   7.230  16.712  0.00  0.00    +0.000 OA
ATOM      8  H   UNL     1       7.936   7.627  17.486  0.00  0.00    +0.000 HD
ENDBRANCH   4   7
BRANCH   5   9
ATOM      9  O   UNL     1       7.807   4.657  15.691  0.00  0.00    +0.000 OA
ATOM     10  H   UNL     1       8.142   3.749  15.720  0.00  0.00    +0.000 HD
ENDBRANCH   5   9
BRANCH   1  11
ATOM     11  C   UNL     1       3.319   3.398  17.213  0.00  0.00    +0.000 C 
BRANCH  11  12
ATOM     12  C   UNL     1       3.158   2.799  18.659  0.00  0.00    +0.000 C 
ATOM     13  C   UNL     1       3.654   1.336  18.528  0.00  0.00    +0.000 C 
BRANCH  12  14
ATOM     14  N   UNL     1       1.750   2.981  19.195  0.00  0.00    +0.000 NA
ATOM     15  C   UNL     1       0.917   3.676  18.166  0.00  0.00    +0.000 C 
BRANCH  14  17
ATOM     16  C   UNL     1       2.250   2.892  21.658  0.00  0.00    +0.000 C 
ATOM     17  C   UNL     1       1.492   3.644  20.530  0.00  0.00    +0.000 C 
ATOM     18  C   UNL     1       1.956   5.107  20.662  0.00  0.00    +0.000 C 
ENDBRANCH  14  17
ENDBRANCH  12  14
ENDBRANCH  11  12
ENDBRANCH   1  11
TORSDOF 6
ENDMDL
MODEL 8
REMARK VINA RESULT:      -6.1      1.373      2.143
REMARK  Name = 
REMARK  10 active torsions:
REMARK  status: ('A' for Active; 'I' for Inactive)
REMARK    1  A    between atoms: C_1  and  C_2
REMARK    2  A    between atoms: C_2  and  C_3
REMARK    3  A    between atoms: C_2  and  N_4
REMARK    4  A    between atoms: N_4  and  C_5
REMARK    5  A    between atoms: N_4  and  C_6
REMARK    6  A    between atoms: C_6  and  C_7
REMARK    7  A    between atoms: C_6  and  C_8
REMARK    8  A    between atoms: C_8  and  C_9
REMARK    9  A    between atoms: C_12  and  O_13
REMARK   10  A    between atoms: C_14  and  O_15
REMARK                            x       y       z     vdW  Elec       q    Type
REMARK                         _______ _______ _______ _____ _____    ______ ____
ROOT
ATOM      1  C   UNL     1       4.237   5.436  17.928  0.00  0.00    +0.000 A 
ATOM      2  C   UNL     1       4.708   4.782  16.771  0.00  0.00    +0.000 A 
ATOM      3  C   UNL     1       6.022   4.329  16.690  0.00  0.00    +0.000 A 
ATOM      4  C   UNL     1       6.908   4.533  17.751  0.00  0.00    +0.000 A 
ATOM      5  C   UNL     1       6.460   5.192  18.910  0.00  0.00    +0.000 A 
ATOM      6  C   UNL     1       5.133   5.630  18.997  0.00  0.00    +0.000 A 
ENDROOT
BRANCH   4   7
ATOM      7  O   UNL     1       8.182   4.099  17.660  0.00  0.00    +0.000 OA
ATOM      8  H   UNL     1       8.578   3.516  18.326  0.00  0.00    +0.000 HD
ENDBRANCH   4   7
BRANCH   5   9
ATOM      9  O   UNL     1       7.295   5.419  19.946  0.00  0.00    +0.000 OA
ATOM     10  H   UNL     1       8.253   5.299  19.879  0.00  0.00    +0.000 HD
ENDBRANCH   5   9
BRANCH   1  11
ATOM     11  C   UNL     1       2.807   5.953  18.044  0.00  0.00    +0.000 C 
BRANCH  11  12
ATOM     12  C   UNL     1       1.909   5.177  19.076  0.00  0.00    +0.000 C 
ATOM     13  C   UNL     1       1.975   6.032  20.367  0.00  0.00    +0.000 C 
BRANCH  12  14
ATOM     14  N   UNL     1       2.331   3.725  19.215  0.00  0.00    +0.000 NA
ATOM     15  C   UNL     1       1.157   2.842  18.935  0.00  0.00    +0.000 C 
BRANCH  14  17
ATOM     16  C   UNL     1       1.985   2.477  21.371  0.00  0.00    +0.000 C 
ATOM     17  C   UNL     1       3.011   3.215  20.466  0.00  0.00    +0.000 C 
ATOM     18  C   UNL     1       4.143   2.193  20.255  0.00  0.00    +0.000 C 
ENDBRANCH  14  17
ENDBRANCH  12  14
ENDBRANCH  11  12
ENDBRANCH   1  11
TORSDOF 6
ENDMDL
MODEL 9
REMARK VINA RESULT:      -6.1      2.966      5.341
REMARK  Name = 
REMARK  10 active torsions:
REMARK  status: ('A' for Active; 'I' for Inactive)
REMARK    1  A    between atoms: C_1  and  C_2
REMARK    2  A    between atoms: C_2  and  C_3
REMARK    3  A    between atoms: C_2  and  N_4
REMARK    4  A    between atoms: N_4  and  C_5
REMARK    5  A    between atoms: N_4  and  C_6
REMARK    6  A    between atoms: C_6  and  C_7
REMARK    7  A    between atoms: C_6  and  C_8
REMARK    8  A    between atoms: C_8  and  C_9
REMARK    9  A    between atoms: C_12  and  O_13
REMARK   10  A    between atoms: C_14  and  O_15
REMARK                            x       y       z     vdW  Elec       q    Type
REMARK                         _______ _______ _______ _____ _____    ______ ____
ROOT
ATOM      1  C   UNL     1       3.511   4.377  18.558  0.00  0.00    +0.000 A 
ATOM      2  C   UNL     1       2.382   4.606  19.371  0.00  0.00    +0.000 A 
ATOM      3  C   UNL     1       2.174   3.867  20.531  0.00  0.00    +0.000 A 
ATOM      4  C   UNL     1       3.074   2.865  20.904  0.00  0.00    +0.000 A 
ATOM      5  C   UNL     1       4.201   2.613  20.100  0.00  0.00    +0.000 A 
ATOM      6  C   UNL     1       4.418   3.372  18.942  0.00  0.00    +0.000 A 
ENDROOT
BRANCH   4   7
ATOM      7  O   UNL     1       2.860   2.146  22.024  0.00  0.00    +0.000 OA
ATOM      8  H   UNL     1       3.547   1.587  22.419  0.00  0.00    +0.000 HD
ENDBRANCH   4   7
BRANCH   5   9
ATOM      9  O   UNL     1       5.081   1.642  20.422  0.00  0.00    +0.000 OA
ATOM     10  H   UNL     1       4.837   0.877  20.963  0.00  0.00    +0.000 HD
ENDBRANCH   5   9
BRANCH   1  11
ATOM     11  C   UNL     1       3.762   5.162  17.275  0.00  0.00    +0.000 C 
BRANCH  11  12
ATOM     12  C   UNL     1       4.646   6.451  17.456  0.00  0.00    +0.000 C 
ATOM     13  C   UNL     1       3.633   7.624  17.414  0.00  0.00    +0.000 C 
BRANCH  12  14
ATOM     14  N   UNL     1       5.778   6.510  16.446  0.00  0.00    +0.000 NA
ATOM     15  C   UNL     1       5.457   5.612  15.294  0.00  0.00    +0.000 C 
BRANCH  14  17
ATOM     16  C   UNL     1       7.686   7.341  17.856  0.00  0.00    +0.000 C 
ATOM     17  C   UNL     1       7.212   6.256  16.850  0.00  0.00    +0.000 C 
ATOM     18  C   UNL     1       7.490   4.921  17.566  0.00  0.00    +0.000 C 
ENDBRANCH  14  17
ENDBRANCH  12  14
ENDBRANCH  11  12
ENDBRANCH   1  11
TORSDOF 6
ENDMDL
