MODEL 1
REMARK VINA RESULT:      -6.7      0.000      0.000
REMARK  Name = 
REMARK  5 active torsions:
REMARK  status: ('A' for Active; 'I' for Inactive)
REMARK    1  A    between atoms: C_2  and  S_15
REMARK    2  A    between atoms: N_3  and  C_4
REMARK    3  A    between atoms: C_7  and  O_8
REMARK    4  A    between atoms: O_8  and  C_9
REMARK    5  A    between atoms: S_15  and  C_16
REMARK                            x       y       z     vdW  Elec       q    Type
REMARK                         _______ _______ _______ _____ _____    ______ ____
ROOT
ATOM      1  O   UNL     1       1.872   4.898  18.042  0.00  0.00    +0.000 OA
ATOM      2  C   UNL     1       2.766   5.146  18.835  0.00  0.00    +0.000 C 
ATOM      3  N   UNL     1       3.053   6.352  19.430  0.00  0.00    +0.000 N 
ATOM      4  H   UNL     1       3.924   6.393  19.937  0.00  0.00    +0.000 HD
ENDROOT
BRANCH   3   5
ATOM      5  C   UNL     1       2.289   7.532  19.315  0.00  0.00    +0.000 A 
ATOM      6  C   UNL     1       2.165   8.239  18.118  0.00  0.00    +0.000 A 
ATOM      7  C   UNL     1       1.399   9.405  18.057  0.00  0.00    +0.000 A 
ATOM      8  C   UNL     1       0.735   9.882  19.185  0.00  0.00    +0.000 A 
ATOM      9  C   UNL     1       0.878   9.200  20.390  0.00  0.00    +0.000 A 
ATOM     10  C   UNL     1       1.627   8.013  20.448  0.00  0.00    +0.000 A 
BRANCH   8  11
ATOM     11  O   UNL     1       0.063  11.050  18.995  0.00  0.00    +0.000 OA
BRANCH  11  12
ATOM     12  C   UNL     1      -1.307  11.025  18.626  0.00  0.00    +0.000 C 
ATOM     13  F   UNL     1      -1.793   9.797  18.353  0.00  0.00    +0.000 F 
ATOM     14  F   UNL     1      -2.038  11.562  19.628  0.00  0.00    +0.000 F 
ATOM     15  F   UNL     1      -1.475  11.793  17.527  0.00  0.00    +0.000 F 
ENDBRANCH  11  12
ENDBRANCH   8  11
ENDBRANCH   3   5
BRANCH   2  16
ATOM     16  S   UNL     1       3.947   3.931  19.307  0.00  0.00    +0.000 S 
BRANCH  16  17
ATOM     17  C   UNL     1       5.236   4.360  18.184  0.00  0.00    +0.000 A 
ATOM     18  C   UNL     1       6.474   4.903  18.470  0.00  0.00    +0.000 A 
ATOM     19  C   UNL     1       7.242   5.161  17.293  0.00  0.00    +0.000 A 
ATOM     20  C   UNL     1       6.566   4.762  16.171  0.00  0.00    +0.000 A 
ATOM     21 CL   UNL     1       7.105   4.891  14.546  0.00  0.00    +0.000 Cl
ATOM     22  S   UNL     1       5.052   4.084  16.499  0.00  0.00    +0.000 S 
ENDBRANCH  16  17
ENDBRANCH   2  16
TORSDOF 5
ENDMDL
MODEL 2
REMARK VINA RESULT:      -6.7      0.148      1.057
REMARK  Name = 
REMARK  5 active torsions:
REMARK  status: ('A' for Active; 'I' for Inactive)
REMARK    1  A    between atoms: C_2  and  S_15
REMARK    2  A    between atoms: N_3  and  C_4
REMARK    3  A    between atoms: C_7  and  O_8
REMARK    4  A    between atoms: O_8  and  C_9
REMARK    5  A    between atoms: S_15  and  C_16
REMARK                            x       y       z     vdW  Elec       q    Type
REMARK                         _______ _______ _______ _____ _____    ______ ____
ROOT
ATOM      1  O   UNL     1       1.818   4.956  18.134  0.00  0.00    +0.000 OA
ATOM      2  C   UNL     1       2.697   5.178  18.953  0.00  0.00    +0.000 C 
ATOM      3  N   UNL     1       2.979   6.367  19.583  0.00  0.00    +0.000 N 
ATOM      4  H   UNL     1       3.839   6.389  20.111  0.00  0.00    +0.000 HD
ENDROOT
BRANCH   3   5
ATOM      5  C   UNL     1       2.226   7.555  19.480  0.00  0.00    +0.000 A 
ATOM      6  C   UNL     1       1.527   8.103  20.555  0.00  0.00    +0.000 A 
ATOM      7  C   UNL     1       0.792   9.280  20.400  0.00  0.00    +0.000 A 
ATOM      8  C   UNL     1       0.747   9.937  19.172  0.00  0.00    +0.000 A 
ATOM      9  C   UNL     1       1.416   9.380  18.086  0.00  0.00    +0.000 A 
ATOM     10  C   UNL     1       2.177   8.211  18.246  0.00  0.00    +0.000 A 
BRANCH   8  11
ATOM     11  O   UNL     1      -0.042  11.045  19.151  0.00  0.00    +0.000 OA
BRANCH  11  12
ATOM     12  C   UNL     1      -1.373  10.955  18.665  0.00  0.00    +0.000 C 
ATOM     13  F   UNL     1      -1.820   9.696  18.483  0.00  0.00    +0.000 F 
ATOM     14  F   UNL     1      -2.197  11.581  19.533  0.00  0.00    +0.000 F 
ATOM     15  F   UNL     1      -1.447  11.599  17.479  0.00  0.00    +0.000 F 
ENDBRANCH  11  12
ENDBRANCH   8  11
ENDBRANCH   3   5
BRANCH   2  16
ATOM     16  S   UNL     1       3.858   3.943  19.421  0.00  0.00    +0.000 S 
BRANCH  16  17
ATOM     17  C   UNL     1       5.151   4.350  18.294  0.00  0.00    +0.000 A 
ATOM     18  C   UNL     1       6.381   4.917  18.573  0.00  0.00    +0.000 A 
ATOM     19  C   UNL     1       7.155   5.146  17.394  0.00  0.00    +0.000 A 
ATOM     20  C   UNL     1       6.492   4.704  16.280  0.00  0.00    +0.000 A 
ATOM     21 CL   UNL     1       7.043   4.787  14.656  0.00  0.00    +0.000 Cl
ATOM     22  S   UNL     1       4.984   4.018  16.618  0.00  0.00    +0.000 S 
ENDBRANCH  16  17
ENDBRANCH   2  16
TORSDOF 5
ENDMDL
MODEL 3
REMARK VINA RESULT:      -6.6      1.137      1.739
REMARK  Name = 
REMARK  5 active torsions:
REMARK  status: ('A' for Active; 'I' for Inactive)
REMARK    1  A    between atoms: C_2  and  S_15
REMARK    2  A    between atoms: N_3  and  C_4
REMARK    3  A    between atoms: C_7  and  O_8
REMARK    4  A    between atoms: O_8  and  C_9
REMARK    5  A    between atoms: S_15  and  C_16
REMARK                            x       y       z     vdW  Elec       q    Type
REMARK                         _______ _______ _______ _____ _____    ______ ____
ROOT
ATOM      1  O   UNL     1       1.015   4.776  20.303  0.00  0.00    +0.000 OA
ATOM      2  C   UNL     1       2.206   5.007  20.166  0.00  0.00    +0.000 C 
ATOM      3  N   UNL     1       2.799   6.208  19.852  0.00  0.00    +0.000 N 
ATOM      4  H   UNL     1       3.783   6.164  19.633  0.00  0.00    +0.000 HD
ENDROOT
BRANCH   3   5
ATOM      5  C   UNL     1       2.139   7.447  19.729  0.00  0.00    +0.000 A 
ATOM      6  C   UNL     1       1.462   8.053  20.788  0.00  0.00    +0.000 A 
ATOM      7  C   UNL     1       0.820   9.280  20.614  0.00  0.00    +0.000 A 
ATOM      8  C   UNL     1       0.848   9.931  19.382  0.00  0.00    +0.000 A 
ATOM      9  C   UNL     1       1.494   9.320  18.312  0.00  0.00    +0.000 A 
ATOM     10  C   UNL     1       2.162   8.098  18.491  0.00  0.00    +0.000 A 
BRANCH   8  11
ATOM     11  O   UNL     1       0.144  11.095  19.341  0.00  0.00    +0.000 OA
BRANCH  11  12
ATOM     12  C   UNL     1      -1.199  11.092  18.880  0.00  0.00    +0.000 C 
ATOM     13  F   UNL     1      -1.684   9.872  18.571  0.00  0.00    +0.000 F 
ATOM     14  F   UNL     1      -1.987  11.638  19.832  0.00  0.00    +0.000 F 
ATOM     15  F   UNL     1      -1.281  11.865  17.775  0.00  0.00    +0.000 F 
ENDBRANCH  11  12
ENDBRANCH   8  11
ENDBRANCH   3   5
BRANCH   2  16
ATOM     16  S   UNL     1       3.415   3.736  20.284  0.00  0.00    +0.000 S 
BRANCH  16  17
ATOM     17  C   UNL     1       4.181   3.949  18.711  0.00  0.00    +0.000 A 
ATOM     18  C   UNL     1       3.655   3.684  17.460  0.00  0.00    +0.000 A 
ATOM     19  C   UNL     1       4.590   3.937  16.410  0.00  0.00    +0.000 A 
ATOM     20  C   UNL     1       5.768   4.423  16.911  0.00  0.00    +0.000 A 
ATOM     21 CL   UNL     1       7.167   4.853  16.013  0.00  0.00    +0.000 Cl
ATOM     22  S   UNL     1       5.770   4.589  18.594  0.00  0.00    +0.000 S 
ENDBRANCH  16  17
ENDBRANCH   2  16
TORSDOF 5
ENDMDL
MODEL 4
REMARK VINA RESULT:      -6.5      1.095      1.582
REMARK  Name = 
REMARK  5 active torsions:
REMARK  status: ('A' for Active; 'I' for Inactive)
REMARK    1  A    between atoms: C_2  and  S_15
REMARK    2  A    between atoms: N_3  and  C_4
REMARK    3  A    between atoms: C_7  and  O_8
REMARK    4  A    between atoms: O_8  and  C_9
REMARK    5  A    between atoms: S_15  and  C_16
REMARK                            x       y       z     vdW  Elec       q    Type
REMARK                         _______ _______ _______ _____ _____    ______ ____
ROOT
ATOM      1  O   UNL     1       1.122   4.825  20.199  0.00  0.00    +0.000 OA
ATOM      2  C   UNL     1       2.308   5.072  20.044  0.00  0.00    +0.000 C 
ATOM      3  N   UNL     1       2.877   6.266  19.668  0.00  0.00    +0.000 N 
ATOM      4  H   UNL     1       3.860   6.230  19.445  0.00  0.00    +0.000 HD
ENDROOT
BRANCH   3   5
ATOM      5  C   UNL     1       2.193   7.486  19.489  0.00  0.00    +0.000 A 
ATOM      6  C   UNL     1       2.133   8.147  18.262  0.00  0.00    +0.000 A 
ATOM      7  C   UNL     1       1.446   9.356  18.138  0.00  0.00    +0.000 A 
ATOM      8  C   UNL     1       0.797   9.923  19.232  0.00  0.00    +0.000 A 
ATOM      9  C   UNL     1       0.877   9.286  20.467  0.00  0.00    +0.000 A 
ATOM     10  C   UNL     1       1.546   8.057  20.589  0.00  0.00    +0.000 A 
BRANCH   8  11
ATOM     11  O   UNL     1       0.206  11.123  18.981  0.00  0.00    +0.000 OA
BRANCH  11  12
ATOM     12  C   UNL     1      -1.206  11.202  18.857  0.00  0.00    +0.000 C 
ATOM     13  F   UNL     1      -1.642  12.147  18.000  0.00  0.00    +0.000 F 
ATOM     14  F   UNL     1      -1.675  10.002  18.449  0.00  0.00    +0.000 F 
ATOM     15  F   UNL     1      -1.734  11.467  20.073  0.00  0.00    +0.000 F 
ENDBRANCH  11  12
ENDBRANCH   8  11
ENDBRANCH   3   5
BRANCH   2  16
ATOM     16  S   UNL     1       3.541   3.830  20.216  0.00  0.00    +0.000 S 
BRANCH  16  17
ATOM     17  C   UNL     1       4.298   3.983  18.631  0.00  0.00    +0.000 A 
ATOM     18  C   UNL     1       3.764   3.671  17.395  0.00  0.00    +0.000 A 
ATOM     19  C   UNL     1       4.693   3.884  16.330  0.00  0.00    +0.000 A 
ATOM     20  C   UNL     1       5.874   4.390  16.805  0.00  0.00    +0.000 A 
ATOM     21 CL   UNL     1       7.267   4.786  15.883  0.00  0.00    +0.000 Cl
ATOM     22  S   UNL     1       5.886   4.619  18.481  0.00  0.00    +0.000 S 
ENDBRANCH  16  17
ENDBRANCH   2  16
TORSDOF 5
ENDMDL
MODEL 5
REMARK VINA RESULT:      -6.4      1.304      1.474
REMARK  Name = 
REMARK  5 active torsions:
REMARK  status: ('A' for Active; 'I' for Inactive)
REMARK    1  A    between atoms: C_2  and  S_15
REMARK    2  A    between atoms: N_3  and  C_4
REMARK    3  A    between atoms: C_7  and  O_8
REMARK    4  A    between atoms: O_8  and  C_9
REMARK    5  A    between atoms: S_15  and  C_16
REMARK                            x       y       z     vdW  Elec       q    Type
REMARK                         _______ _______ _______ _____ _____    ______ ____
ROOT
ATOM      1  O   UNL     1       1.783   4.694  18.262  0.00  0.00    +0.000 OA
ATOM      2  C   UNL     1       2.775   5.012  18.899  0.00  0.00    +0.000 C 
ATOM      3  N   UNL     1       3.146   6.272  19.304  0.00  0.00    +0.000 N 
ATOM      4  H   UNL     1       4.076   6.352  19.688  0.00  0.00    +0.000 HD
ENDROOT
BRANCH   3   5
ATOM      5  C   UNL     1       2.384   7.448  19.147  0.00  0.00    +0.000 A 
ATOM      6  C   UNL     1       2.273   8.121  17.930  0.00  0.00    +0.000 A 
ATOM      7  C   UNL     1       1.508   9.285  17.828  0.00  0.00    +0.000 A 
ATOM      8  C   UNL     1       0.831   9.793  18.934  0.00  0.00    +0.000 A 
ATOM      9  C   UNL     1       0.960   9.144  20.159  0.00  0.00    +0.000 A 
ATOM     10  C   UNL     1       1.708   7.960  20.259  0.00  0.00    +0.000 A 
BRANCH   8  11
ATOM     11  O   UNL     1       0.162  10.955  18.704  0.00  0.00    +0.000 OA
BRANCH  11  12
ATOM     12  C   UNL     1       0.742  12.192  19.089  0.00  0.00    +0.000 C 
ATOM     13  F   UNL     1       0.430  13.232  18.290  0.00  0.00    +0.000 F 
ATOM     14  F   UNL     1       0.349  12.485  20.348  0.00  0.00    +0.000 F 
ATOM     15  F   UNL     1       2.087  12.058  19.092  0.00  0.00    +0.000 F 
ENDBRANCH  11  12
ENDBRANCH   8  11
ENDBRANCH   3   5
BRANCH   2  16
ATOM     16  S   UNL     1       3.997   3.833  19.359  0.00  0.00    +0.000 S 
BRANCH  16  17
ATOM     17  C   UNL     1       5.232   4.252  18.173  0.00  0.00    +0.000 A 
ATOM     18  C   UNL     1       6.503   4.746  18.401  0.00  0.00    +0.000 A 
ATOM     19  C   UNL     1       7.209   5.014  17.188  0.00  0.00    +0.000 A 
ATOM     20  C   UNL     1       6.456   4.670  16.097  0.00  0.00    +0.000 A 
ATOM     21 CL   UNL     1       6.904   4.829  14.447  0.00  0.00    +0.000 Cl
ATOM     22  S   UNL     1       4.941   4.032  16.495  0.00  0.00    +0.000 S 
ENDBRANCH  16  17
ENDBRANCH   2  16
TORSDOF 5
ENDMDL
MODEL 6
REMARK VINA RESULT:      -6.4      0.998      1.691
REMARK  Name = 
REMARK  5 active torsions:
REMARK  status: ('A' for Active; 'I' for Inactive)
REMARK    1  A    between atoms: C_2  and  S_15
REMARK    2  A    between atoms: N_3  and  C_4
REMARK    3  A    between atoms: C_7  and  O_8
REMARK    4  A    between atoms: O_8  and  C_9
REMARK    5  A    between atoms: S_15  and  C_16
REMARK                            x       y       z     vdW  Elec       q    Type
REMARK                         _______ _______ _______ _____ _____    ______ ____
ROOT
ATOM      1  O   UNL     1       1.173   4.797  20.209  0.00  0.00    +0.000 OA
ATOM      2  C   UNL     1       2.367   5.009  20.071  0.00  0.00    +0.000 C 
ATOM      3  N   UNL     1       2.974   6.174  19.663  0.00  0.00    +0.000 N 
ATOM      4  H   UNL     1       3.961   6.106  19.464  0.00  0.00    +0.000 HD
ENDROOT
BRANCH   3   5
ATOM      5  C   UNL     1       2.324   7.403  19.424  0.00  0.00    +0.000 A 
ATOM      6  C   UNL     1       1.644   8.105  20.419  0.00  0.00    +0.000 A 
ATOM      7  C   UNL     1       1.013   9.317  20.130  0.00  0.00    +0.000 A 
ATOM      8  C   UNL     1       1.056   9.855  18.845  0.00  0.00    +0.000 A 
ATOM      9  C   UNL     1       1.706   9.145  17.840  0.00  0.00    +0.000 A 
ATOM     10  C   UNL     1       2.363   7.939  18.134  0.00  0.00    +0.000 A 
BRANCH   8  11
ATOM     11  O   UNL     1       0.362  11.015  18.694  0.00  0.00    +0.000 OA
BRANCH  11  12
ATOM     12  C   UNL     1      -1.009  10.975  18.328  0.00  0.00    +0.000 C 
ATOM     13  F   UNL     1      -1.497  12.136  17.847  0.00  0.00    +0.000 F 
ATOM     14  F   UNL     1      -1.182  10.016  17.392  0.00  0.00    +0.000 F 
ATOM     15  F   UNL     1      -1.738  10.635  19.415  0.00  0.00    +0.000 F 
ENDBRANCH  11  12
ENDBRANCH   8  11
ENDBRANCH   3   5
BRANCH   2  16
ATOM     16  S   UNL     1       3.565   3.745  20.316  0.00  0.00    +0.000 S 
BRANCH  16  17
ATOM     17  C   UNL     1       4.576   4.058  18.906  0.00  0.00    +0.000 A 
ATOM     18  C   UNL     1       5.826   4.646  18.864  0.00  0.00    +0.000 A 
ATOM     19  C   UNL     1       6.322   4.777  17.530  0.00  0.00    +0.000 A 
ATOM     20  C   UNL     1       5.443   4.242  16.626  0.00  0.00    +0.000 A 
ATOM     21 CL   UNL     1       5.629   4.190  14.921  0.00  0.00    +0.000 Cl
ATOM     22  S   UNL     1       4.057   3.587  17.338  0.00  0.00    +0.000 S 
ENDBRANCH  16  17
ENDBRANCH   2  16
TORSDOF 5
ENDMDL
MODEL 7
REMARK VINA RESULT:      -6.4      2.629      3.410
REMARK  Name = 
REMARK  5 active torsions:
REMARK  status: ('A' for Active; 'I' for Inactive)
REMARK    1  A    between atoms: C_2  and  S_15
REMARK    2  A    between atoms: N_3  and  C_4
REMARK    3  A    between atoms: C_7  and  O_8
REMARK    4  A    between atoms: O_8  and  C_9
REMARK    5  A    between atoms: S_15  and  C_16
REMARK                            x       y       z     vdW  Elec       q    Type
REMARK                         _______ _______ _______ _____ _____    ______ ____
ROOT
ATOM      1  O   UNL     1       5.159   6.835  17.460  0.00  0.00    +0.000 OA
ATOM      2  C   UNL     1       4.284   5.985  17.518  0.00  0.00    +0.000 C 
ATOM      3  N   UNL     1       3.005   6.126  18.001  0.00  0.00    +0.000 N 
ATOM      4  H   UNL     1       2.481   5.270  18.106  0.00  0.00    +0.000 HD
ENDROOT
BRANCH   3   5
ATOM      5  C   UNL     1       2.414   7.331  18.433  0.00  0.00    +0.000 A 
ATOM      6  C   UNL     1       2.208   8.419  17.584  0.00  0.00    +0.000 A 
ATOM      7  C   UNL     1       1.622   9.593  18.062  0.00  0.00    +0.000 A 
ATOM      8  C   UNL     1       1.222   9.701  19.392  0.00  0.00    +0.000 A 
ATOM      9  C   UNL     1       1.451   8.631  20.253  0.00  0.00    +0.000 A 
ATOM     10  C   UNL     1       2.017   7.440  19.769  0.00  0.00    +0.000 A 
BRANCH   8  11
ATOM     11  O   UNL     1       0.708  10.914  19.733  0.00  0.00    +0.000 OA
BRANCH  11  12
ATOM     12  C   UNL     1      -0.657  11.201  19.470  0.00  0.00    +0.000 C 
ATOM     13  F   UNL     1      -1.415  10.122  19.191  0.00  0.00    +0.000 F 
ATOM     14  F   UNL     1      -1.184  11.829  20.544  0.00  0.00    +0.000 F 
ATOM     15  F   UNL     1      -0.728  12.045  18.416  0.00  0.00    +0.000 F 
ENDBRANCH  11  12
ENDBRANCH   8  11
ENDBRANCH   3   5
BRANCH   2  16
ATOM     16  S   UNL     1       4.578   4.321  17.030  0.00  0.00    +0.000 S 
BRANCH  16  17
ATOM     17  C   UNL     1       3.407   3.524  18.079  0.00  0.00    +0.000 A 
ATOM     18  C   UNL     1       2.290   2.796  17.715  0.00  0.00    +0.000 A 
ATOM     19  C   UNL     1       1.547   2.336  18.846  0.00  0.00    +0.000 A 
ATOM     20  C   UNL     1       2.160   2.702  20.015  0.00  0.00    +0.000 A 
ATOM     21 CL   UNL     1       1.613   2.370  21.609  0.00  0.00    +0.000 Cl
ATOM     22  S   UNL     1       3.595   3.566  19.785  0.00  0.00    +0.000 S 
ENDBRANCH  16  17
ENDBRANCH   2  16
TORSDOF 5
ENDMDL
MODEL 8
REMARK VINA RESULT:      -6.4      1.308      1.838
REMARK  Name = 
REMARK  5 active torsions:
REMARK  status: ('A' for Active; 'I' for Inactive)
REMARK    1  A    between atoms: C_2  and  S_15
REMARK    2  A    between atoms: N_3  and  C_4
REMARK    3  A    between atoms: C_7  and  O_8
REMARK    4  A    between atoms: O_8  and  C_9
REMARK    5  A    between atoms: S_15  and  C_16
REMARK                            x       y       z     vdW  Elec       q    Type
REMARK                         _______ _______ _______ _____ _____    ______ ____
ROOT
ATOM      1  O   UNL     1       1.674   4.506  18.682  0.00  0.00    +0.000 OA
ATOM      2  C   UNL     1       2.766   4.834  19.120  0.00  0.00    +0.000 C 
ATOM      3  N   UNL     1       3.234   6.107  19.346  0.00  0.00    +0.000 N 
ATOM      4  H   UNL     1       4.217   6.178  19.566  0.00  0.00    +0.000 HD
ENDROOT
BRANCH   3   5
ATOM      5  C   UNL     1       2.489   7.296  19.212  0.00  0.00    +0.000 A 
ATOM      6  C   UNL     1       1.781   7.868  20.269  0.00  0.00    +0.000 A 
ATOM      7  C   UNL     1       1.054   9.046  20.084  0.00  0.00    +0.000 A 
ATOM      8  C   UNL     1       1.027   9.680  18.844  0.00  0.00    +0.000 A 
ATOM      9  C   UNL     1       1.706   9.100  17.777  0.00  0.00    +0.000 A 
ATOM     10  C   UNL     1       2.459   7.929  17.967  0.00  0.00    +0.000 A 
BRANCH   8  11
ATOM     11  O   UNL     1       0.244  10.792  18.793  0.00  0.00    +0.000 OA
BRANCH  11  12
ATOM     12  C   UNL     1       0.778  12.049  19.179  0.00  0.00    +0.000 C 
ATOM     13  F   UNL     1       0.584  12.368  20.474  0.00  0.00    +0.000 F 
ATOM     14  F   UNL     1       2.106  12.054  18.930  0.00  0.00    +0.000 F 
ATOM     15  F   UNL     1       0.207  13.013  18.423  0.00  0.00    +0.000 F 
ENDBRANCH  11  12
ENDBRANCH   8  11
ENDBRANCH   3   5
BRANCH   2  16
ATOM     16  S   UNL     1       4.014   3.647  19.477  0.00  0.00    +0.000 S 
BRANCH  16  17
ATOM     17  C   UNL     1       5.208   4.145  18.280  0.00  0.00    +0.000 A 
ATOM     18  C   UNL     1       6.464   4.680  18.497  0.00  0.00    +0.000 A 
ATOM     19  C   UNL     1       7.135   5.008  17.279  0.00  0.00    +0.000 A 
ATOM     20  C   UNL     1       6.373   4.667  16.194  0.00  0.00    +0.000 A 
ATOM     21 CL   UNL     1       6.781   4.889  14.541  0.00  0.00    +0.000 Cl
ATOM     22  S   UNL     1       4.892   3.961  16.603  0.00  0.00    +0.000 S 
ENDBRANCH  16  17
ENDBRANCH   2  16
TORSDOF 5
ENDMDL
MODEL 9
REMARK VINA RESULT:      -6.3      5.601      8.138
REMARK  Name = 
REMARK  5 active torsions:
REMARK  status: ('A' for Active; 'I' for Inactive)
REMARK    1  A    between atoms: C_2  and  S_15
REMARK    2  A    between atoms: N_3  and  C_4
REMARK    3  A    between atoms: C_7  and  O_8
REMARK    4  A    between atoms: O_8  and  C_9
REMARK    5  A    between atoms: S_15  and  C_16
REMARK                            x       y       z     vdW  Elec       q    Type
REMARK                         _______ _______ _______ _____ _____    ______ ____
ROOT
ATOM      1  O   UNL     1       1.828   9.091  17.304  0.00  0.00    +0.000 OA
ATOM      2  C   UNL     1       1.623   9.297  18.490  0.00  0.00    +0.000 C 
ATOM      3  N   UNL     1       1.751   8.409  19.532  0.00  0.00    +0.000 N 
ATOM      4  H   UNL     1       1.389   8.723  20.420  0.00  0.00    +0.000 HD
ENDROOT
BRANCH   3   5
ATOM      5  C   UNL     1       2.256   7.096  19.440  0.00  0.00    +0.000 A 
ATOM      6  C   UNL     1       3.148   6.696  18.444  0.00  0.00    +0.000 A 
ATOM      7  C   UNL     1       3.616   5.382  18.394  0.00  0.00    +0.000 A 
ATOM      8  C   UNL     1       3.211   4.444  19.341  0.00  0.00    +0.000 A 
ATOM      9  C   UNL     1       2.299   4.826  20.320  0.00  0.00    +0.000 A 
ATOM     10  C   UNL     1       1.846   6.154  20.388  0.00  0.00    +0.000 A 
BRANCH   8  11
ATOM     11  O   UNL     1       3.708   3.192  19.147  0.00  0.00    +0.000 OA
BRANCH  11  12
ATOM     12  C   UNL     1       2.875   2.179  18.604  0.00  0.00    +0.000 C 
ATOM     13  F   UNL     1       3.535   1.105  18.125  0.00  0.00    +0.000 F 
ATOM     14  F   UNL     1       2.016   1.763  19.561  0.00  0.00    +0.000 F 
ATOM     15  F   UNL     1       2.150   2.708  17.593  0.00  0.00    +0.000 F 
ENDBRANCH  11  12
ENDBRANCH   8  11
ENDBRANCH   3   5
BRANCH   2  16
ATOM     16  S   UNL     1       1.017  10.843  19.069  0.00  0.00    +0.000 S 
BRANCH  16  17
ATOM     17  C   UNL     1      -0.642  10.715  18.487  0.00  0.00    +0.000 A 
ATOM     18  C   UNL     1      -1.160   9.817  17.573  0.00  0.00    +0.000 A 
ATOM     19  C   UNL     1      -2.546  10.046  17.309  0.00  0.00    +0.000 A 
ATOM     20  C   UNL     1      -3.024  11.081  18.068  0.00  0.00    +0.000 A 
ATOM     21 CL   UNL     1      -4.624  11.703  18.067  0.00  0.00    +0.000 Cl
ATOM     22  S   UNL     1      -1.860  11.768  19.085  0.00  0.00    +0.000 S 
ENDBRANCH  16  17
ENDBRANCH   2  16
TORSDOF 5
ENDMDL
