MODEL 1
REMARK VINA RESULT:      -9.0      0.000      0.000
REMARK  Name = 
REMARK  5 active torsions:
REMARK  status: ('A' for Active; 'I' for Inactive)
REMARK    1  A    between atoms: C_2  and  C_4
REMARK    2  A    between atoms: C_5  and  N_6
REMARK    3  A    between atoms: N_9  and  C_10
REMARK    4  A    between atoms: N_22  and  C_23
REMARK    5  A    between atoms: C_23  and  C_24
REMARK                            x       y       z     vdW  Elec       q    Type
REMARK                         _______ _______ _______ _____ _____    ______ ____
ROOT
ATOM      1  C   UNL     1       4.214   4.753  18.956  0.00  0.00    +0.000 A 
ATOM      2  C   UNL     1       3.402   5.855  19.153  0.00  0.00    +0.000 A 
ATOM      3  S   UNL     1       3.551   7.042  17.950  0.00  0.00    +0.000 S 
ATOM      4  C   UNL     1       4.868   6.226  17.259  0.00  0.00    +0.000 A 
ATOM      5  C   UNL     1       5.169   5.038  17.907  0.00  0.00    +0.000 A 
ATOM      6  C   UNL     1       6.291   4.173  17.394  0.00  0.00    +0.000 C 
ATOM      7  C   UNL     1       7.123   4.904  16.309  0.00  0.00    +0.000 C 
ATOM      8  N   UNL     1       6.317   5.679  15.331  0.00  0.00    +0.000 NA
ATOM      9  C   UNL     1       5.600   6.755  16.059  0.00  0.00    +0.000 C 
ENDROOT
BRANCH   2  10
ATOM     10  N   UNL     1       2.505   6.180  20.153  0.00  0.00    +0.000 N 
ATOM     11  C   UNL     1       1.964   7.462  20.143  0.00  0.00    +0.000 C 
ATOM     12  O   UNL     1       2.165   8.283  19.251  0.00  0.00    +0.000 OA
ATOM     13  N   UNL     1       1.163   7.672  21.254  0.00  0.00    +0.000 N 
ATOM     14  H   UNL     1       1.866   5.446  20.428  0.00  0.00    +0.000 HD
ATOM     15  H   UNL     1       1.418   7.119  22.061  0.00  0.00    +0.000 HD
BRANCH  13  16
ATOM     16  C   UNL     1       0.408   8.839  21.489  0.00  0.00    +0.000 A 
ATOM     17  C   UNL     1       0.002   9.707  20.468  0.00  0.00    +0.000 A 
ATOM     18  C   UNL     1      -0.679  10.890  20.765  0.00  0.00    +0.000 A 
ATOM     19  C   UNL     1      -0.969  11.206  22.089  0.00  0.00    +0.000 A 
ATOM     20 CL   UNL     1      -1.748  12.694  22.463  0.00  0.00    +0.000 Cl
ATOM     21  C   UNL     1      -0.617  10.328  23.111  0.00  0.00    +0.000 A 
ATOM     22  C   UNL     1       0.057   9.142  22.814  0.00  0.00    +0.000 A 
ENDBRANCH  13  16
ENDBRANCH   2  10
BRANCH   1  24
ATOM     23  N   UNL     1       5.141   2.734  19.882  0.00  0.00    +0.000 N 
ATOM     24  C   UNL     1       4.026   3.491  19.681  0.00  0.00    +0.000 C 
ATOM     25  O   UNL     1       2.933   3.090  20.066  0.00  0.00    +0.000 OA
ATOM     26  H   UNL     1       4.995   1.938  20.487  0.00  0.00    +0.000 HD
ATOM     27  H   UNL     1       6.029   3.205  19.961  0.00  0.00    +0.000 HD
ENDBRANCH   1  24
BRANCH   8  28
ATOM     28  C   UNL     1       5.427   4.781  14.566  0.00  0.00    +0.000 C 
BRANCH  28  29
ATOM     29  C   UNL     1       6.190   3.816  13.662  0.00  0.00    +0.000 C 
ATOM     30  C   UNL     1       5.447   3.291  12.412  0.00  0.00    +0.000 C 
ATOM     31  C   UNL     1       6.769   3.437  11.635  0.00  0.00    +0.000 C 
ATOM     32  C   UNL     1       7.215   4.462  12.695  0.00  0.00    +0.000 C 
ENDBRANCH  28  29
ENDBRANCH   8  28
TORSDOF 5
ENDMDL
MODEL 2
REMARK VINA RESULT:      -8.8      4.775     10.890
REMARK  Name = 
REMARK  5 active torsions:
REMARK  status: ('A' for Active; 'I' for Inactive)
REMARK    1  A    between atoms: C_2  and  C_4
REMARK    2  A    between atoms: C_5  and  N_6
REMARK    3  A    between atoms: N_9  and  C_10
REMARK    4  A    between atoms: N_22  and  C_23
REMARK    5  A    between atoms: C_23  and  C_24
REMARK                            x       y       z     vdW  Elec       q    Type
REMARK                         _______ _______ _______ _____ _____    ______ ____
ROOT
ATOM      1  C   UNL     1       0.173  12.095  21.115  0.00  0.00    +0.000 A 
ATOM      2  C   UNL     1       0.225  10.912  21.832  0.00  0.00    +0.000 A 
ATOM      3  S   UNL     1      -1.055  10.717  22.929  0.00  0.00    +0.000 S 
ATOM      4  C   UNL     1      -1.584  12.305  22.646  0.00  0.00    +0.000 A 
ATOM      5  C   UNL     1      -0.825  12.967  21.694  0.00  0.00    +0.000 A 
ATOM      6  C   UNL     1      -1.188  14.375  21.300  0.00  0.00    +0.000 C 
ATOM      7  C   UNL     1      -2.265  14.970  22.241  0.00  0.00    +0.000 C 
ATOM      8  N   UNL     1      -3.356  14.030  22.605  0.00  0.00    +0.000 NA
ATOM      9  C   UNL     1      -2.768  12.894  23.358  0.00  0.00    +0.000 C 
ENDROOT
BRANCH   2  10
ATOM     10  N   UNL     1       1.130   9.868  21.837  0.00  0.00    +0.000 N 
ATOM     11  C   UNL     1       1.008   8.904  20.841  0.00  0.00    +0.000 C 
ATOM     12  O   UNL     1       0.207   8.976  19.913  0.00  0.00    +0.000 OA
ATOM     13  N   UNL     1       1.917   7.876  21.031  0.00  0.00    +0.000 N 
ATOM     14  H   UNL     1       2.080  10.110  22.086  0.00  0.00    +0.000 HD
ATOM     15  H   UNL     1       2.190   7.734  21.994  0.00  0.00    +0.000 HD
BRANCH  13  16
ATOM     16  C   UNL     1       2.100   6.793  20.147  0.00  0.00    +0.000 A 
ATOM     17  C   UNL     1       2.662   6.932  18.872  0.00  0.00    +0.000 A 
ATOM     18  C   UNL     1       2.748   5.838  18.006  0.00  0.00    +0.000 A 
ATOM     19  C   UNL     1       2.282   4.594  18.418  0.00  0.00    +0.000 A 
ATOM     20 CL   UNL     1       2.326   3.260  17.331  0.00  0.00    +0.000 Cl
ATOM     21  C   UNL     1       1.768   4.428  19.702  0.00  0.00    +0.000 A 
ATOM     22  C   UNL     1       1.688   5.520  20.570  0.00  0.00    +0.000 A 
ENDBRANCH  13  16
ENDBRANCH   2  10
BRANCH   1  24
ATOM     23  N   UNL     1       0.492  11.822  18.746  0.00  0.00    +0.000 N 
ATOM     24  C   UNL     1       0.981  12.326  19.912  0.00  0.00    +0.000 C 
ATOM     25  O   UNL     1       2.063  12.904  19.927  0.00  0.00    +0.000 OA
ATOM     26  H   UNL     1       1.010  12.104  17.925  0.00  0.00    +0.000 HD
ATOM     27  H   UNL     1      -0.509  11.742  18.644  0.00  0.00    +0.000 HD
ENDBRANCH   1  24
BRANCH   8  28
ATOM     28  C   UNL     1      -4.109  13.620  21.400  0.00  0.00    +0.000 C 
BRANCH  28  29
ATOM     29  C   UNL     1      -5.215  12.614  21.704  0.00  0.00    +0.000 C 
ATOM     30  C   UNL     1      -6.567  13.185  22.194  0.00  0.00    +0.000 C 
ATOM     31  C   UNL     1      -7.266  12.128  21.319  0.00  0.00    +0.000 C 
ATOM     32  C   UNL     1      -5.977  12.053  20.476  0.00  0.00    +0.000 C 
ENDBRANCH  28  29
ENDBRANCH   8  28
TORSDOF 5
ENDMDL
MODEL 3
REMARK VINA RESULT:      -8.8      4.734     11.180
REMARK  Name = 
REMARK  5 active torsions:
REMARK  status: ('A' for Active; 'I' for Inactive)
REMARK    1  A    between atoms: C_2  and  C_4
REMARK    2  A    between atoms: C_5  and  N_6
REMARK    3  A    between atoms: N_9  and  C_10
REMARK    4  A    between atoms: N_22  and  C_23
REMARK    5  A    between atoms: C_23  and  C_24
REMARK                            x       y       z     vdW  Elec       q    Type
REMARK                         _______ _______ _______ _____ _____    ______ ____
ROOT
ATOM      1  C   UNL     1      -0.196  11.885  21.139  0.00  0.00    +0.000 A 
ATOM      2  C   UNL     1       0.079  10.730  21.850  0.00  0.00    +0.000 A 
ATOM      3  S   UNL     1      -1.036  10.401  23.085  0.00  0.00    +0.000 S 
ATOM      4  C   UNL     1      -1.783  11.908  22.859  0.00  0.00    +0.000 A 
ATOM      5  C   UNL     1      -1.221  12.640  21.825  0.00  0.00    +0.000 A 
ATOM      6  C   UNL     1      -1.794  13.988  21.470  0.00  0.00    +0.000 C 
ATOM      7  C   UNL     1      -2.824  14.465  22.525  0.00  0.00    +0.000 C 
ATOM      8  N   UNL     1      -3.744  13.406  23.013  0.00  0.00    +0.000 NA
ATOM      9  C   UNL     1      -2.942  12.363  23.699  0.00  0.00    +0.000 C 
ENDROOT
BRANCH   2  10
ATOM     10  N   UNL     1       1.100   9.803  21.755  0.00  0.00    +0.000 N 
ATOM     11  C   UNL     1       0.935   8.751  20.858  0.00  0.00    +0.000 C 
ATOM     12  O   UNL     1      -0.016   8.652  20.086  0.00  0.00    +0.000 OA
ATOM     13  N   UNL     1       1.989   7.856  20.943  0.00  0.00    +0.000 N 
ATOM     14  H   UNL     1       2.039  10.173  21.815  0.00  0.00    +0.000 HD
ATOM     15  H   UNL     1       2.438   7.827  21.848  0.00  0.00    +0.000 HD
BRANCH  13  16
ATOM     16  C   UNL     1       2.156   6.732  20.108  0.00  0.00    +0.000 A 
ATOM     17  C   UNL     1       2.707   6.809  18.823  0.00  0.00    +0.000 A 
ATOM     18  C   UNL     1       2.779   5.676  18.008  0.00  0.00    +0.000 A 
ATOM     19  C   UNL     1       2.309   4.455  18.481  0.00  0.00    +0.000 A 
ATOM     20 CL   UNL     1       2.334   3.073  17.456  0.00  0.00    +0.000 Cl
ATOM     21  C   UNL     1       1.805   4.352  19.776  0.00  0.00    +0.000 A 
ATOM     22  C   UNL     1       1.740   5.483  20.593  0.00  0.00    +0.000 A 
ENDBRANCH  13  16
ENDBRANCH   2  10
BRANCH   1  24
ATOM     23  N   UNL     1       1.599  12.903  19.901  0.00  0.00    +0.000 N 
ATOM     24  C   UNL     1       0.438  12.192  19.852  0.00  0.00    +0.000 C 
ATOM     25  O   UNL     1      -0.044  11.875  18.769  0.00  0.00    +0.000 OA
ATOM     26  H   UNL     1       2.067  12.990  19.010  0.00  0.00    +0.000 HD
ATOM     27  H   UNL     1       2.188  12.798  20.714  0.00  0.00    +0.000 HD
ENDBRANCH   1  24
BRANCH   8  28
ATOM     28  C   UNL     1      -4.572  12.888  21.903  0.00  0.00    +0.000 C 
BRANCH  28  29
ATOM     29  C   UNL     1      -6.062  13.160  22.097  0.00  0.00    +0.000 C 
ATOM     30  C   UNL     1      -7.045  12.123  21.503  0.00  0.00    +0.000 C 
ATOM     31  C   UNL     1      -7.903  12.297  22.770  0.00  0.00    +0.000 C 
ATOM     32  C   UNL     1      -6.639  12.804  23.491  0.00  0.00    +0.000 C 
ENDBRANCH  28  29
ENDBRANCH   8  28
TORSDOF 5
ENDMDL
MODEL 4
REMARK VINA RESULT:      -8.8      2.258      2.448
REMARK  Name = 
REMARK  5 active torsions:
REMARK  status: ('A' for Active; 'I' for Inactive)
REMARK    1  A    between atoms: C_2  and  C_4
REMARK    2  A    between atoms: C_5  and  N_6
REMARK    3  A    between atoms: N_9  and  C_10
REMARK    4  A    between atoms: N_22  and  C_23
REMARK    5  A    between atoms: C_23  and  C_24
REMARK                            x       y       z     vdW  Elec       q    Type
REMARK                         _______ _______ _______ _____ _____    ______ ____
ROOT
ATOM      1  C   UNL     1       2.892   5.315  17.876  0.00  0.00    +0.000 A 
ATOM      2  C   UNL     1       2.950   6.647  18.247  0.00  0.00    +0.000 A 
ATOM      3  S   UNL     1       4.293   7.475  17.623  0.00  0.00    +0.000 S 
ATOM      4  C   UNL     1       4.955   6.028  17.034  0.00  0.00    +0.000 A 
ATOM      5  C   UNL     1       4.146   4.928  17.269  0.00  0.00    +0.000 A 
ATOM      6  C   UNL     1       4.573   3.570  16.774  0.00  0.00    +0.000 C 
ATOM      7  C   UNL     1       6.036   3.585  16.263  0.00  0.00    +0.000 C 
ATOM      8  N   UNL     1       6.397   4.781  15.459  0.00  0.00    +0.000 NA
ATOM      9  C   UNL     1       6.277   5.982  16.321  0.00  0.00    +0.000 C 
ENDROOT
BRANCH   2  10
ATOM     10  N   UNL     1       2.132   7.426  19.043  0.00  0.00    +0.000 N 
ATOM     11  C   UNL     1       1.874   8.727  18.625  0.00  0.00    +0.000 C 
ATOM     12  O   UNL     1       2.253   9.190  17.551  0.00  0.00    +0.000 OA
ATOM     13  N   UNL     1       1.123   9.412  19.566  0.00  0.00    +0.000 N 
ATOM     14  H   UNL     1       1.349   6.949  19.470  0.00  0.00    +0.000 HD
ATOM     15  H   UNL     1       1.246   9.084  20.515  0.00  0.00    +0.000 HD
BRANCH  13  16
ATOM     16  C   UNL     1       0.629  10.723  19.400  0.00  0.00    +0.000 A 
ATOM     17  C   UNL     1      -0.469  11.028  18.587  0.00  0.00    +0.000 A 
ATOM     18  C   UNL     1      -0.870  12.353  18.396  0.00  0.00    +0.000 A 
ATOM     19  C   UNL     1      -0.178  13.381  19.030  0.00  0.00    +0.000 A 
ATOM     20 CL   UNL     1      -0.626  15.018  18.745  0.00  0.00    +0.000 Cl
ATOM     21  C   UNL     1       0.885  13.089  19.882  0.00  0.00    +0.000 A 
ATOM     22  C   UNL     1       1.280  11.764  20.078  0.00  0.00    +0.000 A 
ENDBRANCH  13  16
ENDBRANCH   2  10
BRANCH   1  24
ATOM     23  N   UNL     1       1.452   3.988  19.275  0.00  0.00    +0.000 N 
ATOM     24  C   UNL     1       1.680   4.502  18.035  0.00  0.00    +0.000 C 
ATOM     25  O   UNL     1       0.913   4.247  17.112  0.00  0.00    +0.000 OA
ATOM     26  H   UNL     1       0.553   3.539  19.376  0.00  0.00    +0.000 HD
ATOM     27  H   UNL     1       1.794   4.500  20.074  0.00  0.00    +0.000 HD
ENDBRANCH   1  24
BRANCH   8  28
ATOM     28  C   UNL     1       5.579   4.844  14.229  0.00  0.00    +0.000 C 
BRANCH  28  29
ATOM     29  C   UNL     1       5.661   3.570  13.394  0.00  0.00    +0.000 C 
ATOM     30  C   UNL     1       4.608   3.398  12.274  0.00  0.00    +0.000 C 
ATOM     31  C   UNL     1       5.728   2.817  11.390  0.00  0.00    +0.000 C 
ATOM     32  C   UNL     1       6.743   3.556  12.284  0.00  0.00    +0.000 C 
ENDBRANCH  28  29
ENDBRANCH   8  28
TORSDOF 5
ENDMDL
MODEL 5
REMARK VINA RESULT:      -8.7      4.700     11.303
REMARK  Name = 
REMARK  5 active torsions:
REMARK  status: ('A' for Active; 'I' for Inactive)
REMARK    1  A    between atoms: C_2  and  C_4
REMARK    2  A    between atoms: C_5  and  N_6
REMARK    3  A    between atoms: N_9  and  C_10
REMARK    4  A    between atoms: N_22  and  C_23
REMARK    5  A    between atoms: C_23  and  C_24
REMARK                            x       y       z     vdW  Elec       q    Type
REMARK                         _______ _______ _______ _____ _____    ______ ____
ROOT
ATOM      1  C   UNL     1      -0.099  11.821  20.993  0.00  0.00    +0.000 A 
ATOM      2  C   UNL     1       0.182  10.693  21.744  0.00  0.00    +0.000 A 
ATOM      3  S   UNL     1      -0.882  10.449  23.043  0.00  0.00    +0.000 S 
ATOM      4  C   UNL     1      -1.604  11.962  22.780  0.00  0.00    +0.000 A 
ATOM      5  C   UNL     1      -1.074  12.632  21.688  0.00  0.00    +0.000 A 
ATOM      6  C   UNL     1      -1.633  13.975  21.297  0.00  0.00    +0.000 C 
ATOM      7  C   UNL     1      -2.601  14.526  22.374  0.00  0.00    +0.000 C 
ATOM      8  N   UNL     1      -3.522  13.514  22.952  0.00  0.00    +0.000 NA
ATOM      9  C   UNL     1      -2.713  12.484  23.649  0.00  0.00    +0.000 C 
ENDROOT
BRANCH   2  10
ATOM     10  N   UNL     1       1.175   9.737  21.647  0.00  0.00    +0.000 N 
ATOM     11  C   UNL     1       0.956   8.663  20.790  0.00  0.00    +0.000 C 
ATOM     12  O   UNL     1      -0.022   8.564  20.052  0.00  0.00    +0.000 OA
ATOM     13  N   UNL     1       1.989   7.744  20.871  0.00  0.00    +0.000 N 
ATOM     14  H   UNL     1       2.125  10.085  21.665  0.00  0.00    +0.000 HD
ATOM     15  H   UNL     1       2.467   7.732  21.762  0.00  0.00    +0.000 HD
BRANCH  13  16
ATOM     16  C   UNL     1       2.102   6.590  20.068  0.00  0.00    +0.000 A 
ATOM     17  C   UNL     1       1.666   5.325  20.481  0.00  0.00    +0.000 A 
ATOM     18  C   UNL     1       1.872   4.201  19.676  0.00  0.00    +0.000 A 
ATOM     19  C   UNL     1       2.506   4.341  18.445  0.00  0.00    +0.000 A 
ATOM     20 CL   UNL     1       2.821   2.950  17.481  0.00  0.00    +0.000 Cl
ATOM     21  C   UNL     1       2.898   5.601  17.998  0.00  0.00    +0.000 A 
ATOM     22  C   UNL     1       2.686   6.725  18.799  0.00  0.00    +0.000 A 
ENDBRANCH  13  16
ENDBRANCH   2  10
BRANCH   1  24
ATOM     23  N   UNL     1      -0.107  11.401  18.624  0.00  0.00    +0.000 N 
ATOM     24  C   UNL     1       0.481  12.052  19.666  0.00  0.00    +0.000 C 
ATOM     25  O   UNL     1       1.467  12.756  19.473  0.00  0.00    +0.000 OA
ATOM     26  H   UNL     1       0.240  11.678  17.716  0.00  0.00    +0.000 HD
ATOM     27  H   UNL     1      -1.093  11.193  18.687  0.00  0.00    +0.000 HD
ENDBRANCH   1  24
BRANCH   8  28
ATOM     28  C   UNL     1      -4.412  12.967  21.906  0.00  0.00    +0.000 C 
BRANCH  28  29
ATOM     29  C   UNL     1      -5.891  13.193  22.206  0.00  0.00    +0.000 C 
ATOM     30  C   UNL     1      -6.383  12.819  23.625  0.00  0.00    +0.000 C 
ATOM     31  C   UNL     1      -7.257  14.087  23.593  0.00  0.00    +0.000 C 
ATOM     32  C   UNL     1      -6.302  14.654  22.525  0.00  0.00    +0.000 C 
ENDBRANCH  28  29
ENDBRANCH   8  28
TORSDOF 5
ENDMDL
MODEL 6
REMARK VINA RESULT:      -8.6      0.598      1.090
REMARK  Name = 
REMARK  5 active torsions:
REMARK  status: ('A' for Active; 'I' for Inactive)
REMARK    1  A    between atoms: C_2  and  C_4
REMARK    2  A    between atoms: C_5  and  N_6
REMARK    3  A    between atoms: N_9  and  C_10
REMARK    4  A    between atoms: N_22  and  C_23
REMARK    5  A    between atoms: C_23  and  C_24
REMARK                            x       y       z     vdW  Elec       q    Type
REMARK                         _______ _______ _______ _____ _____    ______ ____
ROOT
ATOM      1  C   UNL     1       3.751   4.817  19.118  0.00  0.00    +0.000 A 
ATOM      2  C   UNL     1       2.994   5.965  19.270  0.00  0.00    +0.000 A 
ATOM      3  S   UNL     1       3.358   7.183  18.146  0.00  0.00    +0.000 S 
ATOM      4  C   UNL     1       4.691   6.303  17.573  0.00  0.00    +0.000 A 
ATOM      5  C   UNL     1       4.837   5.074  18.198  0.00  0.00    +0.000 A 
ATOM      6  C   UNL     1       5.953   4.153  17.777  0.00  0.00    +0.000 C 
ATOM      7  C   UNL     1       6.951   4.864  16.827  0.00  0.00    +0.000 C 
ATOM      8  N   UNL     1       6.316   5.728  15.799  0.00  0.00    +0.000 NA
ATOM      9  C   UNL     1       5.590   6.824  16.488  0.00  0.00    +0.000 C 
ENDROOT
BRANCH   2  10
ATOM     10  N   UNL     1       2.011   6.315  20.176  0.00  0.00    +0.000 N 
ATOM     11  C   UNL     1       1.662   7.659  20.263  0.00  0.00    +0.000 C 
ATOM     12  O   UNL     1       2.108   8.532  19.523  0.00  0.00    +0.000 OA
ATOM     13  N   UNL     1       0.739   7.868  21.275  0.00  0.00    +0.000 N 
ATOM     14  H   UNL     1       1.241   5.665  20.263  0.00  0.00    +0.000 HD
ATOM     15  H   UNL     1       0.788   7.195  22.028  0.00  0.00    +0.000 HD
BRANCH  13  16
ATOM     16  C   UNL     1       0.127   9.106  21.560  0.00  0.00    +0.000 A 
ATOM     17  C   UNL     1      -0.172   9.531  22.861  0.00  0.00    +0.000 A 
ATOM     18  C   UNL     1      -0.849  10.733  23.081  0.00  0.00    +0.000 A 
ATOM     19  C   UNL     1      -1.221  11.524  21.998  0.00  0.00    +0.000 A 
ATOM     20 CL   UNL     1      -2.113  12.972  22.262  0.00  0.00    +0.000 Cl
ATOM     21  C   UNL     1      -0.885  11.140  20.702  0.00  0.00    +0.000 A 
ATOM     22  C   UNL     1      -0.202   9.942  20.482  0.00  0.00    +0.000 A 
ENDBRANCH  13  16
ENDBRANCH   2  10
BRANCH   1  24
ATOM     23  N   UNL     1       3.373   2.446  18.958  0.00  0.00    +0.000 N 
ATOM     24  C   UNL     1       3.399   3.546  19.761  0.00  0.00    +0.000 C 
ATOM     25  O   UNL     1       3.100   3.449  20.946  0.00  0.00    +0.000 OA
ATOM     26  H   UNL     1       3.247   1.576  19.455  0.00  0.00    +0.000 HD
ATOM     27  H   UNL     1       3.988   2.425  18.158  0.00  0.00    +0.000 HD
ENDBRANCH   1  24
BRANCH   8  28
ATOM     28  C   UNL     1       5.464   4.922  14.899  0.00  0.00    +0.000 C 
BRANCH  28  29
ATOM     29  C   UNL     1       6.269   3.990  13.997  0.00  0.00    +0.000 C 
ATOM     30  C   UNL     1       5.573   3.488  12.710  0.00  0.00    +0.000 C 
ATOM     31  C   UNL     1       6.918   3.668  11.981  0.00  0.00    +0.000 C 
ATOM     32  C   UNL     1       7.317   4.671  13.081  0.00  0.00    +0.000 C 
ENDBRANCH  28  29
ENDBRANCH   8  28
TORSDOF 5
ENDMDL
MODEL 7
REMARK VINA RESULT:      -8.6      4.446     10.976
REMARK  Name = 
REMARK  5 active torsions:
REMARK  status: ('A' for Active; 'I' for Inactive)
REMARK    1  A    between atoms: C_2  and  C_4
REMARK    2  A    between atoms: C_5  and  N_6
REMARK    3  A    between atoms: N_9  and  C_10
REMARK    4  A    between atoms: N_22  and  C_23
REMARK    5  A    between atoms: C_23  and  C_24
REMARK                            x       y       z     vdW  Elec       q    Type
REMARK                         _______ _______ _______ _____ _____    ______ ____
ROOT
ATOM      1  C   UNL     1      -0.828  11.844  18.942  0.00  0.00    +0.000 A 
ATOM      2  C   UNL     1       0.496  11.467  19.084  0.00  0.00    +0.000 A 
ATOM      3  S   UNL     1       1.217  12.017  20.518  0.00  0.00    +0.000 S 
ATOM      4  C   UNL     1      -0.144  12.965  20.878  0.00  0.00    +0.000 A 
ATOM      5  C   UNL     1      -1.158  12.835  19.942  0.00  0.00    +0.000 A 
ATOM      6  C   UNL     1      -2.451  13.583  20.136  0.00  0.00    +0.000 C 
ATOM      7  C   UNL     1      -2.345  14.615  21.288  0.00  0.00    +0.000 C 
ATOM      8  N   UNL     1      -1.618  14.127  22.488  0.00  0.00    +0.000 NA
ATOM      9  C   UNL     1      -0.216  13.832  22.103  0.00  0.00    +0.000 C 
ENDROOT
BRANCH   2  10
ATOM     10  N   UNL     1       1.347  10.743  18.271  0.00  0.00    +0.000 N 
ATOM     11  C   UNL     1       1.593   9.417  18.613  0.00  0.00    +0.000 C 
ATOM     12  O   UNL     1       1.030   8.832  19.534  0.00  0.00    +0.000 OA
ATOM     13  N   UNL     1       2.534   8.853  17.767  0.00  0.00    +0.000 N 
ATOM     14  H   UNL     1       1.269  10.924  17.279  0.00  0.00    +0.000 HD
ATOM     15  H   UNL     1       3.185   9.515  17.367  0.00  0.00    +0.000 HD
BRANCH  13  16
ATOM     16  C   UNL     1       2.935   7.501  17.801  0.00  0.00    +0.000 A 
ATOM     17  C   UNL     1       4.217   7.074  17.432  0.00  0.00    +0.000 A 
ATOM     18  C   UNL     1       4.537   5.713  17.411  0.00  0.00    +0.000 A 
ATOM     19  C   UNL     1       3.577   4.773  17.771  0.00  0.00    +0.000 A 
ATOM     20 CL   UNL     1       3.947   3.094  17.682  0.00  0.00    +0.000 Cl
ATOM     21  C   UNL     1       2.313   5.186  18.189  0.00  0.00    +0.000 A 
ATOM     22  C   UNL     1       1.996   6.545  18.217  0.00  0.00    +0.000 A 
ENDBRANCH  13  16
ENDBRANCH   2  10
BRANCH   1  24
ATOM     23  N   UNL     1      -1.993  11.965  16.839  0.00  0.00    +0.000 N 
ATOM     24  C   UNL     1      -1.724  11.230  17.955  0.00  0.00    +0.000 C 
ATOM     25  O   UNL     1      -2.251  10.134  18.111  0.00  0.00    +0.000 OA
ATOM     26  H   UNL     1      -2.511  11.464  16.131  0.00  0.00    +0.000 HD
ATOM     27  H   UNL     1      -1.290  12.611  16.513  0.00  0.00    +0.000 HD
ENDBRANCH   1  24
BRANCH   8  28
ATOM     28  C   UNL     1      -2.326  12.977  23.091  0.00  0.00    +0.000 C 
BRANCH  28  29
ATOM     29  C   UNL     1      -3.684  13.355  23.674  0.00  0.00    +0.000 C 
ATOM     30  C   UNL     1      -4.933  12.973  22.845  0.00  0.00    +0.000 C 
ATOM     31  C   UNL     1      -5.626  12.596  24.168  0.00  0.00    +0.000 C 
ATOM     32  C   UNL     1      -4.226  12.423  24.788  0.00  0.00    +0.000 C 
ENDBRANCH  28  29
ENDBRANCH   8  28
TORSDOF 5
ENDMDL
MODEL 8
REMARK VINA RESULT:      -8.5      4.479     10.948
REMARK  Name = 
REMARK  5 active torsions:
REMARK  status: ('A' for Active; 'I' for Inactive)
REMARK    1  A    between atoms: C_2  and  C_4
REMARK    2  A    between atoms: C_5  and  N_6
REMARK    3  A    between atoms: N_9  and  C_10
REMARK    4  A    between atoms: N_22  and  C_23
REMARK    5  A    between atoms: C_23  and  C_24
REMARK                            x       y       z     vdW  Elec       q    Type
REMARK                         _______ _______ _______ _____ _____    ______ ____
ROOT
ATOM      1  C   UNL     1      -1.017  11.613  18.810  0.00  0.00    +0.000 A 
ATOM      2  C   UNL     1       0.281  11.152  18.950  0.00  0.00    +0.000 A 
ATOM      3  S   UNL     1       1.036  11.651  20.385  0.00  0.00    +0.000 S 
ATOM      4  C   UNL     1      -0.261  12.683  20.750  0.00  0.00    +0.000 A 
ATOM      5  C   UNL     1      -1.282  12.620  19.814  0.00  0.00    +0.000 A 
ATOM      6  C   UNL     1      -2.525  13.448  20.011  0.00  0.00    +0.000 C 
ATOM      7  C   UNL     1      -2.352  14.467  21.166  0.00  0.00    +0.000 C 
ATOM      8  N   UNL     1      -1.657  13.931  22.364  0.00  0.00    +0.000 NA
ATOM      9  C   UNL     1      -0.277  13.549  21.977  0.00  0.00    +0.000 C 
ENDROOT
BRANCH   2  10
ATOM     10  N   UNL     1       1.083  10.378  18.134  0.00  0.00    +0.000 N 
ATOM     11  C   UNL     1       1.525   9.157  18.635  0.00  0.00    +0.000 C 
ATOM     12  O   UNL     1       1.170   8.691  19.715  0.00  0.00    +0.000 OA
ATOM     13  N   UNL     1       2.394   8.541  17.748  0.00  0.00    +0.000 N 
ATOM     14  H   UNL     1       0.844  10.378  17.152  0.00  0.00    +0.000 HD
ATOM     15  H   UNL     1       2.900   9.180  17.151  0.00  0.00    +0.000 HD
BRANCH  13  16
ATOM     16  C   UNL     1       2.947   7.257  17.928  0.00  0.00    +0.000 A 
ATOM     17  C   UNL     1       2.174   6.125  18.218  0.00  0.00    +0.000 A 
ATOM     18  C   UNL     1       2.781   4.890  18.463  0.00  0.00    +0.000 A 
ATOM     19  C   UNL     1       4.167   4.779  18.407  0.00  0.00    +0.000 A 
ATOM     20 CL   UNL     1       4.921   3.276  18.774  0.00  0.00    +0.000 Cl
ATOM     21  C   UNL     1       4.945   5.885  18.070  0.00  0.00    +0.000 A 
ATOM     22  C   UNL     1       4.338   7.117  17.818  0.00  0.00    +0.000 A 
ENDBRANCH  13  16
ENDBRANCH   2  10
BRANCH   1  24
ATOM     23  N   UNL     1      -2.204  11.831  16.729  0.00  0.00    +0.000 N 
ATOM     24  C   UNL     1      -1.951  11.060  17.822  0.00  0.00    +0.000 C 
ATOM     25  O   UNL     1      -2.521   9.982  17.961  0.00  0.00    +0.000 OA
ATOM     26  H   UNL     1      -2.752  11.369  16.017  0.00  0.00    +0.000 HD
ATOM     27  H   UNL     1      -1.479  12.455  16.408  0.00  0.00    +0.000 HD
ENDBRANCH   1  24
BRANCH   8  28
ATOM     28  C   UNL     1      -2.436  12.827  22.964  0.00  0.00    +0.000 C 
BRANCH  28  29
ATOM     29  C   UNL     1      -3.741  13.298  23.601  0.00  0.00    +0.000 C 
ATOM     30  C   UNL     1      -5.046  13.002  22.825  0.00  0.00    +0.000 C 
ATOM     31  C   UNL     1      -5.708  12.675  24.176  0.00  0.00    +0.000 C 
ATOM     32  C   UNL     1      -4.299  12.406  24.740  0.00  0.00    +0.000 C 
ENDBRANCH  28  29
ENDBRANCH   8  28
TORSDOF 5
ENDMDL
MODEL 9
REMARK VINA RESULT:      -8.5      1.917      2.094
REMARK  Name = 
REMARK  5 active torsions:
REMARK  status: ('A' for Active; 'I' for Inactive)
REMARK    1  A    between atoms: C_2  and  C_4
REMARK    2  A    between atoms: C_5  and  N_6
REMARK    3  A    between atoms: N_9  and  C_10
REMARK    4  A    between atoms: N_22  and  C_23
REMARK    5  A    between atoms: C_23  and  C_24
REMARK                            x       y       z     vdW  Elec       q    Type
REMARK                         _______ _______ _______ _____ _____    ______ ____
ROOT
ATOM      1  C   UNL     1       3.044   5.070  17.984  0.00  0.00    +0.000 A 
ATOM      2  C   UNL     1       3.086   6.376  18.440  0.00  0.00    +0.000 A 
ATOM      3  S   UNL     1       4.382   7.278  17.821  0.00  0.00    +0.000 S 
ATOM      4  C   UNL     1       5.054   5.891  17.111  0.00  0.00    +0.000 A 
ATOM      5  C   UNL     1       4.280   4.756  17.303  0.00  0.00    +0.000 A 
ATOM      6  C   UNL     1       4.719   3.446  16.702  0.00  0.00    +0.000 C 
ATOM      7  C   UNL     1       6.159   3.533  16.135  0.00  0.00    +0.000 C 
ATOM      8  N   UNL     1       6.458   4.788  15.400  0.00  0.00    +0.000 NA
ATOM      9  C   UNL     1       6.346   5.926  16.345  0.00  0.00    +0.000 C 
ENDROOT
BRANCH   2  10
ATOM     10  N   UNL     1       2.283   7.079  19.319  0.00  0.00    +0.000 N 
ATOM     11  C   UNL     1       1.894   8.363  18.950  0.00  0.00    +0.000 C 
ATOM     12  O   UNL     1       2.144   8.867  17.858  0.00  0.00    +0.000 OA
ATOM     13  N   UNL     1       1.178   8.975  19.966  0.00  0.00    +0.000 N 
ATOM     14  H   UNL     1       1.578   6.538  19.800  0.00  0.00    +0.000 HD
ATOM     15  H   UNL     1       1.406   8.644  20.893  0.00  0.00    +0.000 HD
BRANCH  13  16
ATOM     16  C   UNL     1       0.575  10.246  19.869  0.00  0.00    +0.000 A 
ATOM     17  C   UNL     1       1.205  11.426  20.284  0.00  0.00    +0.000 A 
ATOM     18  C   UNL     1       0.531  12.649  20.236  0.00  0.00    +0.000 A 
ATOM     19  C   UNL     1      -0.775  12.700  19.760  0.00  0.00    +0.000 A 
ATOM     20 CL   UNL     1      -1.630  14.194  19.763  0.00  0.00    +0.000 Cl
ATOM     21  C   UNL     1      -1.397  11.543  19.296  0.00  0.00    +0.000 A 
ATOM     22  C   UNL     1      -0.722  10.321  19.337  0.00  0.00    +0.000 A 
ENDBRANCH  13  16
ENDBRANCH   2  10
BRANCH   1  24
ATOM     23  N   UNL     1       1.731   3.561  19.322  0.00  0.00    +0.000 N 
ATOM     24  C   UNL     1       1.859   4.217  18.135  0.00  0.00    +0.000 C 
ATOM     25  O   UNL     1       1.029   4.051  17.247  0.00  0.00    +0.000 OA
ATOM     26  H   UNL     1       0.848   3.083  19.435  0.00  0.00    +0.000 HD
ATOM     27  H   UNL     1       2.124   3.987  20.147  0.00  0.00    +0.000 HD
ENDBRANCH   1  24
BRANCH   8  28
ATOM     28  C   UNL     1       5.589   4.911  14.210  0.00  0.00    +0.000 C 
BRANCH  28  29
ATOM     29  C   UNL     1       5.560   3.644  13.361  0.00  0.00    +0.000 C 
ATOM     30  C   UNL     1       4.501   3.579  12.236  0.00  0.00    +0.000 C 
ATOM     31  C   UNL     1       5.568   2.910  11.349  0.00  0.00    +0.000 C 
ATOM     32  C   UNL     1       6.641   3.546  12.254  0.00  0.00    +0.000 C 
ENDBRANCH  28  29
ENDBRANCH   8  28
TORSDOF 5
ENDMDL
