MODEL 1
REMARK VINA RESULT:      -5.4      0.000      0.000
REMARK  Name = 
REMARK  9 active torsions:
REMARK  status: ('A' for Active; 'I' for Inactive)
REMARK    1  A    between atoms: C_1  and  C_2
REMARK    2  A    between atoms: C_2  and  O_3
REMARK    3  A    between atoms: O_3  and  C_4
REMARK    4  A    between atoms: C_4  and  C_5
REMARK    5  A    between atoms: C_5  and  C_6
REMARK    6  A    between atoms: C_5  and  O_7
REMARK    7  A    between atoms: O_7  and  C_8
REMARK    8  A    between atoms: C_8  and  C_10
REMARK    9  A    between atoms: N_13  and  C_14
REMARK                            x       y       z     vdW  Elec       q    Type
REMARK                         _______ _______ _______ _____ _____    ______ ____
ROOT
ATOM      1  C   UNL     1       5.271   4.679  18.491  0.00  0.00    +0.000 C 
ATOM      2  O   UNL     1       5.503   3.803  19.316  0.00  0.00    +0.000 OA
ENDROOT
BRANCH   1   3
ATOM      3  C   UNL     1       5.878   4.695  17.176  0.00  0.00    +0.000 A 
ATOM      4  C   UNL     1       6.998   5.446  16.755  0.00  0.00    +0.000 A 
ATOM      5  N   UNL     1       7.295   5.254  15.465  0.00  0.00    +0.000 NA
ATOM      6  N   UNL     1       6.363   4.377  15.055  0.00  0.00    +0.000 N 
ATOM      7  C   UNL     1       6.332   3.942  13.681  0.00  0.00    +0.000 C 
ATOM      8  C   UNL     1       5.499   4.002  16.042  0.00  0.00    +0.000 A 
ENDBRANCH   1   3
BRANCH   1   9
ATOM      9  O   UNL     1       4.459   5.755  18.706  0.00  0.00    +0.000 OA
BRANCH   9  10
ATOM     10  C   UNL     1       3.140   5.450  19.210  0.00  0.00    +0.000 C 
ATOM     11  C   UNL     1       2.462   6.756  19.612  0.00  0.00    +0.000 C 
BRANCH  10  12
ATOM     12  C   UNL     1       2.334   4.760  18.100  0.00  0.00    +0.000 C 
BRANCH  12  13
ATOM     13  O   UNL     1       1.299   3.958  18.680  0.00  0.00    +0.000 OA
BRANCH  13  15
ATOM     14  C   UNL     1       2.557   2.200  17.670  0.00  0.00    +0.000 C 
ATOM     15  C   UNL     1       1.720   2.608  18.866  0.00  0.00    +0.000 C 
ENDBRANCH  13  15
ENDBRANCH  12  13
ENDBRANCH  10  12
ENDBRANCH   9  10
ENDBRANCH   1   9
TORSDOF 6
ENDMDL
MODEL 2
REMARK VINA RESULT:      -5.3      1.533      1.981
REMARK  Name = 
REMARK  9 active torsions:
REMARK  status: ('A' for Active; 'I' for Inactive)
REMARK    1  A    between atoms: C_1  and  C_2
REMARK    2  A    between atoms: C_2  and  O_3
REMARK    3  A    between atoms: O_3  and  C_4
REMARK    4  A    between atoms: C_4  and  C_5
REMARK    5  A    between atoms: C_5  and  C_6
REMARK    6  A    between atoms: C_5  and  O_7
REMARK    7  A    between atoms: O_7  and  C_8
REMARK    8  A    between atoms: C_8  and  C_10
REMARK    9  A    between atoms: N_13  and  C_14
REMARK                            x       y       z     vdW  Elec       q    Type
REMARK                         _______ _______ _______ _____ _____    ______ ____
ROOT
ATOM      1  C   UNL     1       6.061   5.155  19.113  0.00  0.00    +0.000 C 
ATOM      2  O   UNL     1       7.026   5.274  19.858  0.00  0.00    +0.000 OA
ENDROOT
BRANCH   1   3
ATOM      3  C   UNL     1       6.144   5.380  17.684  0.00  0.00    +0.000 A 
ATOM      4  C   UNL     1       5.505   6.394  16.935  0.00  0.00    +0.000 A 
ATOM      5  N   UNL     1       5.768   6.312  15.626  0.00  0.00    +0.000 NA
ATOM      6  N   UNL     1       6.578   5.243  15.534  0.00  0.00    +0.000 N 
ATOM      7  C   UNL     1       7.057   4.807  14.245  0.00  0.00    +0.000 C 
ATOM      8  C   UNL     1       6.843   4.657  16.736  0.00  0.00    +0.000 A 
ENDBRANCH   1   3
BRANCH   1   9
ATOM      9  O   UNL     1       4.797   4.841  19.522  0.00  0.00    +0.000 OA
BRANCH   9  10
ATOM     10  C   UNL     1       4.230   3.651  18.933  0.00  0.00    +0.000 C 
ATOM     11  C   UNL     1       4.432   2.488  19.900  0.00  0.00    +0.000 C 
BRANCH  10  12
ATOM     12  C   UNL     1       2.730   3.881  18.696  0.00  0.00    +0.000 C 
BRANCH  12  13
ATOM     13  O   UNL     1       2.087   4.198  19.935  0.00  0.00    +0.000 OA
BRANCH  13  15
ATOM     14  C   UNL     1       0.717   2.505  18.961  0.00  0.00    +0.000 C 
ATOM     15  C   UNL     1       0.823   3.548  20.055  0.00  0.00    +0.000 C 
ENDBRANCH  13  15
ENDBRANCH  12  13
ENDBRANCH  10  12
ENDBRANCH   9  10
ENDBRANCH   1   9
TORSDOF 6
ENDMDL
MODEL 3
REMARK VINA RESULT:      -5.3      1.049      1.077
REMARK  Name = 
REMARK  9 active torsions:
REMARK  status: ('A' for Active; 'I' for Inactive)
REMARK    1  A    between atoms: C_1  and  C_2
REMARK    2  A    between atoms: C_2  and  O_3
REMARK    3  A    between atoms: O_3  and  C_4
REMARK    4  A    between atoms: C_4  and  C_5
REMARK    5  A    between atoms: C_5  and  C_6
REMARK    6  A    between atoms: C_5  and  O_7
REMARK    7  A    between atoms: O_7  and  C_8
REMARK    8  A    between atoms: C_8  and  C_10
REMARK    9  A    between atoms: N_13  and  C_14
REMARK                            x       y       z     vdW  Elec       q    Type
REMARK                         _______ _______ _______ _____ _____    ______ ____
ROOT
ATOM      1  C   UNL     1       5.734   5.175  18.599  0.00  0.00    +0.000 C 
ATOM      2  O   UNL     1       6.403   4.782  19.547  0.00  0.00    +0.000 OA
ENDROOT
BRANCH   1   3
ATOM      3  C   UNL     1       6.176   5.051  17.225  0.00  0.00    +0.000 A 
ATOM      4  C   UNL     1       7.199   5.783  16.582  0.00  0.00    +0.000 A 
ATOM      5  N   UNL     1       7.347   5.446  15.297  0.00  0.00    +0.000 NA
ATOM      6  N   UNL     1       6.416   4.494  15.112  0.00  0.00    +0.000 N 
ATOM      7  C   UNL     1       6.240   3.895  13.813  0.00  0.00    +0.000 C 
ATOM      8  C   UNL     1       5.697   4.213  16.236  0.00  0.00    +0.000 A 
ENDBRANCH   1   3
BRANCH   1   9
ATOM      9  O   UNL     1       4.527   5.804  18.707  0.00  0.00    +0.000 OA
BRANCH   9  10
ATOM     10  C   UNL     1       3.566   5.163  19.573  0.00  0.00    +0.000 C 
ATOM     11  C   UNL     1       2.417   6.136  19.825  0.00  0.00    +0.000 C 
BRANCH  10  12
ATOM     12  C   UNL     1       3.039   3.899  18.880  0.00  0.00    +0.000 C 
BRANCH  12  13
ATOM     13  O   UNL     1       3.015   2.810  19.810  0.00  0.00    +0.000 OA
BRANCH  13  15
ATOM     14  C   UNL     1       0.833   2.479  18.900  0.00  0.00    +0.000 C 
ATOM     15  C   UNL     1       1.681   2.442  20.156  0.00  0.00    +0.000 C 
ENDBRANCH  13  15
ENDBRANCH  12  13
ENDBRANCH  10  12
ENDBRANCH   9  10
ENDBRANCH   1   9
TORSDOF 6
ENDMDL
MODEL 4
REMARK VINA RESULT:      -5.2      1.129      2.383
REMARK  Name = 
REMARK  9 active torsions:
REMARK  status: ('A' for Active; 'I' for Inactive)
REMARK    1  A    between atoms: C_1  and  C_2
REMARK    2  A    between atoms: C_2  and  O_3
REMARK    3  A    between atoms: O_3  and  C_4
REMARK    4  A    between atoms: C_4  and  C_5
REMARK    5  A    between atoms: C_5  and  C_6
REMARK    6  A    between atoms: C_5  and  O_7
REMARK    7  A    between atoms: O_7  and  C_8
REMARK    8  A    between atoms: C_8  and  C_10
REMARK    9  A    between atoms: N_13  and  C_14
REMARK                            x       y       z     vdW  Elec       q    Type
REMARK                         _______ _______ _______ _____ _____    ______ ____
ROOT
ATOM      1  C   UNL     1       5.635   4.475  18.983  0.00  0.00    +0.000 C 
ATOM      2  O   UNL     1       5.692   5.472  19.694  0.00  0.00    +0.000 OA
ENDROOT
BRANCH   1   3
ATOM      3  C   UNL     1       6.200   4.435  17.648  0.00  0.00    +0.000 A 
ATOM      4  C   UNL     1       7.547   4.642  17.279  0.00  0.00    +0.000 A 
ATOM      5  N   UNL     1       7.739   4.561  15.958  0.00  0.00    +0.000 NA
ATOM      6  N   UNL     1       6.511   4.301  15.477  0.00  0.00    +0.000 N 
ATOM      7  C   UNL     1       6.301   4.176  14.056  0.00  0.00    +0.000 C 
ATOM      8  C   UNL     1       5.557   4.205  16.447  0.00  0.00    +0.000 A 
ENDBRANCH   1   3
BRANCH   1   9
ATOM      9  O   UNL     1       5.015   3.309  19.325  0.00  0.00    +0.000 OA
BRANCH   9  10
ATOM     10  C   UNL     1       3.642   3.185  18.897  0.00  0.00    +0.000 C 
ATOM     11  C   UNL     1       3.358   1.715  18.601  0.00  0.00    +0.000 C 
BRANCH  10  12
ATOM     12  C   UNL     1       2.724   3.679  20.024  0.00  0.00    +0.000 C 
BRANCH  12  13
ATOM     13  O   UNL     1       1.818   4.663  19.515  0.00  0.00    +0.000 OA
BRANCH  13  15
ATOM     14  C   UNL     1       2.565   6.637  18.401  0.00  0.00    +0.000 C 
ATOM     15  C   UNL     1       2.295   5.988  19.744  0.00  0.00    +0.000 C 
ENDBRANCH  13  15
ENDBRANCH  12  13
ENDBRANCH  10  12
ENDBRANCH   9  10
ENDBRANCH   1   9
TORSDOF 6
ENDMDL
MODEL 5
REMARK VINA RESULT:      -5.2      2.849      5.274
REMARK  Name = 
REMARK  9 active torsions:
REMARK  status: ('A' for Active; 'I' for Inactive)
REMARK    1  A    between atoms: C_1  and  C_2
REMARK    2  A    between atoms: C_2  and  O_3
REMARK    3  A    between atoms: O_3  and  C_4
REMARK    4  A    between atoms: C_4  and  C_5
REMARK    5  A    between atoms: C_5  and  C_6
REMARK    6  A    between atoms: C_5  and  O_7
REMARK    7  A    between atoms: O_7  and  C_8
REMARK    8  A    between atoms: C_8  and  C_10
REMARK    9  A    between atoms: N_13  and  C_14
REMARK                            x       y       z     vdW  Elec       q    Type
REMARK                         _______ _______ _______ _____ _____    ______ ____
ROOT
ATOM      1  C   UNL     1       4.338   5.881  18.073  0.00  0.00    +0.000 C 
ATOM      2  O   UNL     1       4.122   6.836  17.337  0.00  0.00    +0.000 OA
ENDROOT
BRANCH   1   3
ATOM      3  C   UNL     1       3.310   4.926  18.437  0.00  0.00    +0.000 A 
ATOM      4  C   UNL     1       2.436   4.231  17.571  0.00  0.00    +0.000 A 
ATOM      5  N   UNL     1       1.582   3.438  18.226  0.00  0.00    +0.000 NA
ATOM      6  N   UNL     1       1.907   3.624  19.517  0.00  0.00    +0.000 N 
ATOM      7  C   UNL     1       1.167   2.949  20.554  0.00  0.00    +0.000 C 
ATOM      8  C   UNL     1       2.940   4.495  19.697  0.00  0.00    +0.000 A 
ENDBRANCH   1   3
BRANCH   1   9
ATOM      9  O   UNL     1       5.537   5.612  18.667  0.00  0.00    +0.000 OA
BRANCH   9  10
ATOM     10  C   UNL     1       6.706   6.022  17.926  0.00  0.00    +0.000 C 
ATOM     11  C   UNL     1       7.862   6.200  18.905  0.00  0.00    +0.000 C 
BRANCH  10  12
ATOM     12  C   UNL     1       7.051   4.933  16.901  0.00  0.00    +0.000 C 
BRANCH  12  13
ATOM     13  O   UNL     1       7.445   5.537  15.665  0.00  0.00    +0.000 OA
BRANCH  13  15
ATOM     14  C   UNL     1       5.645   4.114  15.010  0.00  0.00    +0.000 C 
ATOM     15  C   UNL     1       6.876   4.864  14.543  0.00  0.00    +0.000 C 
ENDBRANCH  13  15
ENDBRANCH  12  13
ENDBRANCH  10  12
ENDBRANCH   9  10
ENDBRANCH   1   9
TORSDOF 6
ENDMDL
MODEL 6
REMARK VINA RESULT:      -5.2      1.067      1.199
REMARK  Name = 
REMARK  9 active torsions:
REMARK  status: ('A' for Active; 'I' for Inactive)
REMARK    1  A    between atoms: C_1  and  C_2
REMARK    2  A    between atoms: C_2  and  O_3
REMARK    3  A    between atoms: O_3  and  C_4
REMARK    4  A    between atoms: C_4  and  C_5
REMARK    5  A    between atoms: C_5  and  C_6
REMARK    6  A    between atoms: C_5  and  O_7
REMARK    7  A    between atoms: O_7  and  C_8
REMARK    8  A    between atoms: C_8  and  C_10
REMARK    9  A    between atoms: N_13  and  C_14
REMARK                            x       y       z     vdW  Elec       q    Type
REMARK                         _______ _______ _______ _____ _____    ______ ____
ROOT
ATOM      1  C   UNL     1       5.343   4.511  17.917  0.00  0.00    +0.000 C 
ATOM      2  O   UNL     1       5.949   4.185  18.931  0.00  0.00    +0.000 OA
ENDROOT
BRANCH   1   3
ATOM      3  C   UNL     1       5.973   4.560  16.613  0.00  0.00    +0.000 A 
ATOM      4  C   UNL     1       7.087   5.339  16.225  0.00  0.00    +0.000 A 
ATOM      5  N   UNL     1       7.409   5.175  14.938  0.00  0.00    +0.000 NA
ATOM      6  N   UNL     1       6.500   4.288  14.496  0.00  0.00    +0.000 N 
ATOM      7  C   UNL     1       6.502   3.877  13.114  0.00  0.00    +0.000 C 
ATOM      8  C   UNL     1       5.627   3.881  15.460  0.00  0.00    +0.000 A 
ENDBRANCH   1   3
BRANCH   1   9
ATOM      9  O   UNL     1       4.035   4.900  17.882  0.00  0.00    +0.000 OA
BRANCH   9  10
ATOM     10  C   UNL     1       3.697   6.022  18.725  0.00  0.00    +0.000 C 
ATOM     11  C   UNL     1       3.340   7.207  17.833  0.00  0.00    +0.000 C 
BRANCH  10  12
ATOM     12  C   UNL     1       2.493   5.641  19.598  0.00  0.00    +0.000 C 
BRANCH  12  13
ATOM     13  O   UNL     1       1.710   4.643  18.935  0.00  0.00    +0.000 OA
BRANCH  13  15
ATOM     14  C   UNL     1       0.637   2.517  19.089  0.00  0.00    +0.000 C 
ATOM     15  C   UNL     1       1.137   3.721  19.861  0.00  0.00    +0.000 C 
ENDBRANCH  13  15
ENDBRANCH  12  13
ENDBRANCH  10  12
ENDBRANCH   9  10
ENDBRANCH   1   9
TORSDOF 6
ENDMDL
MODEL 7
REMARK VINA RESULT:      -5.2      1.062      1.088
REMARK  Name = 
REMARK  9 active torsions:
REMARK  status: ('A' for Active; 'I' for Inactive)
REMARK    1  A    between atoms: C_1  and  C_2
REMARK    2  A    between atoms: C_2  and  O_3
REMARK    3  A    between atoms: O_3  and  C_4
REMARK    4  A    between atoms: C_4  and  C_5
REMARK    5  A    between atoms: C_5  and  C_6
REMARK    6  A    between atoms: C_5  and  O_7
REMARK    7  A    between atoms: O_7  and  C_8
REMARK    8  A    between atoms: C_8  and  C_10
REMARK    9  A    between atoms: N_13  and  C_14
REMARK                            x       y       z     vdW  Elec       q    Type
REMARK                         _______ _______ _______ _____ _____    ______ ____
ROOT
ATOM      1  C   UNL     1       5.018   4.790  17.426  0.00  0.00    +0.000 C 
ATOM      2  O   UNL     1       5.510   4.634  18.537  0.00  0.00    +0.000 OA
ENDROOT
BRANCH   1   3
ATOM      3  C   UNL     1       5.804   4.734  16.209  0.00  0.00    +0.000 A 
ATOM      4  C   UNL     1       7.033   5.380  15.949  0.00  0.00    +0.000 A 
ATOM      5  N   UNL     1       7.490   5.144  14.715  0.00  0.00    +0.000 NA
ATOM      6  N   UNL     1       6.551   4.345  14.179  0.00  0.00    +0.000 N 
ATOM      7  C   UNL     1       6.676   3.895  12.815  0.00  0.00    +0.000 C 
ATOM      8  C   UNL     1       5.528   4.060  15.035  0.00  0.00    +0.000 A 
ENDBRANCH   1   3
BRANCH   1   9
ATOM      9  O   UNL     1       3.704   5.070  17.189  0.00  0.00    +0.000 OA
BRANCH   9  10
ATOM     10  C   UNL     1       2.889   5.274  18.363  0.00  0.00    +0.000 C 
ATOM     11  C   UNL     1       2.555   6.759  18.469  0.00  0.00    +0.000 C 
BRANCH  10  12
ATOM     12  C   UNL     1       1.597   4.457  18.218  0.00  0.00    +0.000 C 
BRANCH  12  13
ATOM     13  O   UNL     1       1.863   3.254  17.488  0.00  0.00    +0.000 OA
BRANCH  13  15
ATOM     14  C   UNL     1       3.424   1.623  18.261  0.00  0.00    +0.000 C 
ATOM     15  C   UNL     1       1.999   2.130  18.355  0.00  0.00    +0.000 C 
ENDBRANCH  13  15
ENDBRANCH  12  13
ENDBRANCH  10  12
ENDBRANCH   9  10
ENDBRANCH   1   9
TORSDOF 6
ENDMDL
MODEL 8
REMARK VINA RESULT:      -5.1      1.534      2.106
REMARK  Name = 
REMARK  9 active torsions:
REMARK  status: ('A' for Active; 'I' for Inactive)
REMARK    1  A    between atoms: C_1  and  C_2
REMARK    2  A    between atoms: C_2  and  O_3
REMARK    3  A    between atoms: O_3  and  C_4
REMARK    4  A    between atoms: C_4  and  C_5
REMARK    5  A    between atoms: C_5  and  C_6
REMARK    6  A    between atoms: C_5  and  O_7
REMARK    7  A    between atoms: O_7  and  C_8
REMARK    8  A    between atoms: C_8  and  C_10
REMARK    9  A    between atoms: N_13  and  C_14
REMARK                            x       y       z     vdW  Elec       q    Type
REMARK                         _______ _______ _______ _____ _____    ______ ____
ROOT
ATOM      1  C   UNL     1       5.033   4.076  17.143  0.00  0.00    +0.000 C 
ATOM      2  O   UNL     1       5.433   4.356  18.267  0.00  0.00    +0.000 OA
ENDROOT
BRANCH   1   3
ATOM      3  C   UNL     1       5.818   4.321  15.950  0.00  0.00    +0.000 A 
ATOM      4  C   UNL     1       6.903   5.214  15.803  0.00  0.00    +0.000 A 
ATOM      5  N   UNL     1       7.400   5.224  14.562  0.00  0.00    +0.000 NA
ATOM      6  N   UNL     1       6.632   4.335  13.908  0.00  0.00    +0.000 N 
ATOM      7  C   UNL     1       6.844   4.090  12.503  0.00  0.00    +0.000 C 
ATOM      8  C   UNL     1       5.679   3.759  14.695  0.00  0.00    +0.000 A 
ENDBRANCH   1   3
BRANCH   1   9
ATOM      9  O   UNL     1       3.807   3.546  16.864  0.00  0.00    +0.000 OA
BRANCH   9  10
ATOM     10  C   UNL     1       2.851   3.583  17.945  0.00  0.00    +0.000 C 
ATOM     11  C   UNL     1       1.741   4.563  17.577  0.00  0.00    +0.000 C 
BRANCH  10  12
ATOM     12  C   UNL     1       2.265   2.177  18.139  0.00  0.00    +0.000 C 
BRANCH  12  13
ATOM     13  O   UNL     1       1.520   2.126  19.360  0.00  0.00    +0.000 OA
BRANCH  13  15
ATOM     14  C   UNL     1       1.421   2.704  21.673  0.00  0.00    +0.000 C 
ATOM     15  C   UNL     1       2.330   2.453  20.487  0.00  0.00    +0.000 C 
ENDBRANCH  13  15
ENDBRANCH  12  13
ENDBRANCH  10  12
ENDBRANCH   9  10
ENDBRANCH   1   9
TORSDOF 6
ENDMDL
MODEL 9
REMARK VINA RESULT:      -5.1      1.313      2.632
REMARK  Name = 
REMARK  9 active torsions:
REMARK  status: ('A' for Active; 'I' for Inactive)
REMARK    1  A    between atoms: C_1  and  C_2
REMARK    2  A    between atoms: C_2  and  O_3
REMARK    3  A    between atoms: O_3  and  C_4
REMARK    4  A    between atoms: C_4  and  C_5
REMARK    5  A    between atoms: C_5  and  C_6
REMARK    6  A    between atoms: C_5  and  O_7
REMARK    7  A    between atoms: O_7  and  C_8
REMARK    8  A    between atoms: C_8  and  C_10
REMARK    9  A    between atoms: N_13  and  C_14
REMARK                            x       y       z     vdW  Elec       q    Type
REMARK                         _______ _______ _______ _____ _____    ______ ____
ROOT
ATOM      1  C   UNL     1       5.993   4.707  18.889  0.00  0.00    +0.000 C 
ATOM      2  O   UNL     1       6.473   5.403  19.776  0.00  0.00    +0.000 OA
ENDROOT
BRANCH   1   3
ATOM      3  C   UNL     1       6.083   5.058  17.486  0.00  0.00    +0.000 A 
ATOM      4  C   UNL     1       5.499   6.170  16.839  0.00  0.00    +0.000 A 
ATOM      5  N   UNL     1       5.752   6.196  15.526  0.00  0.00    +0.000 NA
ATOM      6  N   UNL     1       6.501   5.097  15.328  0.00  0.00    +0.000 N 
ATOM      7  C   UNL     1       6.950   4.756  14.001  0.00  0.00    +0.000 C 
ATOM      8  C   UNL     1       6.737   4.389  16.469  0.00  0.00    +0.000 A 
ENDBRANCH   1   3
BRANCH   1   9
ATOM      9  O   UNL     1       5.291   3.556  19.097  0.00  0.00    +0.000 OA
BRANCH   9  10
ATOM     10  C   UNL     1       3.982   3.506  18.490  0.00  0.00    +0.000 C 
ATOM     11  C   UNL     1       3.543   2.047  18.404  0.00  0.00    +0.000 C 
BRANCH  10  12
ATOM     12  C   UNL     1       3.000   4.297  19.365  0.00  0.00    +0.000 C 
BRANCH  12  13
ATOM     13  O   UNL     1       2.452   5.387  18.615  0.00  0.00    +0.000 OA
BRANCH  13  15
ATOM     14  C   UNL     1       2.417   7.746  18.258  0.00  0.00    +0.000 C 
ATOM     15  C   UNL     1       2.683   6.639  19.258  0.00  0.00    +0.000 C 
ENDBRANCH  13  15
ENDBRANCH  12  13
ENDBRANCH  10  12
ENDBRANCH   9  10
ENDBRANCH   1   9
TORSDOF 6
ENDMDL
