MODEL 1
REMARK VINA RESULT:      -8.0      0.000      0.000
REMARK  Name = 
REMARK  6 active torsions:
REMARK  status: ('A' for Active; 'I' for Inactive)
REMARK    1  A    between atoms: C_1  and  C_2
REMARK    2  A    between atoms: C_2  and  C_3
REMARK    3  A    between atoms: C_12  and  C_13
REMARK    4  A    between atoms: C_16  and  O_17
REMARK    5  A    between atoms: C_19  and  O_20
REMARK    6  A    between atoms: C_24  and  O_25
REMARK                            x       y       z     vdW  Elec       q    Type
REMARK                         _______ _______ _______ _____ _____    ______ ____
ROOT
ATOM      1  C   UNL     1      -2.974  12.463  21.966  0.00  0.00    +0.000 C 
ATOM      2  C   UNL     1      -1.453  12.465  21.781  0.00  0.00    +0.000 C 
ATOM      3  C   UNL     1      -0.787  13.373  22.820  0.00  0.00    +0.000 C 
ATOM      4  C   UNL     1      -1.131  12.986  20.402  0.00  0.00    +0.000 C 
ATOM      5  C   UNL     1      -0.409  12.303  19.513  0.00  0.00    +0.000 C 
ATOM      6  C   UNL     1       0.086  10.990  19.896  0.00  0.00    +0.000 A 
ATOM      7  C   UNL     1      -0.240  10.467  21.153  0.00  0.00    +0.000 A 
ATOM      8  C   UNL     1       0.211   9.200  21.538  0.00  0.00    +0.000 A 
ATOM      9  C   UNL     1       0.994   8.446  20.669  0.00  0.00    +0.000 A 
ATOM     10  O   UNL     1       1.407   7.208  21.099  0.00  0.00    +0.000 OA
ATOM     11  C   UNL     1       2.196   6.465  20.248  0.00  0.00    +0.000 A 
ATOM     12  C   UNL     1       2.579   6.823  19.017  0.00  0.00    +0.000 A 
ATOM     13  C   UNL     1       2.130   8.137  18.510  0.00  0.00    +0.000 A 
ATOM     14  O   UNL     1       2.388   8.541  17.378  0.00  0.00    +0.000 OA
ATOM     15  C   UNL     1       1.322   8.960  19.415  0.00  0.00    +0.000 A 
ATOM     16  C   UNL     1       0.875  10.229  19.026  0.00  0.00    +0.000 A 
ATOM     17  O   UNL     1      -1.014  11.122  22.069  0.00  0.00    +0.000 OA
ENDROOT
BRANCH  12  18
ATOM     18  C   UNL     1       3.433   5.989  18.168  0.00  0.00    +0.000 A 
ATOM     19  C   UNL     1       4.797   6.287  18.055  0.00  0.00    +0.000 A 
ATOM     20  C   UNL     1       5.655   5.412  17.387  0.00  0.00    +0.000 A 
ATOM     21  C   UNL     1       5.140   4.246  16.825  0.00  0.00    +0.000 A 
ATOM     22  C   UNL     1       3.786   3.941  16.913  0.00  0.00    +0.000 A 
ATOM     23  C   UNL     1       2.937   4.810  17.592  0.00  0.00    +0.000 A 
BRANCH  21  24
ATOM     24  O   UNL     1       5.948   3.355  16.183  0.00  0.00    +0.000 OA
ATOM     25  H   UNL     1       5.836   3.468  15.224  0.00  0.00    +0.000 HD
ENDBRANCH  21  24
BRANCH  23  26
ATOM     26  O   UNL     1       1.611   4.505  17.734  0.00  0.00    +0.000 OA
ATOM     27  H   UNL     1       1.301   4.872  18.579  0.00  0.00    +0.000 HD
ENDBRANCH  23  26
ENDBRANCH  12  18
BRANCH  16  28
ATOM     28  O   UNL     1       1.188  10.758  17.795  0.00  0.00    +0.000 OA
ATOM     29  H   UNL     1       0.434  11.316  17.495  0.00  0.00    +0.000 HD
ENDBRANCH  16  28
TORSDOF 4
ENDMDL
MODEL 2
REMARK VINA RESULT:      -8.0      1.969      8.696
REMARK  Name = 
REMARK  6 active torsions:
REMARK  status: ('A' for Active; 'I' for Inactive)
REMARK    1  A    between atoms: C_1  and  C_2
REMARK    2  A    between atoms: C_2  and  C_3
REMARK    3  A    between atoms: C_12  and  C_13
REMARK    4  A    between atoms: C_16  and  O_17
REMARK    5  A    between atoms: C_19  and  O_20
REMARK    6  A    between atoms: C_24  and  O_25
REMARK                            x       y       z     vdW  Elec       q    Type
REMARK                         _______ _______ _______ _____ _____    ______ ____
ROOT
ATOM      1  C   UNL     1       4.477   6.385  18.499  0.00  0.00    +0.000 C 
ATOM      2  C   UNL     1       2.969   6.623  18.371  0.00  0.00    +0.000 C 
ATOM      3  C   UNL     1       2.270   5.366  17.844  0.00  0.00    +0.000 C 
ATOM      4  C   UNL     1       2.736   7.754  17.398  0.00  0.00    +0.000 C 
ATOM      5  C   UNL     1       2.048   8.853  17.707  0.00  0.00    +0.000 C 
ATOM      6  C   UNL     1       1.499   8.964  19.050  0.00  0.00    +0.000 A 
ATOM      7  C   UNL     1       1.743   7.949  19.982  0.00  0.00    +0.000 A 
ATOM      8  C   UNL     1       1.240   8.041  21.285  0.00  0.00    +0.000 A 
ATOM      9  C   UNL     1       0.488   9.148  21.664  0.00  0.00    +0.000 A 
ATOM     10  O   UNL     1       0.021   9.186  22.957  0.00  0.00    +0.000 OA
ATOM     11  C   UNL     1      -0.739  10.273  23.332  0.00  0.00    +0.000 A 
ATOM     12  C   UNL     1      -1.044  11.322  22.560  0.00  0.00    +0.000 A 
ATOM     13  C   UNL     1      -0.535  11.329  21.172  0.00  0.00    +0.000 A 
ATOM     14  O   UNL     1      -0.721  12.264  20.396  0.00  0.00    +0.000 OA
ATOM     15  C   UNL     1       0.241  10.164  20.741  0.00  0.00    +0.000 A 
ATOM     16  C   UNL     1       0.741  10.075  19.436  0.00  0.00    +0.000 A 
ATOM     17  O   UNL     1       2.481   6.831  19.712  0.00  0.00    +0.000 OA
ENDROOT
BRANCH  12  18
ATOM     18  C   UNL     1      -1.870  12.442  23.019  0.00  0.00    +0.000 A 
ATOM     19  C   UNL     1      -3.214  12.218  23.350  0.00  0.00    +0.000 A 
ATOM     20  C   UNL     1      -3.969  13.231  23.943  0.00  0.00    +0.000 A 
ATOM     21  C   UNL     1      -3.379  14.468  24.192  0.00  0.00    +0.000 A 
ATOM     22  C   UNL     1      -2.051  14.713  23.855  0.00  0.00    +0.000 A 
ATOM     23  C   UNL     1      -1.298  13.695  23.277  0.00  0.00    +0.000 A 
BRANCH  21  24
ATOM     24  O   UNL     1      -4.076  15.476  24.789  0.00  0.00    +0.000 OA
ATOM     25  H   UNL     1      -3.565  15.801  25.549  0.00  0.00    +0.000 HD
ENDBRANCH  21  24
BRANCH  23  26
ATOM     26  O   UNL     1       0.023  13.899  22.984  0.00  0.00    +0.000 OA
ATOM     27  H   UNL     1       0.545  13.214  23.433  0.00  0.00    +0.000 HD
ENDBRANCH  23  26
ENDBRANCH  12  18
BRANCH  16  28
ATOM     28  O   UNL     1       0.509  11.063  18.506  0.00  0.00    +0.000 OA
ATOM     29  H   UNL     1      -0.282  10.811  17.976  0.00  0.00    +0.000 HD
ENDBRANCH  16  28
TORSDOF 4
ENDMDL
MODEL 3
REMARK VINA RESULT:      -7.9      1.874      3.180
REMARK  Name = 
REMARK  6 active torsions:
REMARK  status: ('A' for Active; 'I' for Inactive)
REMARK    1  A    between atoms: C_1  and  C_2
REMARK    2  A    between atoms: C_2  and  C_3
REMARK    3  A    between atoms: C_12  and  C_13
REMARK    4  A    between atoms: C_16  and  O_17
REMARK    5  A    between atoms: C_19  and  O_20
REMARK    6  A    between atoms: C_24  and  O_25
REMARK                            x       y       z     vdW  Elec       q    Type
REMARK                         _______ _______ _______ _____ _____    ______ ____
ROOT
ATOM      1  C   UNL     1       1.245  14.259  20.044  0.00  0.00    +0.000 C 
ATOM      2  C   UNL     1       0.351  13.059  19.716  0.00  0.00    +0.000 C 
ATOM      3  C   UNL     1      -0.921  13.517  18.995  0.00  0.00    +0.000 C 
ATOM      4  C   UNL     1      -0.039  12.376  21.005  0.00  0.00    +0.000 C 
ATOM      5  C   UNL     1       0.194  11.086  21.247  0.00  0.00    +0.000 C 
ATOM      6  C   UNL     1       0.861  10.304  20.218  0.00  0.00    +0.000 A 
ATOM      7  C   UNL     1       1.274  10.927  19.034  0.00  0.00    +0.000 A 
ATOM      8  C   UNL     1       1.931  10.199  18.036  0.00  0.00    +0.000 A 
ATOM      9  C   UNL     1       2.179   8.842  18.214  0.00  0.00    +0.000 A 
ATOM     10  O   UNL     1       2.831   8.179  17.201  0.00  0.00    +0.000 OA
ATOM     11  C   UNL     1       3.064   6.830  17.365  0.00  0.00    +0.000 A 
ATOM     12  C   UNL     1       2.742   6.102  18.440  0.00  0.00    +0.000 A 
ATOM     13  C   UNL     1       2.065   6.789  19.561  0.00  0.00    +0.000 A 
ATOM     14  O   UNL     1       1.767   6.222  20.611  0.00  0.00    +0.000 OA
ATOM     15  C   UNL     1       1.772   8.214  19.390  0.00  0.00    +0.000 A 
ATOM     16  C   UNL     1       1.112   8.938  20.391  0.00  0.00    +0.000 A 
ATOM     17  O   UNL     1       1.090  12.256  18.772  0.00  0.00    +0.000 OA
ENDROOT
BRANCH  12  18
ATOM     18  C   UNL     1       3.007   4.665  18.544  0.00  0.00    +0.000 A 
ATOM     19  C   UNL     1       2.107   3.754  17.975  0.00  0.00    +0.000 A 
ATOM     20  C   UNL     1       2.425   2.395  17.919  0.00  0.00    +0.000 A 
ATOM     21  C   UNL     1       3.637   1.954  18.444  0.00  0.00    +0.000 A 
ATOM     22  C   UNL     1       4.535   2.842  19.028  0.00  0.00    +0.000 A 
ATOM     23  C   UNL     1       4.220   4.197  19.068  0.00  0.00    +0.000 A 
BRANCH  21  24
ATOM     24  O   UNL     1       3.993   0.639  18.390  0.00  0.00    +0.000 OA
ATOM     25  H   UNL     1       4.910   0.552  18.701  0.00  0.00    +0.000 HD
ENDBRANCH  21  24
BRANCH  23  26
ATOM     26  O   UNL     1       5.111   5.094  19.592  0.00  0.00    +0.000 OA
ATOM     27  H   UNL     1       6.010   4.800  19.368  0.00  0.00    +0.000 HD
ENDBRANCH  23  26
ENDBRANCH  12  18
BRANCH  16  28
ATOM     28  O   UNL     1       0.698   8.340  21.559  0.00  0.00    +0.000 OA
ATOM     29  H   UNL     1      -0.117   8.797  21.871  0.00  0.00    +0.000 HD
ENDBRANCH  16  28
TORSDOF 4
ENDMDL
MODEL 4
REMARK VINA RESULT:      -7.9      1.607      2.681
REMARK  Name = 
REMARK  6 active torsions:
REMARK  status: ('A' for Active; 'I' for Inactive)
REMARK    1  A    between atoms: C_1  and  C_2
REMARK    2  A    between atoms: C_2  and  C_3
REMARK    3  A    between atoms: C_12  and  C_13
REMARK    4  A    between atoms: C_16  and  O_17
REMARK    5  A    between atoms: C_19  and  O_20
REMARK    6  A    between atoms: C_24  and  O_25
REMARK                            x       y       z     vdW  Elec       q    Type
REMARK                         _______ _______ _______ _____ _____    ______ ____
ROOT
ATOM      1  C   UNL     1       0.421  14.055  21.125  0.00  0.00    +0.000 C 
ATOM      2  C   UNL     1      -0.353  12.805  20.692  0.00  0.00    +0.000 C 
ATOM      3  C   UNL     1      -1.711  13.194  20.099  0.00  0.00    +0.000 C 
ATOM      4  C   UNL     1      -0.580  11.931  21.900  0.00  0.00    +0.000 C 
ATOM      5  C   UNL     1      -0.190  10.658  21.964  0.00  0.00    +0.000 C 
ATOM      6  C   UNL     1       0.492  10.090  20.811  0.00  0.00    +0.000 A 
ATOM      7  C   UNL     1       0.756  10.897  19.699  0.00  0.00    +0.000 A 
ATOM      8  C   UNL     1       1.425  10.378  18.584  0.00  0.00    +0.000 A 
ATOM      9  C   UNL     1       1.834   9.049  18.574  0.00  0.00    +0.000 A 
ATOM     10  O   UNL     1       2.489   8.595  17.454  0.00  0.00    +0.000 OA
ATOM     11  C   UNL     1       2.881   7.274  17.433  0.00  0.00    +0.000 A 
ATOM     12  C   UNL     1       2.712   6.388  18.421  0.00  0.00    +0.000 A 
ATOM     13  C   UNL     1       2.036   6.849  19.652  0.00  0.00    +0.000 A 
ATOM     14  O   UNL     1       1.871   6.128  20.635  0.00  0.00    +0.000 OA
ATOM     15  C   UNL     1       1.576   8.239  19.679  0.00  0.00    +0.000 A 
ATOM     16  C   UNL     1       0.905   8.753  20.796  0.00  0.00    +0.000 A 
ATOM     17  O   UNL     1       0.409  12.216  19.618  0.00  0.00    +0.000 OA
ENDROOT
BRANCH  12  18
ATOM     18  C   UNL     1       3.142   4.990  18.327  0.00  0.00    +0.000 A 
ATOM     19  C   UNL     1       4.359   4.602  18.903  0.00  0.00    +0.000 A 
ATOM     20  C   UNL     1       4.706   3.252  18.968  0.00  0.00    +0.000 A 
ATOM     21  C   UNL     1       3.837   2.296  18.447  0.00  0.00    +0.000 A 
ATOM     22  C   UNL     1       2.632   2.664  17.857  0.00  0.00    +0.000 A 
ATOM     23  C   UNL     1       2.284   4.011  17.807  0.00  0.00    +0.000 A 
BRANCH  21  24
ATOM     24  O   UNL     1       4.130   0.966  18.510  0.00  0.00    +0.000 OA
ATOM     25  H   UNL     1       4.716   0.741  17.769  0.00  0.00    +0.000 HD
ENDBRANCH  21  24
BRANCH  23  26
ATOM     26  O   UNL     1       1.081   4.390  17.277  0.00  0.00    +0.000 OA
ATOM     27  H   UNL     1       1.152   5.315  16.988  0.00  0.00    +0.000 HD
ENDBRANCH  23  26
ENDBRANCH  12  18
BRANCH  16  28
ATOM     28  O   UNL     1       0.636   7.973  21.898  0.00  0.00    +0.000 OA
ATOM     29  H   UNL     1       0.819   8.504  22.707  0.00  0.00    +0.000 HD
ENDBRANCH  16  28
TORSDOF 4
ENDMDL
MODEL 5
REMARK VINA RESULT:      -7.6      2.056      7.800
REMARK  Name = 
REMARK  6 active torsions:
REMARK  status: ('A' for Active; 'I' for Inactive)
REMARK    1  A    between atoms: C_1  and  C_2
REMARK    2  A    between atoms: C_2  and  C_3
REMARK    3  A    between atoms: C_12  and  C_13
REMARK    4  A    between atoms: C_16  and  O_17
REMARK    5  A    between atoms: C_19  and  O_20
REMARK    6  A    between atoms: C_24  and  O_25
REMARK                            x       y       z     vdW  Elec       q    Type
REMARK                         _______ _______ _______ _____ _____    ______ ____
ROOT
ATOM      1  C   UNL     1       4.810   2.560  19.785  0.00  0.00    +0.000 C 
ATOM      2  C   UNL     1       3.613   3.128  19.015  0.00  0.00    +0.000 C 
ATOM      3  C   UNL     1       2.639   2.009  18.637  0.00  0.00    +0.000 C 
ATOM      4  C   UNL     1       4.114   3.786  17.753  0.00  0.00    +0.000 C 
ATOM      5  C   UNL     1       3.863   5.058  17.443  0.00  0.00    +0.000 C 
ATOM      6  C   UNL     1       3.071   5.847  18.374  0.00  0.00    +0.000 A 
ATOM      7  C   UNL     1       2.636   5.271  19.573  0.00  0.00    +0.000 A 
ATOM      8  C   UNL     1       1.886   6.015  20.491  0.00  0.00    +0.000 A 
ATOM      9  C   UNL     1       1.565   7.340  20.216  0.00  0.00    +0.000 A 
ATOM     10  O   UNL     1       0.829   8.023  21.155  0.00  0.00    +0.000 OA
ATOM     11  C   UNL     1       0.493   9.331  20.879  0.00  0.00    +0.000 A 
ATOM     12  C   UNL     1       0.845  10.019  19.787  0.00  0.00    +0.000 A 
ATOM     13  C   UNL     1       1.661   9.325  18.768  0.00  0.00    +0.000 A 
ATOM     14  O   UNL     1       2.074   9.879  17.751  0.00  0.00    +0.000 OA
ATOM     15  C   UNL     1       1.995   7.921  19.024  0.00  0.00    +0.000 A 
ATOM     16  C   UNL     1       2.744   7.181  18.101  0.00  0.00    +0.000 A 
ATOM     17  O   UNL     1       2.913   3.985  19.941  0.00  0.00    +0.000 OA
ENDROOT
BRANCH  12  18
ATOM     18  C   UNL     1       0.442  11.406  19.550  0.00  0.00    +0.000 A 
ATOM     19  C   UNL     1       1.088  12.441  20.239  0.00  0.00    +0.000 A 
ATOM     20  C   UNL     1       0.833  13.773  19.907  0.00  0.00    +0.000 A 
ATOM     21  C   UNL     1      -0.075  14.063  18.892  0.00  0.00    +0.000 A 
ATOM     22  C   UNL     1      -0.738  13.049  18.208  0.00  0.00    +0.000 A 
ATOM     23  C   UNL     1      -0.471  11.723  18.533  0.00  0.00    +0.000 A 
BRANCH  21  24
ATOM     24  O   UNL     1      -0.336  15.350  18.523  0.00  0.00    +0.000 OA
ATOM     25  H   UNL     1      -0.994  15.342  17.808  0.00  0.00    +0.000 HD
ENDBRANCH  21  24
BRANCH  23  26
ATOM     26  O   UNL     1      -1.074  10.710  17.839  0.00  0.00    +0.000 OA
ATOM     27  H   UNL     1      -1.438  10.075  18.478  0.00  0.00    +0.000 HD
ENDBRANCH  23  26
ENDBRANCH  12  18
BRANCH  16  28
ATOM     28  O   UNL     1       3.177   7.731  16.916  0.00  0.00    +0.000 OA
ATOM     29  H   UNL     1       4.037   7.315  16.677  0.00  0.00    +0.000 HD
ENDBRANCH  16  28
TORSDOF 4
ENDMDL
MODEL 6
REMARK VINA RESULT:      -7.6      1.886      2.186
REMARK  Name = 
REMARK  6 active torsions:
REMARK  status: ('A' for Active; 'I' for Inactive)
REMARK    1  A    between atoms: C_1  and  C_2
REMARK    2  A    between atoms: C_2  and  C_3
REMARK    3  A    between atoms: C_12  and  C_13
REMARK    4  A    between atoms: C_16  and  O_17
REMARK    5  A    between atoms: C_19  and  O_20
REMARK    6  A    between atoms: C_24  and  O_25
REMARK                            x       y       z     vdW  Elec       q    Type
REMARK                         _______ _______ _______ _____ _____    ______ ____
ROOT
ATOM      1  C   UNL     1      -0.973  13.499  19.941  0.00  0.00    +0.000 C 
ATOM      2  C   UNL     1       0.446  12.932  20.060  0.00  0.00    +0.000 C 
ATOM      3  C   UNL     1       1.307  13.825  20.959  0.00  0.00    +0.000 C 
ATOM      4  C   UNL     1       1.066  12.882  18.685  0.00  0.00    +0.000 C 
ATOM      5  C   UNL     1       1.554  11.766  18.144  0.00  0.00    +0.000 C 
ATOM      6  C   UNL     1       1.479  10.538  18.921  0.00  0.00    +0.000 A 
ATOM      7  C   UNL     1       0.865  10.551  20.178  0.00  0.00    +0.000 A 
ATOM      8  C   UNL     1       0.765   9.380  20.937  0.00  0.00    +0.000 A 
ATOM      9  C   UNL     1       1.280   8.186  20.444  0.00  0.00    +0.000 A 
ATOM     10  O   UNL     1       1.152   7.066  21.231  0.00  0.00    +0.000 OA
ATOM     11  C   UNL     1       1.677   5.884  20.754  0.00  0.00    +0.000 A 
ATOM     12  C   UNL     1       2.278   5.711  19.572  0.00  0.00    +0.000 A 
ATOM     13  C   UNL     1       2.408   6.888  18.686  0.00  0.00    +0.000 A 
ATOM     14  O   UNL     1       2.903   6.828  17.562  0.00  0.00    +0.000 OA
ATOM     15  C   UNL     1       1.893   8.163  19.192  0.00  0.00    +0.000 A 
ATOM     16  C   UNL     1       1.996   9.334  18.430  0.00  0.00    +0.000 A 
ATOM     17  O   UNL     1       0.316  11.668  20.743  0.00  0.00    +0.000 OA
ENDROOT
BRANCH  12  18
ATOM     18  C   UNL     1       2.826   4.427  19.131  0.00  0.00    +0.000 A 
ATOM     19  C   UNL     1       3.911   3.866  19.819  0.00  0.00    +0.000 A 
ATOM     20  C   UNL     1       4.339   2.571  19.519  0.00  0.00    +0.000 A 
ATOM     21  C   UNL     1       3.687   1.848  18.523  0.00  0.00    +0.000 A 
ATOM     22  C   UNL     1       2.619   2.395  17.818  0.00  0.00    +0.000 A 
ATOM     23  C   UNL     1       2.187   3.681  18.131  0.00  0.00    +0.000 A 
BRANCH  21  24
ATOM     24  O   UNL     1       4.062   0.574  18.215  0.00  0.00    +0.000 OA
ATOM     25  H   UNL     1       4.761   0.610  17.541  0.00  0.00    +0.000 HD
ENDBRANCH  21  24
BRANCH  23  26
ATOM     26  O   UNL     1       1.107   4.218  17.484  0.00  0.00    +0.000 OA
ATOM     27  H   UNL     1       1.425   4.689  16.696  0.00  0.00    +0.000 HD
ENDBRANCH  23  26
ENDBRANCH  12  18
BRANCH  16  28
ATOM     28  O   UNL     1       2.599   9.337  17.192  0.00  0.00    +0.000 OA
ATOM     29  H   UNL     1       2.928  10.247  17.010  0.00  0.00    +0.000 HD
ENDBRANCH  16  28
TORSDOF 4
ENDMDL
MODEL 7
REMARK VINA RESULT:      -7.6      1.565      8.361
REMARK  Name = 
REMARK  6 active torsions:
REMARK  status: ('A' for Active; 'I' for Inactive)
REMARK    1  A    between atoms: C_1  and  C_2
REMARK    2  A    between atoms: C_2  and  C_3
REMARK    3  A    between atoms: C_12  and  C_13
REMARK    4  A    between atoms: C_16  and  O_17
REMARK    5  A    between atoms: C_19  and  O_20
REMARK    6  A    between atoms: C_24  and  O_25
REMARK                            x       y       z     vdW  Elec       q    Type
REMARK                         _______ _______ _______ _____ _____    ______ ____
ROOT
ATOM      1  C   UNL     1       4.371   3.436  16.766  0.00  0.00    +0.000 C 
ATOM      2  C   UNL     1       4.736   4.490  17.816  0.00  0.00    +0.000 C 
ATOM      3  C   UNL     1       6.257   4.578  17.984  0.00  0.00    +0.000 C 
ATOM      4  C   UNL     1       4.123   4.094  19.137  0.00  0.00    +0.000 C 
ATOM      5  C   UNL     1       3.303   4.886  19.829  0.00  0.00    +0.000 C 
ATOM      6  C   UNL     1       2.984   6.193  19.275  0.00  0.00    +0.000 A 
ATOM      7  C   UNL     1       3.504   6.562  18.029  0.00  0.00    +0.000 A 
ATOM      8  C   UNL     1       3.198   7.808  17.469  0.00  0.00    +0.000 A 
ATOM      9  C   UNL     1       2.371   8.694  18.152  0.00  0.00    +0.000 A 
ATOM     10  O   UNL     1       2.103   9.902  17.553  0.00  0.00    +0.000 OA
ATOM     11  C   UNL     1       1.298  10.790  18.233  0.00  0.00    +0.000 A 
ATOM     12  C   UNL     1       0.720  10.576  19.421  0.00  0.00    +0.000 A 
ATOM     13  C   UNL     1       0.963   9.276  20.082  0.00  0.00    +0.000 A 
ATOM     14  O   UNL     1       0.444   8.962  21.151  0.00  0.00    +0.000 OA
ATOM     15  C   UNL     1       1.849   8.333  19.393  0.00  0.00    +0.000 A 
ATOM     16  C   UNL     1       2.153   7.089  19.959  0.00  0.00    +0.000 A 
ATOM     17  O   UNL     1       4.311   5.758  17.275  0.00  0.00    +0.000 OA
ENDROOT
BRANCH  12  18
ATOM     18  C   UNL     1      -0.116  11.571  20.096  0.00  0.00    +0.000 A 
ATOM     19  C   UNL     1      -1.501  11.566  19.887  0.00  0.00    +0.000 A 
ATOM     20  C   UNL     1      -2.329  12.396  20.646  0.00  0.00    +0.000 A 
ATOM     21  C   UNL     1      -1.764  13.235  21.604  0.00  0.00    +0.000 A 
ATOM     22  C   UNL     1      -0.389  13.265  21.814  0.00  0.00    +0.000 A 
ATOM     23  C   UNL     1       0.430  12.426  21.065  0.00  0.00    +0.000 A 
BRANCH  21  24
ATOM     24  O   UNL     1      -2.540  14.044  22.379  0.00  0.00    +0.000 OA
ATOM     25  H   UNL     1      -2.695  13.604  23.231  0.00  0.00    +0.000 HD
ENDBRANCH  21  24
BRANCH  23  26
ATOM     26  O   UNL     1       1.780  12.403  21.290  0.00  0.00    +0.000 OA
ATOM     27  H   UNL     1       2.072  13.308  21.492  0.00  0.00    +0.000 HD
ENDBRANCH  23  26
ENDBRANCH  12  18
BRANCH  16  28
ATOM     28  O   UNL     1       1.652   6.711  21.184  0.00  0.00    +0.000 OA
ATOM     29  H   UNL     1       0.714   6.435  21.064  0.00  0.00    +0.000 HD
ENDBRANCH  16  28
TORSDOF 4
ENDMDL
MODEL 8
REMARK VINA RESULT:      -7.5      1.765      8.292
REMARK  Name = 
REMARK  6 active torsions:
REMARK  status: ('A' for Active; 'I' for Inactive)
REMARK    1  A    between atoms: C_1  and  C_2
REMARK    2  A    between atoms: C_2  and  C_3
REMARK    3  A    between atoms: C_12  and  C_13
REMARK    4  A    between atoms: C_16  and  O_17
REMARK    5  A    between atoms: C_19  and  O_20
REMARK    6  A    between atoms: C_24  and  O_25
REMARK                            x       y       z     vdW  Elec       q    Type
REMARK                         _______ _______ _______ _____ _____    ______ ____
ROOT
ATOM      1  C   UNL     1       5.090   4.839  19.196  0.00  0.00    +0.000 C 
ATOM      2  C   UNL     1       3.692   5.199  18.684  0.00  0.00    +0.000 C 
ATOM      3  C   UNL     1       2.934   3.937  18.258  0.00  0.00    +0.000 C 
ATOM      4  C   UNL     1       3.832   6.109  17.488  0.00  0.00    +0.000 C 
ATOM      5  C   UNL     1       3.267   7.315  17.417  0.00  0.00    +0.000 C 
ATOM      6  C   UNL     1       2.481   7.771  18.553  0.00  0.00    +0.000 A 
ATOM      7  C   UNL     1       2.377   6.964  19.691  0.00  0.00    +0.000 A 
ATOM      8  C   UNL     1       1.640   7.388  20.803  0.00  0.00    +0.000 A 
ATOM      9  C   UNL     1       1.001   8.623  20.784  0.00  0.00    +0.000 A 
ATOM     10  O   UNL     1       0.294   8.990  21.904  0.00  0.00    +0.000 OA
ATOM     11  C   UNL     1      -0.356  10.205  21.883  0.00  0.00    +0.000 A 
ATOM     12  C   UNL     1      -0.339  11.088  20.878  0.00  0.00    +0.000 A 
ATOM     13  C   UNL     1       0.435  10.740  19.667  0.00  0.00    +0.000 A 
ATOM     14  O   UNL     1       0.552  11.498  18.707  0.00  0.00    +0.000 OA
ATOM     15  C   UNL     1       1.100   9.434  19.654  0.00  0.00    +0.000 A 
ATOM     16  C   UNL     1       1.835   9.013  18.538  0.00  0.00    +0.000 A 
ATOM     17  O   UNL     1       2.979   5.743  19.814  0.00  0.00    +0.000 OA
ENDROOT
BRANCH  12  18
ATOM     18  C   UNL     1      -1.065  12.359  20.915  0.00  0.00    +0.000 A 
ATOM     19  C   UNL     1      -2.423  12.390  20.573  0.00  0.00    +0.000 A 
ATOM     20  C   UNL     1      -3.169  13.555  20.761  0.00  0.00    +0.000 A 
ATOM     21  C   UNL     1      -2.548  14.689  21.280  0.00  0.00    +0.000 A 
ATOM     22  C   UNL     1      -1.196  14.682  21.610  0.00  0.00    +0.000 A 
ATOM     23  C   UNL     1      -0.460  13.514  21.434  0.00  0.00    +0.000 A 
BRANCH  21  24
ATOM     24  O   UNL     1      -3.246  15.839  21.498  0.00  0.00    +0.000 OA
ATOM     25  H   UNL     1      -2.931  16.243  22.324  0.00  0.00    +0.000 HD
ENDBRANCH  21  24
BRANCH  23  26
ATOM     26  O   UNL     1       0.858  13.470  21.798  0.00  0.00    +0.000 OA
ATOM     27  H   UNL     1       1.287  12.749  21.309  0.00  0.00    +0.000 HD
ENDBRANCH  23  26
ENDBRANCH  12  18
BRANCH  16  28
ATOM     28  O   UNL     1       1.946   9.794  17.411  0.00  0.00    +0.000 OA
ATOM     29  H   UNL     1       1.661  10.709  17.638  0.00  0.00    +0.000 HD
ENDBRANCH  16  28
TORSDOF 4
ENDMDL
MODEL 9
REMARK VINA RESULT:      -7.5      1.560      8.293
REMARK  Name = 
REMARK  6 active torsions:
REMARK  status: ('A' for Active; 'I' for Inactive)
REMARK    1  A    between atoms: C_1  and  C_2
REMARK    2  A    between atoms: C_2  and  C_3
REMARK    3  A    between atoms: C_12  and  C_13
REMARK    4  A    between atoms: C_16  and  O_17
REMARK    5  A    between atoms: C_19  and  O_20
REMARK    6  A    between atoms: C_24  and  O_25
REMARK                            x       y       z     vdW  Elec       q    Type
REMARK                         _______ _______ _______ _____ _____    ______ ____
ROOT
ATOM      1  C   UNL     1       4.833   3.522  16.571  0.00  0.00    +0.000 C 
ATOM      2  C   UNL     1       5.107   4.554  17.670  0.00  0.00    +0.000 C 
ATOM      3  C   UNL     1       6.615   4.751  17.858  0.00  0.00    +0.000 C 
ATOM      4  C   UNL     1       4.516   4.054  18.965  0.00  0.00    +0.000 C 
ATOM      5  C   UNL     1       3.632   4.749  19.681  0.00  0.00    +0.000 C 
ATOM      6  C   UNL     1       3.217   6.051  19.182  0.00  0.00    +0.000 A 
ATOM      7  C   UNL     1       3.716   6.514  17.959  0.00  0.00    +0.000 A 
ATOM      8  C   UNL     1       3.319   7.756  17.450  0.00  0.00    +0.000 A 
ATOM      9  C   UNL     1       2.421   8.544  18.161  0.00  0.00    +0.000 A 
ATOM     10  O   UNL     1       2.065   9.753  17.612  0.00  0.00    +0.000 OA
ATOM     11  C   UNL     1       1.188  10.546  18.321  0.00  0.00    +0.000 A 
ATOM     12  C   UNL     1       0.619  10.235  19.492  0.00  0.00    +0.000 A 
ATOM     13  C   UNL     1       0.957   8.930  20.098  0.00  0.00    +0.000 A 
ATOM     14  O   UNL     1       0.455   8.530  21.147  0.00  0.00    +0.000 OA
ATOM     15  C   UNL     1       1.918   8.090  19.380  0.00  0.00    +0.000 A 
ATOM     16  C   UNL     1       2.314   6.849  19.894  0.00  0.00    +0.000 A 
ATOM     17  O   UNL     1       4.589   5.808  17.180  0.00  0.00    +0.000 OA
ENDROOT
BRANCH  12  18
ATOM     18  C   UNL     1      -0.297  11.132  20.201  0.00  0.00    +0.000 A 
ATOM     19  C   UNL     1       0.164  11.854  21.310  0.00  0.00    +0.000 A 
ATOM     20  C   UNL     1      -0.641  12.833  21.895  0.00  0.00    +0.000 A 
ATOM     21  C   UNL     1      -1.909  13.078  21.373  0.00  0.00    +0.000 A 
ATOM     22  C   UNL     1      -2.389  12.359  20.283  0.00  0.00    +0.000 A 
ATOM     23  C   UNL     1      -1.578  11.394  19.694  0.00  0.00    +0.000 A 
BRANCH  21  24
ATOM     24  O   UNL     1      -2.717  14.039  21.903  0.00  0.00    +0.000 OA
ATOM     25  H   UNL     1      -2.991  13.760  22.793  0.00  0.00    +0.000 HD
ENDBRANCH  21  24
BRANCH  23  26
ATOM     26  O   UNL     1      -2.011  10.712  18.590  0.00  0.00    +0.000 OA
ATOM     27  H   UNL     1      -1.349  10.816  17.886  0.00  0.00    +0.000 HD
ENDBRANCH  23  26
ENDBRANCH  12  18
BRANCH  16  28
ATOM     28  O   UNL     1       1.834   6.380  21.096  0.00  0.00    +0.000 OA
ATOM     29  H   UNL     1       1.486   7.144  21.611  0.00  0.00    +0.000 HD
ENDBRANCH  16  28
TORSDOF 4
ENDMDL
