MODEL 1
REMARK VINA RESULT:      -7.3      0.000      0.000
REMARK  Name = 
REMARK  7 active torsions:
REMARK  status: ('A' for Active; 'I' for Inactive)
REMARK    1  A    between atoms: C_2  and  O_3
REMARK    2  A    between atoms: C_2  and  C_4
REMARK    3  A    between atoms: C_5  and  C_6
REMARK    4  A    between atoms: C_12  and  C_13
REMARK    5  A    between atoms: C_13  and  O_15
REMARK    6  A    between atoms: O_15  and  C_16
REMARK    7  A    between atoms: C_26  and  C_27
REMARK                            x       y       z     vdW  Elec       q    Type
REMARK                         _______ _______ _______ _____ _____    ______ ____
ROOT
ATOM      1  C   UNL     1      -0.556  13.340  22.729  0.00  0.00    +0.000 C 
ATOM      2  C   UNL     1      -1.583  12.161  22.785  0.00  0.00    +0.000 C 
ATOM      3  C   UNL     1      -1.012  11.694  21.397  0.00  0.00    +0.000 C 
ATOM      4  C   UNL     1      -0.552  13.165  21.181  0.00  0.00    +0.000 C 
ENDROOT
BRANCH   2   5
ATOM      5  C   UNL     1      -3.153  12.443  22.917  0.00  0.00    +0.000 A 
ATOM      6  C   UNL     1      -4.001  12.694  21.821  0.00  0.00    +0.000 A 
ATOM      7  C   UNL     1      -5.375  12.904  21.974  0.00  0.00    +0.000 A 
ATOM      8  C   UNL     1      -5.948  12.877  23.239  0.00  0.00    +0.000 A 
ATOM      9  C   UNL     1      -5.146  12.640  24.347  0.00  0.00    +0.000 A 
ATOM     10  C   UNL     1      -3.774  12.425  24.183  0.00  0.00    +0.000 A 
ENDBRANCH   2   5
BRANCH   4  11
ATOM     11  C   UNL     1       0.760  13.401  20.327  0.00  0.00    +0.000 A 
ATOM     12  C   UNL     1       1.992  13.641  20.967  0.00  0.00    +0.000 A 
ATOM     13  C   UNL     1       3.152  13.952  20.253  0.00  0.00    +0.000 A 
ATOM     14  C   UNL     1       3.114  14.021  18.866  0.00  0.00    +0.000 A 
ATOM     15  C   UNL     1       1.925  13.756  18.198  0.00  0.00    +0.000 A 
ATOM     16  C   UNL     1       0.770  13.444  18.919  0.00  0.00    +0.000 A 
ENDBRANCH   4  11
BRANCH   1  18
ATOM     17  O   UNL     1      -0.743  15.084  24.475  0.00  0.00    +0.000 OA
ATOM     18  C   UNL     1      -0.925  14.719  23.318  0.00  0.00    +0.000 C 
BRANCH  18  19
ATOM     19  O   UNL     1      -1.445  15.591  22.408  0.00  0.00    +0.000 OA
ATOM     20  H   UNL     1      -2.071  16.240  22.785  0.00  0.00    +0.000 HD
ENDBRANCH  18  19
ENDBRANCH   1  18
BRANCH   3  21
ATOM     21  C   UNL     1       0.041  10.555  21.473  0.00  0.00    +0.000 C 
ATOM     22  O   UNL     1       1.003  10.527  22.247  0.00  0.00    +0.000 OA
BRANCH  21  23
ATOM     23  O   UNL     1      -0.316   9.494  20.636  0.00  0.00    +0.000 OA
BRANCH  23  24
ATOM     24  C   UNL     1       0.691   9.184  19.704  0.00  0.00    +0.000 A 
ATOM     25  C   UNL     1       0.987  10.130  18.713  0.00  0.00    +0.000 A 
ATOM     26  C   UNL     1       1.961   9.862  17.767  0.00  0.00    +0.000 A 
ATOM     27  C   UNL     1       2.636   8.645  17.803  0.00  0.00    +0.000 A 
ATOM     28  C   UNL     1       2.360   7.691  18.796  0.00  0.00    +0.000 A 
ATOM     29  C   UNL     1       3.017   6.451  18.780  0.00  0.00    +0.000 A 
ATOM     30  C   UNL     1       2.776   5.501  19.771  0.00  0.00    +0.000 A 
ATOM     31  C   UNL     1       1.912   5.799  20.819  0.00  0.00    +0.000 A 
ATOM     32  C   UNL     1       1.233   7.022  20.839  0.00  0.00    +0.000 A 
ATOM     33  C   UNL     1       1.409   7.972  19.808  0.00  0.00    +0.000 A 
ENDBRANCH  23  24
ENDBRANCH  21  23
ENDBRANCH   3  21
TORSDOF 7
ENDMDL
MODEL 2
REMARK VINA RESULT:      -7.0      2.921      4.599
REMARK  Name = 
REMARK  7 active torsions:
REMARK  status: ('A' for Active; 'I' for Inactive)
REMARK    1  A    between atoms: C_2  and  O_3
REMARK    2  A    between atoms: C_2  and  C_4
REMARK    3  A    between atoms: C_5  and  C_6
REMARK    4  A    between atoms: C_12  and  C_13
REMARK    5  A    between atoms: C_13  and  O_15
REMARK    6  A    between atoms: O_15  and  C_16
REMARK    7  A    between atoms: C_26  and  C_27
REMARK                            x       y       z     vdW  Elec       q    Type
REMARK                         _______ _______ _______ _____ _____    ______ ____
ROOT
ATOM      1  C   UNL     1      -4.254  13.155  19.521  0.00  0.00    +0.000 C 
ATOM      2  C   UNL     1      -3.454  13.326  20.855  0.00  0.00    +0.000 C 
ATOM      3  C   UNL     1      -2.448  12.251  20.305  0.00  0.00    +0.000 C 
ATOM      4  C   UNL     1      -3.609  11.742  19.402  0.00  0.00    +0.000 C 
ENDROOT
BRANCH   2   5
ATOM      5  C   UNL     1      -4.155  13.072  22.271  0.00  0.00    +0.000 A 
ATOM      6  C   UNL     1      -5.500  13.381  22.550  0.00  0.00    +0.000 A 
ATOM      7  C   UNL     1      -6.085  13.113  23.791  0.00  0.00    +0.000 A 
ATOM      8  C   UNL     1      -5.336  12.528  24.803  0.00  0.00    +0.000 A 
ATOM      9  C   UNL     1      -4.004  12.213  24.573  0.00  0.00    +0.000 A 
ATOM     10  C   UNL     1      -3.429  12.480  23.326  0.00  0.00    +0.000 A 
ENDBRANCH   2   5
BRANCH   4  11
ATOM     11  C   UNL     1      -3.223  11.125  17.996  0.00  0.00    +0.000 A 
ATOM     12  C   UNL     1      -3.910  11.523  16.832  0.00  0.00    +0.000 A 
ATOM     13  C   UNL     1      -3.668  10.933  15.589  0.00  0.00    +0.000 A 
ATOM     14  C   UNL     1      -2.719   9.927  15.472  0.00  0.00    +0.000 A 
ATOM     15  C   UNL     1      -1.996   9.532  16.592  0.00  0.00    +0.000 A 
ATOM     16  C   UNL     1      -2.242  10.128  17.830  0.00  0.00    +0.000 A 
ENDBRANCH   4  11
BRANCH   1  18
ATOM     17  O   UNL     1      -6.443  14.308  19.457  0.00  0.00    +0.000 OA
ATOM     18  C   UNL     1      -5.794  13.268  19.518  0.00  0.00    +0.000 C 
BRANCH  18  19
ATOM     19  O   UNL     1      -6.440  12.068  19.529  0.00  0.00    +0.000 OA
ATOM     20  H   UNL     1      -6.442  11.621  20.398  0.00  0.00    +0.000 HD
ENDBRANCH  18  19
ENDBRANCH   1  18
BRANCH   3  21
ATOM     21  C   UNL     1      -1.161  12.832  19.658  0.00  0.00    +0.000 C 
ATOM     22  O   UNL     1      -1.120  13.460  18.595  0.00  0.00    +0.000 OA
BRANCH  21  23
ATOM     23  O   UNL     1      -0.062  12.666  20.505  0.00  0.00    +0.000 OA
BRANCH  23  24
ATOM     24  C   UNL     1       0.111  11.328  20.904  0.00  0.00    +0.000 A 
ATOM     25  C   UNL     1      -0.376  10.945  22.161  0.00  0.00    +0.000 A 
ATOM     26  C   UNL     1      -0.216   9.643  22.599  0.00  0.00    +0.000 A 
ATOM     27  C   UNL     1       0.439   8.720  21.787  0.00  0.00    +0.000 A 
ATOM     28  C   UNL     1       0.922   9.085  20.520  0.00  0.00    +0.000 A 
ATOM     29  C   UNL     1       1.625   8.152  19.743  0.00  0.00    +0.000 A 
ATOM     30  C   UNL     1       2.091   8.485  18.473  0.00  0.00    +0.000 A 
ATOM     31  C   UNL     1       1.817   9.742  17.943  0.00  0.00    +0.000 A 
ATOM     32  C   UNL     1       1.137  10.691  18.713  0.00  0.00    +0.000 A 
ATOM     33  C   UNL     1       0.716  10.398  20.030  0.00  0.00    +0.000 A 
ENDBRANCH  23  24
ENDBRANCH  21  23
ENDBRANCH   3  21
TORSDOF 7
ENDMDL
MODEL 3
REMARK VINA RESULT:      -7.0      2.844      6.769
REMARK  Name = 
REMARK  7 active torsions:
REMARK  status: ('A' for Active; 'I' for Inactive)
REMARK    1  A    between atoms: C_2  and  O_3
REMARK    2  A    between atoms: C_2  and  C_4
REMARK    3  A    between atoms: C_5  and  C_6
REMARK    4  A    between atoms: C_12  and  C_13
REMARK    5  A    between atoms: C_13  and  O_15
REMARK    6  A    between atoms: O_15  and  C_16
REMARK    7  A    between atoms: C_26  and  C_27
REMARK                            x       y       z     vdW  Elec       q    Type
REMARK                         _______ _______ _______ _____ _____    ______ ____
ROOT
ATOM      1  C   UNL     1      -2.063  11.369  17.615  0.00  0.00    +0.000 C 
ATOM      2  C   UNL     1      -2.851  12.324  18.572  0.00  0.00    +0.000 C 
ATOM      3  C   UNL     1      -1.908  11.826  19.727  0.00  0.00    +0.000 C 
ATOM      4  C   UNL     1      -1.679  10.542  18.878  0.00  0.00    +0.000 C 
ENDROOT
BRANCH   2   5
ATOM      5  C   UNL     1      -4.435  12.180  18.755  0.00  0.00    +0.000 A 
ATOM      6  C   UNL     1      -5.343  12.074  17.684  0.00  0.00    +0.000 A 
ATOM      7  C   UNL     1      -6.718  11.917  17.885  0.00  0.00    +0.000 A 
ATOM      8  C   UNL     1      -7.233  11.868  19.174  0.00  0.00    +0.000 A 
ATOM      9  C   UNL     1      -6.373  11.975  20.258  0.00  0.00    +0.000 A 
ATOM     10  C   UNL     1      -4.998  12.127  20.047  0.00  0.00    +0.000 A 
ENDBRANCH   2   5
BRANCH   4  11
ATOM     11  C   UNL     1      -0.270   9.828  19.001  0.00  0.00    +0.000 A 
ATOM     12  C   UNL     1       0.543   9.659  17.863  0.00  0.00    +0.000 A 
ATOM     13  C   UNL     1       1.745   8.949  17.909  0.00  0.00    +0.000 A 
ATOM     14  C   UNL     1       2.177   8.393  19.106  0.00  0.00    +0.000 A 
ATOM     15  C   UNL     1       1.419   8.570  20.258  0.00  0.00    +0.000 A 
ATOM     16  C   UNL     1       0.219   9.283  20.204  0.00  0.00    +0.000 A 
ENDBRANCH   4  11
BRANCH   1  18
ATOM     17  O   UNL     1      -3.221   9.505  16.471  0.00  0.00    +0.000 OA
ATOM     18  C   UNL     1      -2.793  10.655  16.457  0.00  0.00    +0.000 C 
BRANCH  18  19
ATOM     19  O   UNL     1      -3.003  11.441  15.363  0.00  0.00    +0.000 OA
ATOM     20  H   UNL     1      -3.945  11.594  15.153  0.00  0.00    +0.000 HD
ENDBRANCH  18  19
ENDBRANCH   1  18
BRANCH   3  21
ATOM     21  C   UNL     1      -0.716  12.767  20.048  0.00  0.00    +0.000 C 
ATOM     22  O   UNL     1       0.145  13.127  19.238  0.00  0.00    +0.000 OA
BRANCH  21  23
ATOM     23  O   UNL     1      -0.814  13.266  21.350  0.00  0.00    +0.000 OA
BRANCH  23  24
ATOM     24  C   UNL     1      -1.961  14.058  21.536  0.00  0.00    +0.000 A 
ATOM     25  C   UNL     1      -2.098  15.216  20.757  0.00  0.00    +0.000 A 
ATOM     26  C   UNL     1      -3.205  16.031  20.916  0.00  0.00    +0.000 A 
ATOM     27  C   UNL     1      -4.174  15.698  21.859  0.00  0.00    +0.000 A 
ATOM     28  C   UNL     1      -4.058  14.535  22.638  0.00  0.00    +0.000 A 
ATOM     29  C   UNL     1      -5.021  14.249  23.618  0.00  0.00    +0.000 A 
ATOM     30  C   UNL     1      -4.938  13.088  24.385  0.00  0.00    +0.000 A 
ATOM     31  C   UNL     1      -3.917  12.174  24.146  0.00  0.00    +0.000 A 
ATOM     32  C   UNL     1      -2.937  12.454  23.189  0.00  0.00    +0.000 A 
ATOM     33  C   UNL     1      -2.963  13.657  22.448  0.00  0.00    +0.000 A 
ENDBRANCH  23  24
ENDBRANCH  21  23
ENDBRANCH   3  21
TORSDOF 7
ENDMDL
MODEL 4
REMARK VINA RESULT:      -6.9      2.843      6.808
REMARK  Name = 
REMARK  7 active torsions:
REMARK  status: ('A' for Active; 'I' for Inactive)
REMARK    1  A    between atoms: C_2  and  O_3
REMARK    2  A    between atoms: C_2  and  C_4
REMARK    3  A    between atoms: C_5  and  C_6
REMARK    4  A    between atoms: C_12  and  C_13
REMARK    5  A    between atoms: C_13  and  O_15
REMARK    6  A    between atoms: O_15  and  C_16
REMARK    7  A    between atoms: C_26  and  C_27
REMARK                            x       y       z     vdW  Elec       q    Type
REMARK                         _______ _______ _______ _____ _____    ______ ____
ROOT
ATOM      1  C   UNL     1      -2.179  10.924  17.391  0.00  0.00    +0.000 C 
ATOM      2  C   UNL     1      -2.908  12.127  18.078  0.00  0.00    +0.000 C 
ATOM      3  C   UNL     1      -1.909  11.952  19.279  0.00  0.00    +0.000 C 
ATOM      4  C   UNL     1      -1.735  10.476  18.816  0.00  0.00    +0.000 C 
ENDROOT
BRANCH   2   5
ATOM      5  C   UNL     1      -4.480  12.077  18.370  0.00  0.00    +0.000 A 
ATOM      6  C   UNL     1      -5.469  12.203  17.375  0.00  0.00    +0.000 A 
ATOM      7  C   UNL     1      -6.834  12.121  17.666  0.00  0.00    +0.000 A 
ATOM      8  C   UNL     1      -7.258  11.915  18.972  0.00  0.00    +0.000 A 
ATOM      9  C   UNL     1      -6.316  11.791  19.984  0.00  0.00    +0.000 A 
ATOM     10  C   UNL     1      -4.953  11.869  19.683  0.00  0.00    +0.000 A 
ENDBRANCH   2   5
BRANCH   4  11
ATOM     11  C   UNL     1      -0.328   9.794  19.067  0.00  0.00    +0.000 A 
ATOM     12  C   UNL     1       0.560   9.582  17.994  0.00  0.00    +0.000 A 
ATOM     13  C   UNL     1       1.767   8.896  18.154  0.00  0.00    +0.000 A 
ATOM     14  C   UNL     1       2.126   8.408  19.403  0.00  0.00    +0.000 A 
ATOM     15  C   UNL     1       1.292   8.630  20.493  0.00  0.00    +0.000 A 
ATOM     16  C   UNL     1       0.088   9.317  20.325  0.00  0.00    +0.000 A 
ENDBRANCH   4  11
BRANCH   1  18
ATOM     17  O   UNL     1      -2.957   9.869  15.292  0.00  0.00    +0.000 OA
ATOM     18  C   UNL     1      -2.975   9.930  16.517  0.00  0.00    +0.000 C 
BRANCH  18  19
ATOM     19  O   UNL     1      -3.704   9.025  17.228  0.00  0.00    +0.000 OA
ATOM     20  H   UNL     1      -4.553   9.369  17.567  0.00  0.00    +0.000 HD
ENDBRANCH  18  19
ENDBRANCH   1  18
BRANCH   3  21
ATOM     21  C   UNL     1      -0.693  12.918  19.264  0.00  0.00    +0.000 C 
ATOM     22  O   UNL     1       0.112  13.033  18.335  0.00  0.00    +0.000 OA
BRANCH  21  23
ATOM     23  O   UNL     1      -0.702  13.743  20.392  0.00  0.00    +0.000 OA
BRANCH  23  24
ATOM     24  C   UNL     1      -1.464  13.206  21.445  0.00  0.00    +0.000 A 
ATOM     25  C   UNL     1      -0.905  12.167  22.202  0.00  0.00    +0.000 A 
ATOM     26  C   UNL     1      -1.625  11.599  23.238  0.00  0.00    +0.000 A 
ATOM     27  C   UNL     1      -2.909  12.061  23.517  0.00  0.00    +0.000 A 
ATOM     28  C   UNL     1      -3.479  13.109  22.776  0.00  0.00    +0.000 A 
ATOM     29  C   UNL     1      -4.794  13.521  23.041  0.00  0.00    +0.000 A 
ATOM     30  C   UNL     1      -5.369  14.576  22.334  0.00  0.00    +0.000 A 
ATOM     31  C   UNL     1      -4.619  15.264  21.387  0.00  0.00    +0.000 A 
ATOM     32  C   UNL     1      -3.315  14.853  21.094  0.00  0.00    +0.000 A 
ATOM     33  C   UNL     1      -2.735  13.742  21.750  0.00  0.00    +0.000 A 
ENDBRANCH  23  24
ENDBRANCH  21  23
ENDBRANCH   3  21
TORSDOF 7
ENDMDL
MODEL 5
REMARK VINA RESULT:      -6.9      2.837      7.945
REMARK  Name = 
REMARK  7 active torsions:
REMARK  status: ('A' for Active; 'I' for Inactive)
REMARK    1  A    between atoms: C_2  and  O_3
REMARK    2  A    between atoms: C_2  and  C_4
REMARK    3  A    between atoms: C_5  and  C_6
REMARK    4  A    between atoms: C_12  and  C_13
REMARK    5  A    between atoms: C_13  and  O_15
REMARK    6  A    between atoms: O_15  and  C_16
REMARK    7  A    between atoms: C_26  and  C_27
REMARK                            x       y       z     vdW  Elec       q    Type
REMARK                         _______ _______ _______ _____ _____    ______ ____
ROOT
ATOM      1  C   UNL     1      -1.813  12.977  19.781  0.00  0.00    +0.000 C 
ATOM      2  C   UNL     1      -1.976  11.718  20.696  0.00  0.00    +0.000 C 
ATOM      3  C   UNL     1      -2.367  12.702  21.857  0.00  0.00    +0.000 C 
ATOM      4  C   UNL     1      -1.583  13.801  21.084  0.00  0.00    +0.000 C 
ENDROOT
BRANCH   2   5
ATOM      5  C   UNL     1      -0.758  10.704  20.923  0.00  0.00    +0.000 A 
ATOM      6  C   UNL     1      -0.201  10.414  22.184  0.00  0.00    +0.000 A 
ATOM      7  C   UNL     1       0.842   9.497  22.345  0.00  0.00    +0.000 A 
ATOM      8  C   UNL     1       1.370   8.840  21.242  0.00  0.00    +0.000 A 
ATOM      9  C   UNL     1       0.854   9.101  19.980  0.00  0.00    +0.000 A 
ATOM     10  C   UNL     1      -0.193  10.016  19.829  0.00  0.00    +0.000 A 
ENDBRANCH   2   5
BRANCH   4  11
ATOM     11  C   UNL     1      -2.095  15.294  21.218  0.00  0.00    +0.000 A 
ATOM     12  C   UNL     1      -1.283  16.272  21.824  0.00  0.00    +0.000 A 
ATOM     13  C   UNL     1      -1.733  17.575  22.051  0.00  0.00    +0.000 A 
ATOM     14  C   UNL     1      -3.016  17.941  21.664  0.00  0.00    +0.000 A 
ATOM     15  C   UNL     1      -3.834  17.013  21.031  0.00  0.00    +0.000 A 
ATOM     16  C   UNL     1      -3.375  15.713  20.807  0.00  0.00    +0.000 A 
ENDBRANCH   4  11
BRANCH   1  18
ATOM     17  O   UNL     1       0.460  13.278  18.849  0.00  0.00    +0.000 OA
ATOM     18  C   UNL     1      -0.725  13.005  18.685  0.00  0.00    +0.000 C 
BRANCH  18  19
ATOM     19  O   UNL     1      -1.169  12.629  17.453  0.00  0.00    +0.000 OA
ATOM     20  H   UNL     1      -0.505  12.158  16.913  0.00  0.00    +0.000 HD
ENDBRANCH  18  19
ENDBRANCH   1  18
BRANCH   3  21
ATOM     21  C   UNL     1      -3.894  12.859  22.094  0.00  0.00    +0.000 C 
ATOM     22  O   UNL     1      -4.761  12.779  21.217  0.00  0.00    +0.000 OA
BRANCH  21  23
ATOM     23  O   UNL     1      -4.176  12.973  23.458  0.00  0.00    +0.000 OA
BRANCH  23  24
ATOM     24  C   UNL     1      -4.550  14.279  23.821  0.00  0.00    +0.000 A 
ATOM     25  C   UNL     1      -5.850  14.704  23.514  0.00  0.00    +0.000 A 
ATOM     26  C   UNL     1      -6.256  15.985  23.841  0.00  0.00    +0.000 A 
ATOM     27  C   UNL     1      -5.363  16.850  24.468  0.00  0.00    +0.000 A 
ATOM     28  C   UNL     1      -4.061  16.437  24.794  0.00  0.00    +0.000 A 
ATOM     29  C   UNL     1      -3.162  17.343  25.378  0.00  0.00    +0.000 A 
ATOM     30  C   UNL     1      -1.874  16.945  25.731  0.00  0.00    +0.000 A 
ATOM     31  C   UNL     1      -1.485  15.622  25.551  0.00  0.00    +0.000 A 
ATOM     32  C   UNL     1      -2.360  14.712  24.950  0.00  0.00    +0.000 A 
ATOM     33  C   UNL     1      -3.646  15.110  24.520  0.00  0.00    +0.000 A 
ENDBRANCH  23  24
ENDBRANCH  21  23
ENDBRANCH   3  21
TORSDOF 7
ENDMDL
MODEL 6
REMARK VINA RESULT:      -6.8      3.500      6.723
REMARK  Name = 
REMARK  7 active torsions:
REMARK  status: ('A' for Active; 'I' for Inactive)
REMARK    1  A    between atoms: C_2  and  O_3
REMARK    2  A    between atoms: C_2  and  C_4
REMARK    3  A    between atoms: C_5  and  C_6
REMARK    4  A    between atoms: C_12  and  C_13
REMARK    5  A    between atoms: C_13  and  O_15
REMARK    6  A    between atoms: O_15  and  C_16
REMARK    7  A    between atoms: C_26  and  C_27
REMARK                            x       y       z     vdW  Elec       q    Type
REMARK                         _______ _______ _______ _____ _____    ______ ____
ROOT
ATOM      1  C   UNL     1      -5.862  11.925  19.677  0.00  0.00    +0.000 C 
ATOM      2  C   UNL     1      -4.363  11.494  19.553  0.00  0.00    +0.000 C 
ATOM      3  C   UNL     1      -3.986  12.892  20.165  0.00  0.00    +0.000 C 
ATOM      4  C   UNL     1      -5.363  13.401  19.648  0.00  0.00    +0.000 C 
ENDROOT
BRANCH   2   5
ATOM      5  C   UNL     1      -3.742  11.080  18.138  0.00  0.00    +0.000 A 
ATOM      6  C   UNL     1      -2.625  10.236  17.986  0.00  0.00    +0.000 A 
ATOM      7  C   UNL     1      -2.131   9.870  16.730  0.00  0.00    +0.000 A 
ATOM      8  C   UNL     1      -2.739  10.347  15.576  0.00  0.00    +0.000 A 
ATOM      9  C   UNL     1      -3.839  11.187  15.681  0.00  0.00    +0.000 A 
ATOM     10  C   UNL     1      -4.329  11.543  16.942  0.00  0.00    +0.000 A 
ENDBRANCH   2   5
BRANCH   4  11
ATOM     11  C   UNL     1      -6.084  14.534  20.488  0.00  0.00    +0.000 A 
ATOM     12  C   UNL     1      -7.189  14.220  21.304  0.00  0.00    +0.000 A 
ATOM     13  C   UNL     1      -7.914  15.203  21.982  0.00  0.00    +0.000 A 
ATOM     14  C   UNL     1      -7.545  16.537  21.871  0.00  0.00    +0.000 A 
ATOM     15  C   UNL     1      -6.438  16.881  21.103  0.00  0.00    +0.000 A 
ATOM     16  C   UNL     1      -5.718  15.893  20.429  0.00  0.00    +0.000 A 
ENDBRANCH   4  11
BRANCH   1  18
ATOM     17  O   UNL     1      -7.414  12.181  17.766  0.00  0.00    +0.000 OA
ATOM     18  C   UNL     1      -6.891  11.471  18.619  0.00  0.00    +0.000 C 
BRANCH  18  19
ATOM     19  O   UNL     1      -7.163  10.135  18.647  0.00  0.00    +0.000 OA
ATOM     20  H   UNL     1      -7.235   9.758  19.545  0.00  0.00    +0.000 HD
ENDBRANCH  18  19
ENDBRANCH   1  18
BRANCH   3  21
ATOM     21  C   UNL     1      -3.686  12.879  21.689  0.00  0.00    +0.000 C 
ATOM     22  O   UNL     1      -4.421  12.392  22.554  0.00  0.00    +0.000 OA
BRANCH  21  23
ATOM     23  O   UNL     1      -2.406  13.376  21.947  0.00  0.00    +0.000 OA
BRANCH  23  24
ATOM     24  C   UNL     1      -1.421  12.760  21.153  0.00  0.00    +0.000 A 
ATOM     25  C   UNL     1      -1.064  13.376  19.946  0.00  0.00    +0.000 A 
ATOM     26  C   UNL     1      -0.110  12.797  19.129  0.00  0.00    +0.000 A 
ATOM     27  C   UNL     1       0.485  11.597  19.509  0.00  0.00    +0.000 A 
ATOM     28  C   UNL     1       0.147  10.972  20.721  0.00  0.00    +0.000 A 
ATOM     29  C   UNL     1       0.721   9.737  21.057  0.00  0.00    +0.000 A 
ATOM     30  C   UNL     1       0.418   9.113  22.266  0.00  0.00    +0.000 A 
ATOM     31  C   UNL     1      -0.425   9.742  23.176  0.00  0.00    +0.000 A 
ATOM     32  C   UNL     1      -1.023  10.963  22.848  0.00  0.00    +0.000 A 
ATOM     33  C   UNL     1      -0.784  11.580  21.599  0.00  0.00    +0.000 A 
ENDBRANCH  23  24
ENDBRANCH  21  23
ENDBRANCH   3  21
TORSDOF 7
ENDMDL
MODEL 7
REMARK VINA RESULT:      -6.8      2.900      7.125
REMARK  Name = 
REMARK  7 active torsions:
REMARK  status: ('A' for Active; 'I' for Inactive)
REMARK    1  A    between atoms: C_2  and  O_3
REMARK    2  A    between atoms: C_2  and  C_4
REMARK    3  A    between atoms: C_5  and  C_6
REMARK    4  A    between atoms: C_12  and  C_13
REMARK    5  A    between atoms: C_13  and  O_15
REMARK    6  A    between atoms: O_15  and  C_16
REMARK    7  A    between atoms: C_26  and  C_27
REMARK                            x       y       z     vdW  Elec       q    Type
REMARK                         _______ _______ _______ _____ _____    ______ ____
ROOT
ATOM      1  C   UNL     1      -2.243  11.381  17.491  0.00  0.00    +0.000 C 
ATOM      2  C   UNL     1      -3.097  12.342  18.383  0.00  0.00    +0.000 C 
ATOM      3  C   UNL     1      -2.190  11.908  19.591  0.00  0.00    +0.000 C 
ATOM      4  C   UNL     1      -1.889  10.606  18.795  0.00  0.00    +0.000 C 
ENDROOT
BRANCH   2   5
ATOM      5  C   UNL     1      -4.682  12.157  18.504  0.00  0.00    +0.000 A 
ATOM      6  C   UNL     1      -5.322  11.556  19.606  0.00  0.00    +0.000 A 
ATOM      7  C   UNL     1      -6.713  11.442  19.690  0.00  0.00    +0.000 A 
ATOM      8  C   UNL     1      -7.515  11.924  18.664  0.00  0.00    +0.000 A 
ATOM      9  C   UNL     1      -6.925  12.519  17.557  0.00  0.00    +0.000 A 
ATOM     10  C   UNL     1      -5.533  12.633  17.484  0.00  0.00    +0.000 A 
ENDBRANCH   2   5
BRANCH   4  11
ATOM     11  C   UNL     1      -0.467   9.939  18.999  0.00  0.00    +0.000 A 
ATOM     12  C   UNL     1       0.393   9.747  17.900  0.00  0.00    +0.000 A 
ATOM     13  C   UNL     1       1.612   9.074  18.019  0.00  0.00    +0.000 A 
ATOM     14  C   UNL     1       2.013   8.580  19.253  0.00  0.00    +0.000 A 
ATOM     15  C   UNL     1       1.207   8.781  20.368  0.00  0.00    +0.000 A 
ATOM     16  C   UNL     1      -0.009   9.456  20.240  0.00  0.00    +0.000 A 
ENDBRANCH   4  11
BRANCH   1  18
ATOM     17  O   UNL     1      -3.228   9.428  16.335  0.00  0.00    +0.000 OA
ATOM     18  C   UNL     1      -2.902  10.610  16.326  0.00  0.00    +0.000 C 
BRANCH  18  19
ATOM     19  O   UNL     1      -3.176  11.380  15.235  0.00  0.00    +0.000 OA
ATOM     20  H   UNL     1      -3.691  12.186  15.430  0.00  0.00    +0.000 HD
ENDBRANCH  18  19
ENDBRANCH   1  18
BRANCH   3  21
ATOM     21  C   UNL     1      -1.040  12.894  19.931  0.00  0.00    +0.000 C 
ATOM     22  O   UNL     1       0.101  12.846  19.458  0.00  0.00    +0.000 OA
BRANCH  21  23
ATOM     23  O   UNL     1      -1.499  13.930  20.748  0.00  0.00    +0.000 OA
BRANCH  23  24
ATOM     24  C   UNL     1      -2.420  13.484  21.714  0.00  0.00    +0.000 A 
ATOM     25  C   UNL     1      -1.965  12.600  22.701  0.00  0.00    +0.000 A 
ATOM     26  C   UNL     1      -2.839  12.125  23.663  0.00  0.00    +0.000 A 
ATOM     27  C   UNL     1      -4.173  12.525  23.637  0.00  0.00    +0.000 A 
ATOM     28  C   UNL     1      -4.642  13.420  22.661  0.00  0.00    +0.000 A 
ATOM     29  C   UNL     1      -6.001  13.767  22.624  0.00  0.00    +0.000 A 
ATOM     30  C   UNL     1      -6.482  14.673  21.680  0.00  0.00    +0.000 A 
ATOM     31  C   UNL     1      -5.600  15.281  20.793  0.00  0.00    +0.000 A 
ATOM     32  C   UNL     1      -4.246  14.930  20.802  0.00  0.00    +0.000 A 
ATOM     33  C   UNL     1      -3.749  13.963  21.705  0.00  0.00    +0.000 A 
ENDBRANCH  23  24
ENDBRANCH  21  23
ENDBRANCH   3  21
TORSDOF 7
ENDMDL
MODEL 8
REMARK VINA RESULT:      -6.8      2.819      4.345
REMARK  Name = 
REMARK  7 active torsions:
REMARK  status: ('A' for Active; 'I' for Inactive)
REMARK    1  A    between atoms: C_2  and  O_3
REMARK    2  A    between atoms: C_2  and  C_4
REMARK    3  A    between atoms: C_5  and  C_6
REMARK    4  A    between atoms: C_12  and  C_13
REMARK    5  A    between atoms: C_13  and  O_15
REMARK    6  A    between atoms: O_15  and  C_16
REMARK    7  A    between atoms: C_26  and  C_27
REMARK                            x       y       z     vdW  Elec       q    Type
REMARK                         _______ _______ _______ _____ _____    ______ ____
ROOT
ATOM      1  C   UNL     1      -3.688  13.469  19.685  0.00  0.00    +0.000 C 
ATOM      2  C   UNL     1      -2.645  13.661  20.836  0.00  0.00    +0.000 C 
ATOM      3  C   UNL     1      -1.861  12.440  20.231  0.00  0.00    +0.000 C 
ATOM      4  C   UNL     1      -3.210  11.988  19.600  0.00  0.00    +0.000 C 
ENDROOT
BRANCH   2   5
ATOM      5  C   UNL     1      -3.095  13.603  22.370  0.00  0.00    +0.000 A 
ATOM      6  C   UNL     1      -3.190  14.734  23.205  0.00  0.00    +0.000 A 
ATOM      7  C   UNL     1      -3.620  14.646  24.533  0.00  0.00    +0.000 A 
ATOM      8  C   UNL     1      -3.964  13.415  25.075  0.00  0.00    +0.000 A 
ATOM      9  C   UNL     1      -3.879  12.274  24.289  0.00  0.00    +0.000 A 
ATOM     10  C   UNL     1      -3.453  12.372  22.960  0.00  0.00    +0.000 A 
ENDBRANCH   2   5
BRANCH   4  11
ATOM     11  C   UNL     1      -3.147  11.219  18.218  0.00  0.00    +0.000 A 
ATOM     12  C   UNL     1      -2.202  10.193  18.017  0.00  0.00    +0.000 A 
ATOM     13  C   UNL     1      -2.048   9.557  16.783  0.00  0.00    +0.000 A 
ATOM     14  C   UNL     1      -2.848   9.925  15.709  0.00  0.00    +0.000 A 
ATOM     15  C   UNL     1      -3.816  10.908  15.878  0.00  0.00    +0.000 A 
ATOM     16  C   UNL     1      -3.965  11.538  17.116  0.00  0.00    +0.000 A 
ENDBRANCH   4  11
BRANCH   1  18
ATOM     17  O   UNL     1      -6.024  12.932  20.299  0.00  0.00    +0.000 OA
ATOM     18  C   UNL     1      -5.185  13.751  19.938  0.00  0.00    +0.000 C 
BRANCH  18  19
ATOM     19  O   UNL     1      -5.537  15.059  19.786  0.00  0.00    +0.000 OA
ATOM     20  H   UNL     1      -4.782  15.673  19.712  0.00  0.00    +0.000 HD
ENDBRANCH  18  19
ENDBRANCH   1  18
BRANCH   3  21
ATOM     21  C   UNL     1      -0.665  12.820  19.316  0.00  0.00    +0.000 C 
ATOM     22  O   UNL     1      -0.759  13.387  18.222  0.00  0.00    +0.000 OA
BRANCH  21  23
ATOM     23  O   UNL     1       0.550  12.554  19.952  0.00  0.00    +0.000 OA
BRANCH  23  24
ATOM     24  C   UNL     1       0.592  11.264  20.512  0.00  0.00    +0.000 A 
ATOM     25  C   UNL     1       0.092  11.092  21.810  0.00  0.00    +0.000 A 
ATOM     26  C   UNL     1       0.125   9.843  22.405  0.00  0.00    +0.000 A 
ATOM     27  C   UNL     1       0.665   8.765  21.710  0.00  0.00    +0.000 A 
ATOM     28  C   UNL     1       1.159   8.918  20.404  0.00  0.00    +0.000 A 
ATOM     29  C   UNL     1       1.746   7.828  19.744  0.00  0.00    +0.000 A 
ATOM     30  C   UNL     1       2.220   7.952  18.439  0.00  0.00    +0.000 A 
ATOM     31  C   UNL     1       2.067   9.157  17.760  0.00  0.00    +0.000 A 
ATOM     32  C   UNL     1       1.503  10.259  18.410  0.00  0.00    +0.000 A 
ATOM     33  C   UNL     1       1.080  10.175  19.756  0.00  0.00    +0.000 A 
ENDBRANCH  23  24
ENDBRANCH  21  23
ENDBRANCH   3  21
TORSDOF 7
ENDMDL
MODEL 9
REMARK VINA RESULT:      -6.8      2.881      4.339
REMARK  Name = 
REMARK  7 active torsions:
REMARK  status: ('A' for Active; 'I' for Inactive)
REMARK    1  A    between atoms: C_2  and  O_3
REMARK    2  A    between atoms: C_2  and  C_4
REMARK    3  A    between atoms: C_5  and  C_6
REMARK    4  A    between atoms: C_12  and  C_13
REMARK    5  A    between atoms: C_13  and  O_15
REMARK    6  A    between atoms: O_15  and  C_16
REMARK    7  A    between atoms: C_26  and  C_27
REMARK                            x       y       z     vdW  Elec       q    Type
REMARK                         _______ _______ _______ _____ _____    ______ ____
ROOT
ATOM      1  C   UNL     1      -3.776  13.493  19.628  0.00  0.00    +0.000 C 
ATOM      2  C   UNL     1      -2.734  13.800  20.754  0.00  0.00    +0.000 C 
ATOM      3  C   UNL     1      -1.850  12.650  20.148  0.00  0.00    +0.000 C 
ATOM      4  C   UNL     1      -3.162  12.063  19.552  0.00  0.00    +0.000 C 
ENDROOT
BRANCH   2   5
ATOM      5  C   UNL     1      -3.146  13.722  22.299  0.00  0.00    +0.000 A 
ATOM      6  C   UNL     1      -3.363  14.851  23.112  0.00  0.00    +0.000 A 
ATOM      7  C   UNL     1      -3.754  14.742  24.450  0.00  0.00    +0.000 A 
ATOM      8  C   UNL     1      -3.936  13.490  25.024  0.00  0.00    +0.000 A 
ATOM      9  C   UNL     1      -3.726  12.351  24.259  0.00  0.00    +0.000 A 
ATOM     10  C   UNL     1      -3.340  12.470  22.920  0.00  0.00    +0.000 A 
ENDBRANCH   2   5
BRANCH   4  11
ATOM     11  C   UNL     1      -3.054  11.283  18.178  0.00  0.00    +0.000 A 
ATOM     12  C   UNL     1      -2.092  10.268  18.011  0.00  0.00    +0.000 A 
ATOM     13  C   UNL     1      -1.898   9.623  16.786  0.00  0.00    +0.000 A 
ATOM     14  C   UNL     1      -2.674   9.972  15.689  0.00  0.00    +0.000 A 
ATOM     15  C   UNL     1      -3.658  10.944  15.826  0.00  0.00    +0.000 A 
ATOM     16  C   UNL     1      -3.847  11.582  17.053  0.00  0.00    +0.000 A 
ENDBRANCH   4  11
BRANCH   1  18
ATOM     17  O   UNL     1      -5.976  12.865  20.571  0.00  0.00    +0.000 OA
ATOM     18  C   UNL     1      -5.288  13.636  19.910  0.00  0.00    +0.000 C 
BRANCH  18  19
ATOM     19  O   UNL     1      -5.843  14.771  19.399  0.00  0.00    +0.000 OA
ATOM     20  H   UNL     1      -6.799  14.701  19.211  0.00  0.00    +0.000 HD
ENDBRANCH  18  19
ENDBRANCH   1  18
BRANCH   3  21
ATOM     21  C   UNL     1      -0.714  13.127  19.203  0.00  0.00    +0.000 C 
ATOM     22  O   UNL     1      -0.877  13.797  18.178  0.00  0.00    +0.000 OA
BRANCH  21  23
ATOM     23  O   UNL     1       0.540  12.813  19.735  0.00  0.00    +0.000 OA
BRANCH  23  24
ATOM     24  C   UNL     1       0.844  11.445  19.616  0.00  0.00    +0.000 A 
ATOM     25  C   UNL     1       1.488  11.010  18.449  0.00  0.00    +0.000 A 
ATOM     26  C   UNL     1       1.794   9.671  18.285  0.00  0.00    +0.000 A 
ATOM     27  C   UNL     1       1.453   8.760  19.281  0.00  0.00    +0.000 A 
ATOM     28  C   UNL     1       0.819   9.181  20.461  0.00  0.00    +0.000 A 
ATOM     29  C   UNL     1       0.437   8.237  21.427  0.00  0.00    +0.000 A 
ATOM     30  C   UNL     1      -0.171   8.636  22.616  0.00  0.00    +0.000 A 
ATOM     31  C   UNL     1      -0.359   9.989  22.876  0.00  0.00    +0.000 A 
ATOM     32  C   UNL     1      -0.004  10.942  21.916  0.00  0.00    +0.000 A 
ATOM     33  C   UNL     1       0.550  10.555  20.674  0.00  0.00    +0.000 A 
ENDBRANCH  23  24
ENDBRANCH  21  23
ENDBRANCH   3  21
TORSDOF 7
ENDMDL
