MODEL 1
REMARK VINA RESULT:      -8.6      0.000      0.000
REMARK  Name = 
REMARK  6 active torsions:
REMARK  status: ('A' for Active; 'I' for Inactive)
REMARK    1  A    between atoms: C_1  and  C_2
REMARK    2  A    between atoms: C_2  and  N_3
REMARK    3  A    between atoms: C_2  and  C_18
REMARK    4  A    between atoms: C_4  and  C_6
REMARK    5  A    between atoms: C_6  and  C_7
REMARK    6  A    between atoms: C_7  and  C_8
REMARK                            x       y       z     vdW  Elec       q    Type
REMARK                         _______ _______ _______ _____ _____    ______ ____
ROOT
ATOM      1  N   UNL     1       2.253   5.449  19.187  0.00  0.00    +0.000 N 
ATOM      2  C   UNL     1       1.742   4.296  18.633  0.00  0.00    +0.000 C 
ATOM      3  O   UNL     1       1.188   4.269  17.539  0.00  0.00    +0.000 OA
ATOM      4  H   UNL     1       2.840   5.377  20.012  0.00  0.00    +0.000 HD
ENDROOT
BRANCH   1   6
ATOM      5  C   UNL     1       3.707   6.948  17.876  0.00  0.00    +0.000 C 
ATOM      6  C   UNL     1       2.304   6.693  18.434  0.00  0.00    +0.000 C 
BRANCH   6   7
ATOM      7  C   UNL     1       1.849   7.893  19.242  0.00  0.00    +0.000 A 
ATOM      8  C   UNL     1       1.692   7.765  20.635  0.00  0.00    +0.000 A 
ATOM      9  C   UNL     1       1.196   8.826  21.394  0.00  0.00    +0.000 A 
ATOM     10  C   UNL     1       0.855  10.019  20.768  0.00  0.00    +0.000 A 
ATOM     11  F   UNL     1       0.366  11.030  21.499  0.00  0.00    +0.000 F 
ATOM     12  C   UNL     1       1.004  10.175  19.398  0.00  0.00    +0.000 A 
ATOM     13  C   UNL     1       1.493   9.111  18.647  0.00  0.00    +0.000 A 
ATOM     14  F   UNL     1       1.611   9.268  17.319  0.00  0.00    +0.000 F 
ENDBRANCH   6   7
ENDBRANCH   1   6
BRANCH   2  15
ATOM     15  C   UNL     1       1.872   3.074  19.520  0.00  0.00    +0.000 C 
BRANCH  15  16
ATOM     16  C   UNL     1       2.949   2.136  18.990  0.00  0.00    +0.000 C 
BRANCH  16  17
ATOM     17  C   UNL     1       4.104   2.896  18.449  0.00  0.00    +0.000 C 
ATOM     18  N   UNL     1       4.405   3.059  17.194  0.00  0.00    +0.000 NA
ATOM     19  C   UNL     1       5.566   3.812  17.261  0.00  0.00    +0.000 C 
ATOM     20  C   UNL     1       6.176   4.328  16.172  0.00  0.00    +0.000 C 
ATOM     21  N   UNL     1       5.767   4.160  14.872  0.00  0.00    +0.000 NA
ATOM     22  C   UNL     1       6.689   4.801  14.242  0.00  0.00    +0.000 C 
ATOM     23  N   UNL     1       7.647   5.382  15.041  0.00  0.00    +0.000 NA
ATOM     24  N   UNL     1       7.320   5.091  16.220  0.00  0.00    +0.000 NA
ATOM     25  N   UNL     1       5.970   3.991  18.575  0.00  0.00    +0.000 N 
ATOM     26  O   UNL     1       4.938   3.468  19.369  0.00  0.00    +0.000 OA
ATOM     27  H   UNL     1       6.224   4.956  18.781  0.00  0.00    +0.000 HD
ENDBRANCH  16  17
ENDBRANCH  15  16
ENDBRANCH   2  15
TORSDOF 5
ENDMDL
MODEL 2
REMARK VINA RESULT:      -8.4      0.989      1.392
REMARK  Name = 
REMARK  6 active torsions:
REMARK  status: ('A' for Active; 'I' for Inactive)
REMARK    1  A    between atoms: C_1  and  C_2
REMARK    2  A    between atoms: C_2  and  N_3
REMARK    3  A    between atoms: C_2  and  C_18
REMARK    4  A    between atoms: C_4  and  C_6
REMARK    5  A    between atoms: C_6  and  C_7
REMARK    6  A    between atoms: C_7  and  C_8
REMARK                            x       y       z     vdW  Elec       q    Type
REMARK                         _______ _______ _______ _____ _____    ______ ____
ROOT
ATOM      1  N   UNL     1       2.577   5.450  18.846  0.00  0.00    +0.000 N 
ATOM      2  C   UNL     1       1.828   4.355  18.474  0.00  0.00    +0.000 C 
ATOM      3  O   UNL     1       1.106   4.345  17.482  0.00  0.00    +0.000 OA
ATOM      4  H   UNL     1       3.273   5.341  19.576  0.00  0.00    +0.000 HD
ENDROOT
BRANCH   1   6
ATOM      5  C   UNL     1       4.137   6.946  17.661  0.00  0.00    +0.000 C 
ATOM      6  C   UNL     1       2.678   6.624  17.993  0.00  0.00    +0.000 C 
BRANCH   6   7
ATOM      7  C   UNL     1       2.005   7.847  18.587  0.00  0.00    +0.000 A 
ATOM      8  C   UNL     1       1.795   8.978  17.777  0.00  0.00    +0.000 A 
ATOM      9  C   UNL     1       1.255  10.147  18.316  0.00  0.00    +0.000 A 
ATOM     10  C   UNL     1       0.920  10.191  19.664  0.00  0.00    +0.000 A 
ATOM     11  F   UNL     1       0.414  11.320  20.180  0.00  0.00    +0.000 F 
ATOM     12  C   UNL     1       1.111   9.090  20.484  0.00  0.00    +0.000 A 
ATOM     13  C   UNL     1       1.657   7.931  19.942  0.00  0.00    +0.000 A 
ATOM     14  F   UNL     1       1.857   6.879  20.752  0.00  0.00    +0.000 F 
ENDBRANCH   6   7
ENDBRANCH   1   6
BRANCH   2  15
ATOM     15  C   UNL     1       1.928   3.184  19.430  0.00  0.00    +0.000 C 
BRANCH  15  16
ATOM     16  C   UNL     1       3.012   2.212  18.980  0.00  0.00    +0.000 C 
BRANCH  16  17
ATOM     17  C   UNL     1       4.177   2.935  18.408  0.00  0.00    +0.000 C 
ATOM     18  N   UNL     1       4.443   3.100  17.146  0.00  0.00    +0.000 NA
ATOM     19  C   UNL     1       5.632   3.808  17.182  0.00  0.00    +0.000 C 
ATOM     20  C   UNL     1       6.225   4.312  16.077  0.00  0.00    +0.000 C 
ATOM     21  N   UNL     1       5.769   4.173  14.791  0.00  0.00    +0.000 NA
ATOM     22  C   UNL     1       6.693   4.786  14.136  0.00  0.00    +0.000 C 
ATOM     23  N   UNL     1       7.697   5.323  14.908  0.00  0.00    +0.000 NA
ATOM     24  N   UNL     1       7.398   5.032  16.095  0.00  0.00    +0.000 NA
ATOM     25  N   UNL     1       6.086   3.960  18.484  0.00  0.00    +0.000 N 
ATOM     26  O   UNL     1       5.061   3.467  19.305  0.00  0.00    +0.000 OA
ATOM     27  H   UNL     1       6.381   4.912  18.689  0.00  0.00    +0.000 HD
ENDBRANCH  16  17
ENDBRANCH  15  16
ENDBRANCH   2  15
TORSDOF 5
ENDMDL
MODEL 3
REMARK VINA RESULT:      -8.3      4.128      5.549
REMARK  Name = 
REMARK  6 active torsions:
REMARK  status: ('A' for Active; 'I' for Inactive)
REMARK    1  A    between atoms: C_1  and  C_2
REMARK    2  A    between atoms: C_2  and  N_3
REMARK    3  A    between atoms: C_2  and  C_18
REMARK    4  A    between atoms: C_4  and  C_6
REMARK    5  A    between atoms: C_6  and  C_7
REMARK    6  A    between atoms: C_7  and  C_8
REMARK                            x       y       z     vdW  Elec       q    Type
REMARK                         _______ _______ _______ _____ _____    ______ ____
ROOT
ATOM      1  N   UNL     1       4.211   5.685  17.737  0.00  0.00    +0.000 N 
ATOM      2  C   UNL     1       4.796   4.500  17.350  0.00  0.00    +0.000 C 
ATOM      3  O   UNL     1       4.180   3.441  17.282  0.00  0.00    +0.000 OA
ATOM      4  H   UNL     1       4.729   6.549  17.615  0.00  0.00    +0.000 HD
ENDROOT
BRANCH   1   6
ATOM      5  C   UNL     1       2.355   7.233  18.228  0.00  0.00    +0.000 C 
ATOM      6  C   UNL     1       2.774   5.788  17.943  0.00  0.00    +0.000 C 
BRANCH   6   7
ATOM      7  C   UNL     1       2.269   4.882  19.049  0.00  0.00    +0.000 A 
ATOM      8  C   UNL     1       2.798   5.016  20.345  0.00  0.00    +0.000 A 
ATOM      9  C   UNL     1       2.415   4.143  21.364  0.00  0.00    +0.000 A 
ATOM     10  C   UNL     1       1.500   3.132  21.094  0.00  0.00    +0.000 A 
ATOM     11  F   UNL     1       1.145   2.288  22.072  0.00  0.00    +0.000 F 
ATOM     12  C   UNL     1       0.958   2.979  19.827  0.00  0.00    +0.000 A 
ATOM     13  C   UNL     1       1.350   3.849  18.815  0.00  0.00    +0.000 A 
ATOM     14  F   UNL     1       0.835   3.675  17.588  0.00  0.00    +0.000 F 
ENDBRANCH   6   7
ENDBRANCH   1   6
BRANCH   2  15
ATOM     15  C   UNL     1       6.282   4.606  17.074  0.00  0.00    +0.000 C 
BRANCH  15  16
ATOM     16  C   UNL     1       6.610   5.927  16.389  0.00  0.00    +0.000 C 
BRANCH  16  17
ATOM     17  C   UNL     1       7.347   6.837  17.303  0.00  0.00    +0.000 C 
ATOM     18  N   UNL     1       7.628   8.088  17.088  0.00  0.00    +0.000 NA
ATOM     19  C   UNL     1       8.333   8.434  18.230  0.00  0.00    +0.000 C 
ATOM     20  C   UNL     1       8.725   9.699  18.500  0.00  0.00    +0.000 C 
ATOM     21  N   UNL     1       8.520  10.789  17.693  0.00  0.00    +0.000 NA
ATOM     22  C   UNL     1       9.106  11.711  18.375  0.00  0.00    +0.000 C 
ATOM     23  N   UNL     1       9.655  11.297  19.566  0.00  0.00    +0.000 NA
ATOM     24  N   UNL     1       9.411  10.065  19.635  0.00  0.00    +0.000 NA
ATOM     25  N   UNL     1       8.528   7.334  19.050  0.00  0.00    +0.000 N 
ATOM     26  O   UNL     1       7.780   6.293  18.480  0.00  0.00    +0.000 OA
ATOM     27  H   UNL     1       8.317   7.529  20.027  0.00  0.00    +0.000 HD
ENDBRANCH  16  17
ENDBRANCH  15  16
ENDBRANCH   2  15
TORSDOF 5
ENDMDL
MODEL 4
REMARK VINA RESULT:      -8.0      6.695      8.595
REMARK  Name = 
REMARK  6 active torsions:
REMARK  status: ('A' for Active; 'I' for Inactive)
REMARK    1  A    between atoms: C_1  and  C_2
REMARK    2  A    between atoms: C_2  and  N_3
REMARK    3  A    between atoms: C_2  and  C_18
REMARK    4  A    between atoms: C_4  and  C_6
REMARK    5  A    between atoms: C_6  and  C_7
REMARK    6  A    between atoms: C_7  and  C_8
REMARK                            x       y       z     vdW  Elec       q    Type
REMARK                         _______ _______ _______ _____ _____    ______ ____
ROOT
ATOM      1  N   UNL     1       7.012   6.874  16.908  0.00  0.00    +0.000 N 
ATOM      2  C   UNL     1       7.781   7.553  17.827  0.00  0.00    +0.000 C 
ATOM      3  O   UNL     1       8.348   7.000  18.764  0.00  0.00    +0.000 OA
ATOM      4  H   UNL     1       6.708   7.359  16.070  0.00  0.00    +0.000 HD
ENDROOT
BRANCH   1   6
ATOM      5  C   UNL     1       7.139   4.861  15.490  0.00  0.00    +0.000 C 
ATOM      6  C   UNL     1       6.947   5.420  16.902  0.00  0.00    +0.000 C 
BRANCH   6   7
ATOM      7  C   UNL     1       5.658   4.884  17.495  0.00  0.00    +0.000 A 
ATOM      8  C   UNL     1       4.617   4.488  16.635  0.00  0.00    +0.000 A 
ATOM      9  C   UNL     1       3.390   4.068  17.150  0.00  0.00    +0.000 A 
ATOM     10  C   UNL     1       3.196   4.040  18.527  0.00  0.00    +0.000 A 
ATOM     11  F   UNL     1       2.012   3.650  19.016  0.00  0.00    +0.000 F 
ATOM     12  C   UNL     1       4.206   4.419  19.398  0.00  0.00    +0.000 A 
ATOM     13  C   UNL     1       5.424   4.843  18.876  0.00  0.00    +0.000 A 
ATOM     14  F   UNL     1       6.386   5.228  19.730  0.00  0.00    +0.000 F 
ENDBRANCH   6   7
ENDBRANCH   1   6
BRANCH   2  15
ATOM     15  C   UNL     1       7.818   9.053  17.613  0.00  0.00    +0.000 C 
BRANCH  15  16
ATOM     16  C   UNL     1       8.818   9.707  18.558  0.00  0.00    +0.000 C 
BRANCH  16  17
ATOM     17  C   UNL     1       9.060  11.125  18.185  0.00  0.00    +0.000 C 
ATOM     18  N   UNL     1      10.090  11.847  18.515  0.00  0.00    +0.000 NA
ATOM     19  C   UNL     1       9.794  13.070  17.934  0.00  0.00    +0.000 C 
ATOM     20  C   UNL     1      10.659  14.107  17.916  0.00  0.00    +0.000 C 
ATOM     21  N   UNL     1      11.909  14.116  18.482  0.00  0.00    +0.000 NA
ATOM     22  C   UNL     1      12.286  15.319  18.223  0.00  0.00    +0.000 C 
ATOM     23  N   UNL     1      11.379  16.076  17.518  0.00  0.00    +0.000 NA
ATOM     24  N   UNL     1      10.389  15.323  17.331  0.00  0.00    +0.000 NA
ATOM     25  N   UNL     1       8.536  13.055  17.352  0.00  0.00    +0.000 N 
ATOM     26  O   UNL     1       8.092  11.727  17.430  0.00  0.00    +0.000 OA
ATOM     27  H   UNL     1       8.531  13.456  16.415  0.00  0.00    +0.000 HD
ENDBRANCH  16  17
ENDBRANCH  15  16
ENDBRANCH   2  15
TORSDOF 5
ENDMDL
MODEL 5
REMARK VINA RESULT:      -8.0      4.070      5.481
REMARK  Name = 
REMARK  6 active torsions:
REMARK  status: ('A' for Active; 'I' for Inactive)
REMARK    1  A    between atoms: C_1  and  C_2
REMARK    2  A    between atoms: C_2  and  N_3
REMARK    3  A    between atoms: C_2  and  C_18
REMARK    4  A    between atoms: C_4  and  C_6
REMARK    5  A    between atoms: C_6  and  C_7
REMARK    6  A    between atoms: C_7  and  C_8
REMARK                            x       y       z     vdW  Elec       q    Type
REMARK                         _______ _______ _______ _____ _____    ______ ____
ROOT
ATOM      1  N   UNL     1       4.394   5.336  17.770  0.00  0.00    +0.000 N 
ATOM      2  C   UNL     1       4.856   4.323  16.958  0.00  0.00    +0.000 C 
ATOM      3  O   UNL     1       4.118   3.489  16.444  0.00  0.00    +0.000 OA
ATOM      4  H   UNL     1       5.028   6.084  18.028  0.00  0.00    +0.000 HD
ENDROOT
BRANCH   1   6
ATOM      5  C   UNL     1       2.679   7.056  18.192  0.00  0.00    +0.000 C 
ATOM      6  C   UNL     1       2.969   5.573  17.948  0.00  0.00    +0.000 C 
BRANCH   6   7
ATOM      7  C   UNL     1       2.367   4.743  19.066  0.00  0.00    +0.000 A 
ATOM      8  C   UNL     1       2.761   4.987  20.394  0.00  0.00    +0.000 A 
ATOM      9  C   UNL     1       2.288   4.186  21.435  0.00  0.00    +0.000 A 
ATOM     10  C   UNL     1       1.418   3.139  21.154  0.00  0.00    +0.000 A 
ATOM     11  F   UNL     1       0.977   2.364  22.155  0.00  0.00    +0.000 F 
ATOM     12  C   UNL     1       1.008   2.879  19.855  0.00  0.00    +0.000 A 
ATOM     13  C   UNL     1       1.489   3.677  18.823  0.00  0.00    +0.000 A 
ATOM     14  F   UNL     1       1.102   3.400  17.568  0.00  0.00    +0.000 F 
ENDBRANCH   6   7
ENDBRANCH   1   6
BRANCH   2  15
ATOM     15  C   UNL     1       6.362   4.295  16.802  0.00  0.00    +0.000 C 
BRANCH  15  16
ATOM     16  C   UNL     1       7.042   4.922  18.014  0.00  0.00    +0.000 C 
BRANCH  16  17
ATOM     17  C   UNL     1       7.264   6.376  17.812  0.00  0.00    +0.000 C 
ATOM     18  N   UNL     1       7.990   7.159  18.555  0.00  0.00    +0.000 NA
ATOM     19  C   UNL     1       7.828   8.389  17.938  0.00  0.00    +0.000 C 
ATOM     20  C   UNL     1       8.512   9.494  18.305  0.00  0.00    +0.000 C 
ATOM     21  N   UNL     1       9.417   9.570  19.333  0.00  0.00    +0.000 NA
ATOM     22  C   UNL     1       9.739  10.816  19.285  0.00  0.00    +0.000 C 
ATOM     23  N   UNL     1       9.121  11.540  18.291  0.00  0.00    +0.000 NA
ATOM     24  N   UNL     1       8.377  10.720  17.694  0.00  0.00    +0.000 NA
ATOM     25  N   UNL     1       6.923   8.308  16.891  0.00  0.00    +0.000 N 
ATOM     26  O   UNL     1       6.628   6.944  16.744  0.00  0.00    +0.000 OA
ATOM     27  H   UNL     1       7.256   8.769  16.046  0.00  0.00    +0.000 HD
ENDBRANCH  16  17
ENDBRANCH  15  16
ENDBRANCH   2  15
TORSDOF 5
ENDMDL
MODEL 6
REMARK VINA RESULT:      -7.9      5.558      7.439
REMARK  Name = 
REMARK  6 active torsions:
REMARK  status: ('A' for Active; 'I' for Inactive)
REMARK    1  A    between atoms: C_1  and  C_2
REMARK    2  A    between atoms: C_2  and  N_3
REMARK    3  A    between atoms: C_2  and  C_18
REMARK    4  A    between atoms: C_4  and  C_6
REMARK    5  A    between atoms: C_6  and  C_7
REMARK    6  A    between atoms: C_7  and  C_8
REMARK                            x       y       z     vdW  Elec       q    Type
REMARK                         _______ _______ _______ _____ _____    ______ ____
ROOT
ATOM      1  N   UNL     1       6.488   6.175  17.167  0.00  0.00    +0.000 N 
ATOM      2  C   UNL     1       7.486   5.915  18.080  0.00  0.00    +0.000 C 
ATOM      3  O   UNL     1       7.774   4.781  18.451  0.00  0.00    +0.000 OA
ATOM      4  H   UNL     1       6.410   7.110  16.781  0.00  0.00    +0.000 HD
ENDROOT
BRANCH   1   6
ATOM      5  C   UNL     1       5.567   5.460  14.994  0.00  0.00    +0.000 C 
ATOM      6  C   UNL     1       5.806   5.099  16.463  0.00  0.00    +0.000 C 
BRANCH   6   7
ATOM      7  C   UNL     1       4.494   4.705  17.114  0.00  0.00    +0.000 A 
ATOM      8  C   UNL     1       4.165   3.342  17.228  0.00  0.00    +0.000 A 
ATOM      9  C   UNL     1       2.930   2.950  17.746  0.00  0.00    +0.000 A 
ATOM     10  C   UNL     1       2.018   3.917  18.154  0.00  0.00    +0.000 A 
ATOM     11  F   UNL     1       0.828   3.536  18.638  0.00  0.00    +0.000 F 
ATOM     12  C   UNL     1       2.317   5.267  18.058  0.00  0.00    +0.000 A 
ATOM     13  C   UNL     1       3.548   5.650  17.534  0.00  0.00    +0.000 A 
ATOM     14  F   UNL     1       3.816   6.961  17.426  0.00  0.00    +0.000 F 
ENDBRANCH   6   7
ENDBRANCH   1   6
BRANCH   2  15
ATOM     15  C   UNL     1       8.159   7.156  18.630  0.00  0.00    +0.000 C 
BRANCH  15  16
ATOM     16  C   UNL     1       7.893   8.357  17.731  0.00  0.00    +0.000 C 
BRANCH  16  17
ATOM     17  C   UNL     1       8.516   9.587  18.282  0.00  0.00    +0.000 C 
ATOM     18  N   UNL     1       8.393  10.794  17.813  0.00  0.00    +0.000 NA
ATOM     19  C   UNL     1       9.186  11.531  18.677  0.00  0.00    +0.000 C 
ATOM     20  C   UNL     1       9.260  12.880  18.642  0.00  0.00    +0.000 C 
ATOM     21  N   UNL     1       8.607  13.694  17.751  0.00  0.00    +0.000 NA
ATOM     22  C   UNL     1       9.039  14.851  18.115  0.00  0.00    +0.000 C 
ATOM     23  N   UNL     1       9.905  14.841  19.184  0.00  0.00    +0.000 NA
ATOM     24  N   UNL     1      10.029  13.630  19.502  0.00  0.00    +0.000 NA
ATOM     25  N   UNL     1       9.835  10.709  19.585  0.00  0.00    +0.000 N 
ATOM     26  O   UNL     1       9.306   9.425  19.385  0.00  0.00    +0.000 OA
ATOM     27  H   UNL     1       9.776  11.055  20.541  0.00  0.00    +0.000 HD
ENDBRANCH  16  17
ENDBRANCH  15  16
ENDBRANCH   2  15
TORSDOF 5
ENDMDL
MODEL 7
REMARK VINA RESULT:      -7.9      5.369      7.244
REMARK  Name = 
REMARK  6 active torsions:
REMARK  status: ('A' for Active; 'I' for Inactive)
REMARK    1  A    between atoms: C_1  and  C_2
REMARK    2  A    between atoms: C_2  and  N_3
REMARK    3  A    between atoms: C_2  and  C_18
REMARK    4  A    between atoms: C_4  and  C_6
REMARK    5  A    between atoms: C_6  and  C_7
REMARK    6  A    between atoms: C_7  and  C_8
REMARK                            x       y       z     vdW  Elec       q    Type
REMARK                         _______ _______ _______ _____ _____    ______ ____
ROOT
ATOM      1  N   UNL     1       5.858   4.922  17.950  0.00  0.00    +0.000 N 
ATOM      2  C   UNL     1       7.147   5.257  17.596  0.00  0.00    +0.000 C 
ATOM      3  O   UNL     1       7.819   4.593  16.813  0.00  0.00    +0.000 OA
ATOM      4  H   UNL     1       5.303   5.595  18.469  0.00  0.00    +0.000 HD
ENDROOT
BRANCH   1   6
ATOM      5  C   UNL     1       5.063   4.059  15.782  0.00  0.00    +0.000 C 
ATOM      6  C   UNL     1       5.151   3.833  17.294  0.00  0.00    +0.000 C 
BRANCH   6   7
ATOM      7  C   UNL     1       3.763   3.603  17.859  0.00  0.00    +0.000 A 
ATOM      8  C   UNL     1       2.996   4.708  18.272  0.00  0.00    +0.000 A 
ATOM      9  C   UNL     1       1.749   4.524  18.872  0.00  0.00    +0.000 A 
ATOM     10  C   UNL     1       1.262   3.236  19.063  0.00  0.00    +0.000 A 
ATOM     11  F   UNL     1       0.071   3.064  19.652  0.00  0.00    +0.000 F 
ATOM     12  C   UNL     1       1.994   2.129  18.662  0.00  0.00    +0.000 A 
ATOM     13  C   UNL     1       3.238   2.320  18.070  0.00  0.00    +0.000 A 
ATOM     14  F   UNL     1       3.946   1.239  17.707  0.00  0.00    +0.000 F 
ENDBRANCH   6   7
ENDBRANCH   1   6
BRANCH   2  15
ATOM     15  C   UNL     1       7.683   6.485  18.304  0.00  0.00    +0.000 C 
BRANCH  15  16
ATOM     16  C   UNL     1       7.602   7.707  17.398  0.00  0.00    +0.000 C 
BRANCH  16  17
ATOM     17  C   UNL     1       8.216   8.895  18.045  0.00  0.00    +0.000 C 
ATOM     18  N   UNL     1       8.214  10.113  17.588  0.00  0.00    +0.000 NA
ATOM     19  C   UNL     1       8.933  10.795  18.556  0.00  0.00    +0.000 C 
ATOM     20  C   UNL     1       9.080  12.138  18.557  0.00  0.00    +0.000 C 
ATOM     21  N   UNL     1       8.583  12.997  17.610  0.00  0.00    +0.000 NA
ATOM     22  C   UNL     1       9.026  14.125  18.047  0.00  0.00    +0.000 C 
ATOM     23  N   UNL     1       9.754  14.054  19.212  0.00  0.00    +0.000 NA
ATOM     24  N   UNL     1       9.776  12.834  19.518  0.00  0.00    +0.000 NA
ATOM     25  N   UNL     1       9.424   9.927  19.519  0.00  0.00    +0.000 N 
ATOM     26  O   UNL     1       8.857   8.676  19.232  0.00  0.00    +0.000 OA
ATOM     27  H   UNL     1       9.267  10.262  20.468  0.00  0.00    +0.000 HD
ENDBRANCH  16  17
ENDBRANCH  15  16
ENDBRANCH   2  15
TORSDOF 5
ENDMDL
MODEL 8
REMARK VINA RESULT:      -7.8      6.618      8.055
REMARK  Name = 
REMARK  6 active torsions:
REMARK  status: ('A' for Active; 'I' for Inactive)
REMARK    1  A    between atoms: C_1  and  C_2
REMARK    2  A    between atoms: C_2  and  N_3
REMARK    3  A    between atoms: C_2  and  C_18
REMARK    4  A    between atoms: C_4  and  C_6
REMARK    5  A    between atoms: C_6  and  C_7
REMARK    6  A    between atoms: C_7  and  C_8
REMARK                            x       y       z     vdW  Elec       q    Type
REMARK                         _______ _______ _______ _____ _____    ______ ____
ROOT
ATOM      1  N   UNL     1       6.516   7.527  17.041  0.00  0.00    +0.000 N 
ATOM      2  C   UNL     1       7.618   7.711  17.846  0.00  0.00    +0.000 C 
ATOM      3  O   UNL     1       8.050   6.844  18.599  0.00  0.00    +0.000 OA
ATOM      4  H   UNL     1       6.310   8.219  16.328  0.00  0.00    +0.000 HD
ENDROOT
BRANCH   1   6
ATOM      5  C   UNL     1       5.444   5.953  15.476  0.00  0.00    +0.000 C 
ATOM      6  C   UNL     1       5.877   6.226  16.919  0.00  0.00    +0.000 C 
BRANCH   6   7
ATOM      7  C   UNL     1       4.691   6.059  17.849  0.00  0.00    +0.000 A 
ATOM      8  C   UNL     1       3.611   6.956  17.756  0.00  0.00    +0.000 A 
ATOM      9  C   UNL     1       2.543   6.880  18.652  0.00  0.00    +0.000 A 
ATOM     10  C   UNL     1       2.549   5.907  19.645  0.00  0.00    +0.000 A 
ATOM     11  F   UNL     1       1.529   5.847  20.512  0.00  0.00    +0.000 F 
ATOM     12  C   UNL     1       3.598   5.007  19.758  0.00  0.00    +0.000 A 
ATOM     13  C   UNL     1       4.661   5.094  18.865  0.00  0.00    +0.000 A 
ATOM     14  F   UNL     1       5.680   4.231  19.000  0.00  0.00    +0.000 F 
ENDBRANCH   6   7
ENDBRANCH   1   6
BRANCH   2  15
ATOM     15  C   UNL     1       8.218   9.100  17.764  0.00  0.00    +0.000 C 
BRANCH  15  16
ATOM     16  C   UNL     1       9.099   9.380  18.975  0.00  0.00    +0.000 C 
BRANCH  16  17
ATOM     17  C   UNL     1       9.403  10.829  19.095  0.00  0.00    +0.000 C 
ATOM     18  N   UNL     1      10.027  11.564  18.222  0.00  0.00    +0.000 NA
ATOM     19  C   UNL     1      10.055  12.802  18.842  0.00  0.00    +0.000 C 
ATOM     20  C   UNL     1      10.509  13.921  18.235  0.00  0.00    +0.000 C 
ATOM     21  N   UNL     1      11.025  13.989  16.966  0.00  0.00    +0.000 NA
ATOM     22  C   UNL     1      11.335  15.237  16.894  0.00  0.00    +0.000 C 
ATOM     23  N   UNL     1      11.040  15.977  18.016  0.00  0.00    +0.000 NA
ATOM     24  N   UNL     1      10.529  15.163  18.828  0.00  0.00    +0.000 NA
ATOM     25  N   UNL     1       9.521  12.735  20.119  0.00  0.00    +0.000 N 
ATOM     26  O   UNL     1       8.993  11.441  20.246  0.00  0.00    +0.000 OA
ATOM     27  H   UNL     1       8.864  13.489  20.311  0.00  0.00    +0.000 HD
ENDBRANCH  16  17
ENDBRANCH  15  16
ENDBRANCH   2  15
TORSDOF 5
ENDMDL
MODEL 9
REMARK VINA RESULT:      -7.8      3.992      7.615
REMARK  Name = 
REMARK  6 active torsions:
REMARK  status: ('A' for Active; 'I' for Inactive)
REMARK    1  A    between atoms: C_1  and  C_2
REMARK    2  A    between atoms: C_2  and  N_3
REMARK    3  A    between atoms: C_2  and  C_18
REMARK    4  A    between atoms: C_4  and  C_6
REMARK    5  A    between atoms: C_6  and  C_7
REMARK    6  A    between atoms: C_7  and  C_8
REMARK                            x       y       z     vdW  Elec       q    Type
REMARK                         _______ _______ _______ _____ _____    ______ ____
ROOT
ATOM      1  N   UNL     1       3.205   6.024  18.056  0.00  0.00    +0.000 N 
ATOM      2  C   UNL     1       4.093   6.991  17.638  0.00  0.00    +0.000 C 
ATOM      3  O   UNL     1       5.287   6.770  17.459  0.00  0.00    +0.000 OA
ATOM      4  H   UNL     1       2.211   6.227  18.027  0.00  0.00    +0.000 HD
ENDROOT
BRANCH   1   6
ATOM      5  C   UNL     1       3.374   3.880  16.851  0.00  0.00    +0.000 C 
ATOM      6  C   UNL     1       3.602   4.629  18.167  0.00  0.00    +0.000 C 
BRANCH   6   7
ATOM      7  C   UNL     1       2.899   3.902  19.298  0.00  0.00    +0.000 A 
ATOM      8  C   UNL     1       1.545   4.181  19.558  0.00  0.00    +0.000 A 
ATOM      9  C   UNL     1       0.893   3.590  20.642  0.00  0.00    +0.000 A 
ATOM     10  C   UNL     1       1.590   2.718  21.471  0.00  0.00    +0.000 A 
ATOM     11  F   UNL     1       0.964   2.165  22.518  0.00  0.00    +0.000 F 
ATOM     12  C   UNL     1       2.924   2.421  21.235  0.00  0.00    +0.000 A 
ATOM     13  C   UNL     1       3.568   3.019  20.156  0.00  0.00    +0.000 A 
ATOM     14  F   UNL     1       4.865   2.740  19.953  0.00  0.00    +0.000 F 
ENDBRANCH   6   7
ENDBRANCH   1   6
BRANCH   2  15
ATOM     15  C   UNL     1       3.478   8.366  17.475  0.00  0.00    +0.000 C 
BRANCH  15  16
ATOM     16  C   UNL     1       1.966   8.305  17.655  0.00  0.00    +0.000 C 
BRANCH  16  17
ATOM     17  C   UNL     1       1.576   8.677  19.040  0.00  0.00    +0.000 C 
ATOM     18  N   UNL     1       0.915   9.737  19.399  0.00  0.00    +0.000 NA
ATOM     19  C   UNL     1       0.854   9.597  20.776  0.00  0.00    +0.000 C 
ATOM     20  C   UNL     1       0.139  10.423  21.571  0.00  0.00    +0.000 C 
ATOM     21  N   UNL     1      -0.582  11.511  21.151  0.00  0.00    +0.000 NA
ATOM     22  C   UNL     1      -1.024  11.961  22.274  0.00  0.00    +0.000 C 
ATOM     23  N   UNL     1      -0.654  11.231  23.380  0.00  0.00    +0.000 NA
ATOM     24  N   UNL     1       0.053  10.290  22.938  0.00  0.00    +0.000 NA
ATOM     25  N   UNL     1       1.573   8.489  21.199  0.00  0.00    +0.000 N 
ATOM     26  O   UNL     1       1.967   7.820  20.030  0.00  0.00    +0.000 OA
ATOM     27  H   UNL     1       1.059   7.919  21.868  0.00  0.00    +0.000 HD
ENDBRANCH  16  17
ENDBRANCH  15  16
ENDBRANCH   2  15
TORSDOF 5
ENDMDL
