MODEL 1
REMARK VINA RESULT:      -8.3      0.000      0.000
REMARK  Name = 
REMARK  8 active torsions:
REMARK  status: ('A' for Active; 'I' for Inactive)
REMARK    1  A    between atoms: C_2  and  O_3
REMARK    2  A    between atoms: C_2  and  C_4
REMARK    3  A    between atoms: N_8  and  C_9
REMARK    4  A    between atoms: C_9  and  C_10
REMARK    5  A    between atoms: C_10  and  C_11
REMARK    6  A    between atoms: C_11  and  C_12
REMARK    7  A    between atoms: C_13  and  C_14
REMARK    8  A    between atoms: C_19  and  C_20
REMARK                            x       y       z     vdW  Elec       q    Type
REMARK                         _______ _______ _______ _____ _____    ______ ____
ROOT
ATOM      1  C   UNL     1       7.691   7.721  17.505  0.00  0.00    +0.000 C 
ATOM      2  C   UNL     1       7.217   6.495  17.756  0.00  0.00    +0.000 C 
ENDROOT
BRANCH   2   3
ATOM      3  C   UNL     1       6.555   5.687  16.728  0.00  0.00    +0.000 A 
ATOM      4  C   UNL     1       7.404   5.254  15.689  0.00  0.00    +0.000 A 
ATOM      5  C   UNL     1       6.911   4.483  14.643  0.00  0.00    +0.000 A 
ATOM      6  C   UNL     1       5.562   4.162  14.615  0.00  0.00    +0.000 A 
ATOM      7  C   UNL     1       4.711   4.605  15.634  0.00  0.00    +0.000 A 
ATOM      8  C   UNL     1       5.171   5.347  16.744  0.00  0.00    +0.000 A 
BRANCH   8   9
ATOM      9  C   UNL     1       4.205   5.763  17.825  0.00  0.00    +0.000 A 
ATOM     10  C   UNL     1       3.505   6.987  17.711  0.00  0.00    +0.000 A 
ATOM     11  C   UNL     1       2.614   7.452  18.688  0.00  0.00    +0.000 A 
ATOM     12  C   UNL     1       2.325   6.667  19.791  0.00  0.00    +0.000 A 
ATOM     13  C   UNL     1       2.958   5.438  19.929  0.00  0.00    +0.000 A 
ATOM     14  C   UNL     1       3.908   5.003  18.985  0.00  0.00    +0.000 A 
ATOM     15 CL   UNL     1       4.705   3.517  19.397  0.00  0.00    +0.000 Cl
ENDBRANCH   8   9
ENDBRANCH   2   3
BRANCH   1  16
ATOM     16  C   UNL     1       8.450   8.508  18.530  0.00  0.00    +0.000 C 
BRANCH  16  17
ATOM     17  C   UNL     1       8.639   9.972  18.139  0.00  0.00    +0.000 C 
BRANCH  17  18
ATOM     18  C   UNL     1       9.572  10.724  19.096  0.00  0.00    +0.000 C 
BRANCH  18  23
ATOM     19  C   UNL     1      10.443  14.386  18.926  0.00  0.00    +0.000 C 
ATOM     20  C   UNL     1      11.780  14.332  18.184  0.00  0.00    +0.000 C 
ATOM     21  C   UNL     1      11.877  13.122  17.258  0.00  0.00    +0.000 C 
ATOM     22  C   UNL     1      11.434  11.828  17.937  0.00  0.00    +0.000 C 
ATOM     23  N   UNL     1      10.082  11.983  18.515  0.00  0.00    +0.000 NA
ATOM     24  C   UNL     1      10.100  13.036  19.558  0.00  0.00    +0.000 C 
BRANCH  19  26
ATOM     25  O   UNL     1       8.164  14.586  18.168  0.00  0.00    +0.000 OA
ATOM     26  C   UNL     1       9.337  14.899  18.018  0.00  0.00    +0.000 C 
BRANCH  26  27
ATOM     27  O   UNL     1       9.728  15.775  17.065  0.00  0.00    +0.000 OA
ATOM     28  H   UNL     1      10.667  15.622  16.791  0.00  0.00    +0.000 HD
ENDBRANCH  26  27
ENDBRANCH  19  26
ENDBRANCH  18  23
ENDBRANCH  17  18
ENDBRANCH  16  17
ENDBRANCH   1  16
TORSDOF 8
ENDMDL
MODEL 2
REMARK VINA RESULT:      -8.3      5.809      8.130
REMARK  Name = 
REMARK  8 active torsions:
REMARK  status: ('A' for Active; 'I' for Inactive)
REMARK    1  A    between atoms: C_2  and  O_3
REMARK    2  A    between atoms: C_2  and  C_4
REMARK    3  A    between atoms: N_8  and  C_9
REMARK    4  A    between atoms: C_9  and  C_10
REMARK    5  A    between atoms: C_10  and  C_11
REMARK    6  A    between atoms: C_11  and  C_12
REMARK    7  A    between atoms: C_13  and  C_14
REMARK    8  A    between atoms: C_19  and  C_20
REMARK                            x       y       z     vdW  Elec       q    Type
REMARK                         _______ _______ _______ _____ _____    ______ ____
ROOT
ATOM      1  C   UNL     1       2.426   7.653  18.594  0.00  0.00    +0.000 C 
ATOM      2  C   UNL     1       2.566   6.428  18.074  0.00  0.00    +0.000 C 
ENDROOT
BRANCH   2   3
ATOM      3  C   UNL     1       2.738   5.238  18.911  0.00  0.00    +0.000 A 
ATOM      4  C   UNL     1       1.742   5.069  19.896  0.00  0.00    +0.000 A 
ATOM      5  C   UNL     1       1.781   3.985  20.766  0.00  0.00    +0.000 A 
ATOM      6  C   UNL     1       2.826   3.079  20.674  0.00  0.00    +0.000 A 
ATOM      7  C   UNL     1       3.826   3.252  19.711  0.00  0.00    +0.000 A 
ATOM      8  C   UNL     1       3.807   4.307  18.772  0.00  0.00    +0.000 A 
BRANCH   8   9
ATOM      9  C   UNL     1       4.900   4.415  17.737  0.00  0.00    +0.000 A 
ATOM     10  C   UNL     1       4.662   3.979  16.413  0.00  0.00    +0.000 A 
ATOM     11  C   UNL     1       5.636   4.022  15.407  0.00  0.00    +0.000 A 
ATOM     12  C   UNL     1       6.876   4.581  15.668  0.00  0.00    +0.000 A 
ATOM     13  C   UNL     1       7.146   5.059  16.944  0.00  0.00    +0.000 A 
ATOM     14  C   UNL     1       6.192   4.950  17.974  0.00  0.00    +0.000 A 
ATOM     15 CL   UNL     1       6.755   5.460  19.535  0.00  0.00    +0.000 Cl
ENDBRANCH   8   9
ENDBRANCH   2   3
BRANCH   1  16
ATOM     16  C   UNL     1       2.158   8.856  17.741  0.00  0.00    +0.000 C 
BRANCH  16  17
ATOM     17  C   UNL     1       1.528  10.010  18.519  0.00  0.00    +0.000 C 
BRANCH  17  18
ATOM     18  C   UNL     1       0.225   9.606  19.223  0.00  0.00    +0.000 C 
BRANCH  18  23
ATOM     19  C   UNL     1      -1.165  12.161  21.617  0.00  0.00    +0.000 C 
ATOM     20  C   UNL     1      -1.338  11.313  22.879  0.00  0.00    +0.000 C 
ATOM     21  C   UNL     1      -0.339  10.160  22.940  0.00  0.00    +0.000 C 
ATOM     22  C   UNL     1      -0.249   9.393  21.623  0.00  0.00    +0.000 C 
ATOM     23  N   UNL     1       0.032  10.318  20.503  0.00  0.00    +0.000 NA
ATOM     24  C   UNL     1      -1.080  11.288  20.364  0.00  0.00    +0.000 C 
BRANCH  19  26
ATOM     25  O   UNL     1       0.159  13.857  22.704  0.00  0.00    +0.000 OA
ATOM     26  C   UNL     1       0.023  13.101  21.752  0.00  0.00    +0.000 C 
BRANCH  26  27
ATOM     27  O   UNL     1       0.953  13.003  20.776  0.00  0.00    +0.000 OA
ATOM     28  H   UNL     1       1.277  13.894  20.488  0.00  0.00    +0.000 HD
ENDBRANCH  26  27
ENDBRANCH  19  26
ENDBRANCH  18  23
ENDBRANCH  17  18
ENDBRANCH  16  17
ENDBRANCH   1  16
TORSDOF 8
ENDMDL
MODEL 3
REMARK VINA RESULT:      -8.3      6.158      8.222
REMARK  Name = 
REMARK  8 active torsions:
REMARK  status: ('A' for Active; 'I' for Inactive)
REMARK    1  A    between atoms: C_2  and  O_3
REMARK    2  A    between atoms: C_2  and  C_4
REMARK    3  A    between atoms: N_8  and  C_9
REMARK    4  A    between atoms: C_9  and  C_10
REMARK    5  A    between atoms: C_10  and  C_11
REMARK    6  A    between atoms: C_11  and  C_12
REMARK    7  A    between atoms: C_13  and  C_14
REMARK    8  A    between atoms: C_19  and  C_20
REMARK                            x       y       z     vdW  Elec       q    Type
REMARK                         _______ _______ _______ _____ _____    ______ ____
ROOT
ATOM      1  C   UNL     1       2.469   6.889  18.051  0.00  0.00    +0.000 C 
ATOM      2  C   UNL     1       2.989   6.571  19.242  0.00  0.00    +0.000 C 
ENDROOT
BRANCH   2   3
ATOM      3  C   UNL     1       3.046   5.188  19.726  0.00  0.00    +0.000 A 
ATOM      4  C   UNL     1       2.173   4.908  20.797  0.00  0.00    +0.000 A 
ATOM      5  C   UNL     1       2.124   3.638  21.360  0.00  0.00    +0.000 A 
ATOM      6  C   UNL     1       2.965   2.648  20.873  0.00  0.00    +0.000 A 
ATOM      7  C   UNL     1       3.846   2.926  19.822  0.00  0.00    +0.000 A 
ATOM      8  C   UNL     1       3.899   4.184  19.183  0.00  0.00    +0.000 A 
BRANCH   8   9
ATOM      9  C   UNL     1       4.849   4.406  18.033  0.00  0.00    +0.000 A 
ATOM     10  C   UNL     1       4.480   4.006  16.727  0.00  0.00    +0.000 A 
ATOM     11  C   UNL     1       5.321   4.154  15.616  0.00  0.00    +0.000 A 
ATOM     12  C   UNL     1       6.546   4.785  15.753  0.00  0.00    +0.000 A 
ATOM     13  C   UNL     1       6.938   5.231  17.010  0.00  0.00    +0.000 A 
ATOM     14  C   UNL     1       6.124   5.017  18.139  0.00  0.00    +0.000 A 
ATOM     15 CL   UNL     1       6.840   5.505  19.644  0.00  0.00    +0.000 Cl
ENDBRANCH   8   9
ENDBRANCH   2   3
BRANCH   1  16
ATOM     16  C   UNL     1       2.495   8.290  17.519  0.00  0.00    +0.000 C 
BRANCH  16  17
ATOM     17  C   UNL     1       1.895   9.308  18.487  0.00  0.00    +0.000 C 
BRANCH  17  18
ATOM     18  C   UNL     1       0.428   9.629  18.171  0.00  0.00    +0.000 C 
BRANCH  18  23
ATOM     19  C   UNL     1       0.142  11.666  21.327  0.00  0.00    +0.000 C 
ATOM     20  C   UNL     1      -0.962  12.651  20.938  0.00  0.00    +0.000 C 
ATOM     21  C   UNL     1      -1.919  12.064  19.903  0.00  0.00    +0.000 C 
ATOM     22  C   UNL     1      -1.187  11.386  18.747  0.00  0.00    +0.000 C 
ATOM     23  N   UNL     1      -0.232  10.380  19.259  0.00  0.00    +0.000 NA
ATOM     24  C   UNL     1       0.798  11.045  20.093  0.00  0.00    +0.000 C 
BRANCH  19  26
ATOM     25  O   UNL     1      -0.878  10.908  23.376  0.00  0.00    +0.000 OA
ATOM     26  C   UNL     1      -0.381  10.617  22.296  0.00  0.00    +0.000 C 
BRANCH  26  27
ATOM     27  O   UNL     1      -0.314   9.340  21.860  0.00  0.00    +0.000 OA
ATOM     28  H   UNL     1      -0.729   8.711  22.502  0.00  0.00    +0.000 HD
ENDBRANCH  26  27
ENDBRANCH  19  26
ENDBRANCH  18  23
ENDBRANCH  17  18
ENDBRANCH  16  17
ENDBRANCH   1  16
TORSDOF 8
ENDMDL
MODEL 4
REMARK VINA RESULT:      -8.3      5.416      7.609
REMARK  Name = 
REMARK  8 active torsions:
REMARK  status: ('A' for Active; 'I' for Inactive)
REMARK    1  A    between atoms: C_2  and  O_3
REMARK    2  A    between atoms: C_2  and  C_4
REMARK    3  A    between atoms: N_8  and  C_9
REMARK    4  A    between atoms: C_9  and  C_10
REMARK    5  A    between atoms: C_10  and  C_11
REMARK    6  A    between atoms: C_11  and  C_12
REMARK    7  A    between atoms: C_13  and  C_14
REMARK    8  A    between atoms: C_19  and  C_20
REMARK                            x       y       z     vdW  Elec       q    Type
REMARK                         _______ _______ _______ _____ _____    ______ ____
ROOT
ATOM      1  C   UNL     1       2.902   8.177  17.858  0.00  0.00    +0.000 C 
ATOM      2  C   UNL     1       3.188   6.916  17.512  0.00  0.00    +0.000 C 
ENDROOT
BRANCH   2   3
ATOM      3  C   UNL     1       4.455   6.275  17.872  0.00  0.00    +0.000 A 
ATOM      4  C   UNL     1       5.600   6.908  17.344  0.00  0.00    +0.000 A 
ATOM      5  C   UNL     1       6.871   6.406  17.599  0.00  0.00    +0.000 A 
ATOM      6  C   UNL     1       7.004   5.256  18.363  0.00  0.00    +0.000 A 
ATOM      7  C   UNL     1       5.871   4.614  18.874  0.00  0.00    +0.000 A 
ATOM      8  C   UNL     1       4.562   5.110  18.685  0.00  0.00    +0.000 A 
BRANCH   8   9
ATOM      9  C   UNL     1       3.387   4.387  19.293  0.00  0.00    +0.000 A 
ATOM     10  C   UNL     1       2.697   4.959  20.388  0.00  0.00    +0.000 A 
ATOM     11  C   UNL     1       1.615   4.332  21.021  0.00  0.00    +0.000 A 
ATOM     12  C   UNL     1       1.125   3.134  20.531  0.00  0.00    +0.000 A 
ATOM     13  C   UNL     1       1.745   2.550  19.433  0.00  0.00    +0.000 A 
ATOM     14  C   UNL     1       2.877   3.143  18.842  0.00  0.00    +0.000 A 
ATOM     15 CL   UNL     1       3.607   2.199  17.580  0.00  0.00    +0.000 Cl
ENDBRANCH   8   9
ENDBRANCH   2   3
BRANCH   1  16
ATOM     16  C   UNL     1       1.570   8.801  17.571  0.00  0.00    +0.000 C 
BRANCH  16  17
ATOM     17  C   UNL     1       1.117   9.769  18.662  0.00  0.00    +0.000 C 
BRANCH  17  18
ATOM     18  C   UNL     1       1.005   9.098  20.037  0.00  0.00    +0.000 C 
BRANCH  18  23
ATOM     19  C   UNL     1      -0.922  12.012  21.448  0.00  0.00    +0.000 C 
ATOM     20  C   UNL     1      -1.530  11.379  22.701  0.00  0.00    +0.000 C 
ATOM     21  C   UNL     1      -0.666  10.247  23.251  0.00  0.00    +0.000 C 
ATOM     22  C   UNL     1      -0.210   9.277  22.164  0.00  0.00    +0.000 C 
ATOM     23  N   UNL     1       0.460  10.008  21.066  0.00  0.00    +0.000 NA
ATOM     24  C   UNL     1      -0.496  10.948  20.435  0.00  0.00    +0.000 C 
BRANCH  19  26
ATOM     25  O   UNL     1       0.087  13.852  22.634  0.00  0.00    +0.000 OA
ATOM     26  C   UNL     1       0.214  12.956  21.810  0.00  0.00    +0.000 C 
BRANCH  26  27
ATOM     27  O   UNL     1       1.395  12.702  21.204  0.00  0.00    +0.000 OA
ATOM     28  H   UNL     1       2.011  12.202  21.795  0.00  0.00    +0.000 HD
ENDBRANCH  26  27
ENDBRANCH  19  26
ENDBRANCH  18  23
ENDBRANCH  17  18
ENDBRANCH  16  17
ENDBRANCH   1  16
TORSDOF 8
ENDMDL
MODEL 5
REMARK VINA RESULT:      -8.2      5.513      7.837
REMARK  Name = 
REMARK  8 active torsions:
REMARK  status: ('A' for Active; 'I' for Inactive)
REMARK    1  A    between atoms: C_2  and  O_3
REMARK    2  A    between atoms: C_2  and  C_4
REMARK    3  A    between atoms: N_8  and  C_9
REMARK    4  A    between atoms: C_9  and  C_10
REMARK    5  A    between atoms: C_10  and  C_11
REMARK    6  A    between atoms: C_11  and  C_12
REMARK    7  A    between atoms: C_13  and  C_14
REMARK    8  A    between atoms: C_19  and  C_20
REMARK                            x       y       z     vdW  Elec       q    Type
REMARK                         _______ _______ _______ _____ _____    ______ ____
ROOT
ATOM      1  C   UNL     1       2.318   6.574  19.371  0.00  0.00    +0.000 C 
ATOM      2  C   UNL     1       2.363   5.830  18.260  0.00  0.00    +0.000 C 
ENDROOT
BRANCH   2   3
ATOM      3  C   UNL     1       2.559   4.379  18.298  0.00  0.00    +0.000 A 
ATOM      4  C   UNL     1       1.368   3.632  18.409  0.00  0.00    +0.000 A 
ATOM      5  C   UNL     1       1.403   2.243  18.462  0.00  0.00    +0.000 A 
ATOM      6  C   UNL     1       2.628   1.594  18.428  0.00  0.00    +0.000 A 
ATOM      7  C   UNL     1       3.813   2.331  18.336  0.00  0.00    +0.000 A 
ATOM      8  C   UNL     1       3.831   3.739  18.229  0.00  0.00    +0.000 A 
BRANCH   8   9
ATOM      9  C   UNL     1       5.144   4.469  18.098  0.00  0.00    +0.000 A 
ATOM     10  C   UNL     1       5.786   4.977  19.252  0.00  0.00    +0.000 A 
ATOM     11  C   UNL     1       6.992   5.689  19.205  0.00  0.00    +0.000 A 
ATOM     12  C   UNL     1       7.651   5.855  17.998  0.00  0.00    +0.000 A 
ATOM     13  C   UNL     1       7.080   5.340  16.841  0.00  0.00    +0.000 A 
ATOM     14  C   UNL     1       5.833   4.688  16.878  0.00  0.00    +0.000 A 
ATOM     15 CL   UNL     1       5.206   4.245  15.321  0.00  0.00    +0.000 Cl
ENDBRANCH   8   9
ENDBRANCH   2   3
BRANCH   1  16
ATOM     16  C   UNL     1       2.025   8.044  19.336  0.00  0.00    +0.000 C 
BRANCH  16  17
ATOM     17  C   UNL     1       2.354   8.686  17.990  0.00  0.00    +0.000 C 
BRANCH  17  18
ATOM     18  C   UNL     1       1.945  10.163  17.925  0.00  0.00    +0.000 C 
BRANCH  18  23
ATOM     19  C   UNL     1      -0.197  12.075  20.365  0.00  0.00    +0.000 C 
ATOM     20  C   UNL     1      -1.585  11.873  19.753  0.00  0.00    +0.000 C 
ATOM     21  C   UNL     1      -1.686  10.565  18.972  0.00  0.00    +0.000 C 
ATOM     22  C   UNL     1      -0.501  10.351  18.033  0.00  0.00    +0.000 C 
ATOM     23  N   UNL     1       0.774  10.462  18.775  0.00  0.00    +0.000 NA
ATOM     24  C   UNL     1       0.909  11.827  19.337  0.00  0.00    +0.000 C 
BRANCH  19  26
ATOM     25  O   UNL     1      -0.928  11.062  22.427  0.00  0.00    +0.000 OA
ATOM     26  C   UNL     1      -0.026  11.229  21.617  0.00  0.00    +0.000 C 
BRANCH  26  27
ATOM     27  O   UNL     1       1.175  10.623  21.748  0.00  0.00    +0.000 OA
ATOM     28  H   UNL     1       1.154   9.914  22.439  0.00  0.00    +0.000 HD
ENDBRANCH  26  27
ENDBRANCH  19  26
ENDBRANCH  18  23
ENDBRANCH  17  18
ENDBRANCH  16  17
ENDBRANCH   1  16
TORSDOF 8
ENDMDL
MODEL 6
REMARK VINA RESULT:      -8.2      1.538      2.159
REMARK  Name = 
REMARK  8 active torsions:
REMARK  status: ('A' for Active; 'I' for Inactive)
REMARK    1  A    between atoms: C_2  and  O_3
REMARK    2  A    between atoms: C_2  and  C_4
REMARK    3  A    between atoms: N_8  and  C_9
REMARK    4  A    between atoms: C_9  and  C_10
REMARK    5  A    between atoms: C_10  and  C_11
REMARK    6  A    between atoms: C_11  and  C_12
REMARK    7  A    between atoms: C_13  and  C_14
REMARK    8  A    between atoms: C_19  and  C_20
REMARK                            x       y       z     vdW  Elec       q    Type
REMARK                         _______ _______ _______ _____ _____    ______ ____
ROOT
ATOM      1  C   UNL     1       7.699   7.366  17.490  0.00  0.00    +0.000 C 
ATOM      2  C   UNL     1       7.174   6.144  17.644  0.00  0.00    +0.000 C 
ENDROOT
BRANCH   2   3
ATOM      3  C   UNL     1       6.537   5.423  16.539  0.00  0.00    +0.000 A 
ATOM      4  C   UNL     1       7.301   5.377  15.355  0.00  0.00    +0.000 A 
ATOM      5  C   UNL     1       6.818   4.729  14.223  0.00  0.00    +0.000 A 
ATOM      6  C   UNL     1       5.561   4.145  14.261  0.00  0.00    +0.000 A 
ATOM      7  C   UNL     1       4.791   4.204  15.428  0.00  0.00    +0.000 A 
ATOM      8  C   UNL     1       5.255   4.805  16.619  0.00  0.00    +0.000 A 
BRANCH   8   9
ATOM      9  C   UNL     1       4.387   4.803  17.852  0.00  0.00    +0.000 A 
ATOM     10  C   UNL     1       4.246   3.618  18.612  0.00  0.00    +0.000 A 
ATOM     11  C   UNL     1       3.435   3.533  19.752  0.00  0.00    +0.000 A 
ATOM     12  C   UNL     1       2.789   4.661  20.228  0.00  0.00    +0.000 A 
ATOM     13  C   UNL     1       2.927   5.859  19.538  0.00  0.00    +0.000 A 
ATOM     14  C   UNL     1       3.683   5.928  18.352  0.00  0.00    +0.000 A 
ATOM     15 CL   UNL     1       3.621   7.465  17.547  0.00  0.00    +0.000 Cl
ENDBRANCH   8   9
ENDBRANCH   2   3
BRANCH   1  16
ATOM     16  C   UNL     1       8.432   8.064  18.596  0.00  0.00    +0.000 C 
BRANCH  16  17
ATOM     17  C   UNL     1       8.648   9.551  18.322  0.00  0.00    +0.000 C 
BRANCH  17  18
ATOM     18  C   UNL     1       9.210  10.299  19.538  0.00  0.00    +0.000 C 
BRANCH  18  23
ATOM     19  C   UNL     1       9.630  13.449  17.513  0.00  0.00    +0.000 C 
ATOM     20  C   UNL     1       9.649  14.505  18.619  0.00  0.00    +0.000 C 
ATOM     21  C   UNL     1      10.185  13.951  19.937  0.00  0.00    +0.000 C 
ATOM     22  C   UNL     1       9.561  12.606  20.303  0.00  0.00    +0.000 C 
ATOM     23  N   UNL     1       9.712  11.645  19.190  0.00  0.00    +0.000 NA
ATOM     24  C   UNL     1       8.991  12.145  17.995  0.00  0.00    +0.000 C 
BRANCH  19  26
ATOM     25  O   UNL     1      11.793  12.393  17.382  0.00  0.00    +0.000 OA
ATOM     26  C   UNL     1      11.023  13.235  16.941  0.00  0.00    +0.000 C 
BRANCH  26  27
ATOM     27  O   UNL     1      11.335  14.001  15.872  0.00  0.00    +0.000 OA
ATOM     28  H   UNL     1      11.646  14.900  16.143  0.00  0.00    +0.000 HD
ENDBRANCH  26  27
ENDBRANCH  19  26
ENDBRANCH  18  23
ENDBRANCH  17  18
ENDBRANCH  16  17
ENDBRANCH   1  16
TORSDOF 8
ENDMDL
MODEL 7
REMARK VINA RESULT:      -8.2      6.232      9.152
REMARK  Name = 
REMARK  8 active torsions:
REMARK  status: ('A' for Active; 'I' for Inactive)
REMARK    1  A    between atoms: C_2  and  O_3
REMARK    2  A    between atoms: C_2  and  C_4
REMARK    3  A    between atoms: N_8  and  C_9
REMARK    4  A    between atoms: C_9  and  C_10
REMARK    5  A    between atoms: C_10  and  C_11
REMARK    6  A    between atoms: C_11  and  C_12
REMARK    7  A    between atoms: C_13  and  C_14
REMARK    8  A    between atoms: C_19  and  C_20
REMARK                            x       y       z     vdW  Elec       q    Type
REMARK                         _______ _______ _______ _____ _____    ______ ____
ROOT
ATOM      1  C   UNL     1       2.230   7.619  19.021  0.00  0.00    +0.000 C 
ATOM      2  C   UNL     1       2.786   6.581  18.385  0.00  0.00    +0.000 C 
ENDROOT
BRANCH   2   3
ATOM      3  C   UNL     1       2.765   5.224  18.936  0.00  0.00    +0.000 A 
ATOM      4  C   UNL     1       1.714   4.979  19.844  0.00  0.00    +0.000 A 
ATOM      5  C   UNL     1       1.573   3.735  20.449  0.00  0.00    +0.000 A 
ATOM      6  C   UNL     1       2.494   2.737  20.170  0.00  0.00    +0.000 A 
ATOM      7  C   UNL     1       3.550   2.981  19.284  0.00  0.00    +0.000 A 
ATOM      8  C   UNL     1       3.709   4.209  18.605  0.00  0.00    +0.000 A 
BRANCH   8   9
ATOM      9  C   UNL     1       4.850   4.392  17.636  0.00  0.00    +0.000 A 
ATOM     10  C   UNL     1       4.712   3.963  16.295  0.00  0.00    +0.000 A 
ATOM     11  C   UNL     1       5.738   4.075  15.347  0.00  0.00    +0.000 A 
ATOM     12  C   UNL     1       6.928   4.698  15.685  0.00  0.00    +0.000 A 
ATOM     13  C   UNL     1       7.098   5.172  16.980  0.00  0.00    +0.000 A 
ATOM     14  C   UNL     1       6.095   4.995  17.952  0.00  0.00    +0.000 A 
ATOM     15 CL   UNL     1       6.540   5.514  19.548  0.00  0.00    +0.000 Cl
ENDBRANCH   8   9
ENDBRANCH   2   3
BRANCH   1  16
ATOM     16  C   UNL     1       2.171   8.988  18.414  0.00  0.00    +0.000 C 
BRANCH  16  17
ATOM     17  C   UNL     1       0.806   9.314  17.810  0.00  0.00    +0.000 C 
BRANCH  17  18
ATOM     18  C   UNL     1       0.227  10.634  18.338  0.00  0.00    +0.000 C 
BRANCH  18  23
ATOM     19  C   UNL     1      -3.117   9.809  16.810  0.00  0.00    +0.000 C 
ATOM     20  C   UNL     1      -4.065  10.481  17.805  0.00  0.00    +0.000 C 
ATOM     21  C   UNL     1      -3.422  11.685  18.490  0.00  0.00    +0.000 C 
ATOM     22  C   UNL     1      -2.014  11.385  19.001  0.00  0.00    +0.000 C 
ATOM     23  N   UNL     1      -1.172  10.846  17.912  0.00  0.00    +0.000 NA
ATOM     24  C   UNL     1      -1.739   9.565  17.428  0.00  0.00    +0.000 C 
BRANCH  19  26
ATOM     25  O   UNL     1      -3.638  10.261  14.500  0.00  0.00    +0.000 OA
ATOM     26  C   UNL     1      -3.040  10.599  15.513  0.00  0.00    +0.000 C 
BRANCH  26  27
ATOM     27  O   UNL     1      -2.311  11.735  15.569  0.00  0.00    +0.000 OA
ATOM     28  H   UNL     1      -1.339  11.550  15.530  0.00  0.00    +0.000 HD
ENDBRANCH  26  27
ENDBRANCH  19  26
ENDBRANCH  18  23
ENDBRANCH  17  18
ENDBRANCH  16  17
ENDBRANCH   1  16
TORSDOF 8
ENDMDL
MODEL 8
REMARK VINA RESULT:      -8.2      6.277      8.399
REMARK  Name = 
REMARK  8 active torsions:
REMARK  status: ('A' for Active; 'I' for Inactive)
REMARK    1  A    between atoms: C_2  and  O_3
REMARK    2  A    between atoms: C_2  and  C_4
REMARK    3  A    between atoms: N_8  and  C_9
REMARK    4  A    between atoms: C_9  and  C_10
REMARK    5  A    between atoms: C_10  and  C_11
REMARK    6  A    between atoms: C_11  and  C_12
REMARK    7  A    between atoms: C_13  and  C_14
REMARK    8  A    between atoms: C_19  and  C_20
REMARK                            x       y       z     vdW  Elec       q    Type
REMARK                         _______ _______ _______ _____ _____    ______ ____
ROOT
ATOM      1  C   UNL     1       2.461   7.449  18.550  0.00  0.00    +0.000 C 
ATOM      2  C   UNL     1       2.642   6.304  17.880  0.00  0.00    +0.000 C 
ENDROOT
BRANCH   2   3
ATOM      3  C   UNL     1       2.706   5.006  18.556  0.00  0.00    +0.000 A 
ATOM      4  C   UNL     1       1.628   4.748  19.428  0.00  0.00    +0.000 A 
ATOM      5  C   UNL     1       1.561   3.556  20.141  0.00  0.00    +0.000 A 
ATOM      6  C   UNL     1       2.581   2.626  20.004  0.00  0.00    +0.000 A 
ATOM      7  C   UNL     1       3.662   2.885  19.154  0.00  0.00    +0.000 A 
ATOM      8  C   UNL     1       3.753   4.057  18.371  0.00  0.00    +0.000 A 
BRANCH   8   9
ATOM      9  C   UNL     1       4.930   4.257  17.449  0.00  0.00    +0.000 A 
ATOM     10  C   UNL     1       4.846   3.842  16.099  0.00  0.00    +0.000 A 
ATOM     11  C   UNL     1       5.907   3.970  15.193  0.00  0.00    +0.000 A 
ATOM     12  C   UNL     1       7.079   4.596  15.583  0.00  0.00    +0.000 A 
ATOM     13  C   UNL     1       7.196   5.056  16.888  0.00  0.00    +0.000 A 
ATOM     14  C   UNL     1       6.158   4.863  17.819  0.00  0.00    +0.000 A 
ATOM     15 CL   UNL     1       6.538   5.367  19.437  0.00  0.00    +0.000 Cl
ENDBRANCH   8   9
ENDBRANCH   2   3
BRANCH   1  16
ATOM     16  C   UNL     1       2.303   8.766  17.850  0.00  0.00    +0.000 C 
BRANCH  16  17
ATOM     17  C   UNL     1       1.086   9.553  18.331  0.00  0.00    +0.000 C 
BRANCH  17  18
ATOM     18  C   UNL     1       0.857   9.422  19.843  0.00  0.00    +0.000 C 
BRANCH  18  23
ATOM     19  C   UNL     1      -0.513  12.285  21.873  0.00  0.00    +0.000 C 
ATOM     20  C   UNL     1      -1.429  12.956  20.848  0.00  0.00    +0.000 C 
ATOM     21  C   UNL     1      -1.968  11.964  19.820  0.00  0.00    +0.000 C 
ATOM     22  C   UNL     1      -0.877  11.058  19.254  0.00  0.00    +0.000 C 
ATOM     23  N   UNL     1      -0.143  10.386  20.348  0.00  0.00    +0.000 NA
ATOM     24  C   UNL     1       0.532  11.399  21.194  0.00  0.00    +0.000 C 
BRANCH  19  26
ATOM     25  O   UNL     1      -0.898  10.538  23.489  0.00  0.00    +0.000 OA
ATOM     26  C   UNL     1      -1.324  11.532  22.916  0.00  0.00    +0.000 C 
BRANCH  26  27
ATOM     27  O   UNL     1      -2.529  12.068  23.212  0.00  0.00    +0.000 OA
ATOM     28  H   UNL     1      -2.517  13.056  23.145  0.00  0.00    +0.000 HD
ENDBRANCH  26  27
ENDBRANCH  19  26
ENDBRANCH  18  23
ENDBRANCH  17  18
ENDBRANCH  16  17
ENDBRANCH   1  16
TORSDOF 8
ENDMDL
MODEL 9
REMARK VINA RESULT:      -8.2      1.363      1.788
REMARK  Name = 
REMARK  8 active torsions:
REMARK  status: ('A' for Active; 'I' for Inactive)
REMARK    1  A    between atoms: C_2  and  O_3
REMARK    2  A    between atoms: C_2  and  C_4
REMARK    3  A    between atoms: N_8  and  C_9
REMARK    4  A    between atoms: C_9  and  C_10
REMARK    5  A    between atoms: C_10  and  C_11
REMARK    6  A    between atoms: C_11  and  C_12
REMARK    7  A    between atoms: C_13  and  C_14
REMARK    8  A    between atoms: C_19  and  C_20
REMARK                            x       y       z     vdW  Elec       q    Type
REMARK                         _______ _______ _______ _____ _____    ______ ____
ROOT
ATOM      1  C   UNL     1       7.552   7.373  17.510  0.00  0.00    +0.000 C 
ATOM      2  C   UNL     1       7.317   6.056  17.544  0.00  0.00    +0.000 C 
ENDROOT
BRANCH   2   3
ATOM      3  C   UNL     1       6.625   5.358  16.457  0.00  0.00    +0.000 A 
ATOM      4  C   UNL     1       7.371   5.248  15.266  0.00  0.00    +0.000 A 
ATOM      5  C   UNL     1       6.837   4.614  14.149  0.00  0.00    +0.000 A 
ATOM      6  C   UNL     1       5.548   4.107  14.209  0.00  0.00    +0.000 A 
ATOM      7  C   UNL     1       4.797   4.230  15.384  0.00  0.00    +0.000 A 
ATOM      8  C   UNL     1       5.309   4.820  16.560  0.00  0.00    +0.000 A 
BRANCH   8   9
ATOM      9  C   UNL     1       4.457   4.888  17.802  0.00  0.00    +0.000 A 
ATOM     10  C   UNL     1       4.310   3.743  18.620  0.00  0.00    +0.000 A 
ATOM     11  C   UNL     1       3.513   3.724  19.772  0.00  0.00    +0.000 A 
ATOM     12  C   UNL     1       2.887   4.882  20.201  0.00  0.00    +0.000 A 
ATOM     13  C   UNL     1       3.032   6.044  19.452  0.00  0.00    +0.000 A 
ATOM     14  C   UNL     1       3.773   6.045  18.255  0.00  0.00    +0.000 A 
ATOM     15 CL   UNL     1       3.721   7.543  17.378  0.00  0.00    +0.000 Cl
ENDBRANCH   8   9
ENDBRANCH   2   3
BRANCH   1  16
ATOM     16  C   UNL     1       8.341   8.070  18.577  0.00  0.00    +0.000 C 
BRANCH  16  17
ATOM     17  C   UNL     1       8.584   9.547  18.271  0.00  0.00    +0.000 C 
BRANCH  17  18
ATOM     18  C   UNL     1       9.285  10.281  19.422  0.00  0.00    +0.000 C 
BRANCH  18  23
ATOM     19  C   UNL     1      10.910  13.658  19.808  0.00  0.00    +0.000 C 
ATOM     20  C   UNL     1      11.671  13.767  18.485  0.00  0.00    +0.000 C 
ATOM     21  C   UNL     1      10.994  12.981  17.365  0.00  0.00    +0.000 C 
ATOM     22  C   UNL     1      10.598  11.570  17.797  0.00  0.00    +0.000 C 
ATOM     23  N   UNL     1       9.774  11.617  19.024  0.00  0.00    +0.000 NA
ATOM     24  C   UNL     1      10.561  12.205  20.134  0.00  0.00    +0.000 C 
BRANCH  19  26
ATOM     25  O   UNL     1       9.771  15.779  19.709  0.00  0.00    +0.000 OA
ATOM     26  C   UNL     1       9.689  14.563  19.811  0.00  0.00    +0.000 C 
BRANCH  26  27
ATOM     27  O   UNL     1       8.497  13.929  19.874  0.00  0.00    +0.000 OA
ATOM     28  H   UNL     1       8.500  13.209  20.555  0.00  0.00    +0.000 HD
ENDBRANCH  26  27
ENDBRANCH  19  26
ENDBRANCH  18  23
ENDBRANCH  17  18
ENDBRANCH  16  17
ENDBRANCH   1  16
TORSDOF 8
ENDMDL
