MODEL 1
REMARK VINA RESULT:      -7.7      0.000      0.000
REMARK  Name = 
REMARK  9 active torsions:
REMARK  status: ('A' for Active; 'I' for Inactive)
REMARK    1  A    between atoms: C_1  and  C_2
REMARK    2  A    between atoms: C_2  and  C_3
REMARK    3  A    between atoms: C_2  and  N_4
REMARK    4  A    between atoms: C_6  and  C_7
REMARK    5  A    between atoms: C_7  and  N_8
REMARK    6  A    between atoms: N_8  and  C_9
REMARK    7  A    between atoms: C_9  and  C_10
REMARK    8  A    between atoms: C_19  and  N_20
REMARK    9  A    between atoms: C_21  and  C_23
REMARK                            x       y       z     vdW  Elec       q    Type
REMARK                         _______ _______ _______ _____ _____    ______ ____
ROOT
ATOM      1  N   UNL     1       2.659   5.181  18.148  0.00  0.00    +0.000 N 
ATOM      2  C   UNL     1       2.259   6.569  17.950  0.00  0.00    +0.000 C 
ATOM      3  C   UNL     1       3.372   7.609  18.124  0.00  0.00    +0.000 C 
ATOM      4  O   UNL     1       4.368   7.468  17.088  0.00  0.00    +0.000 OA
ATOM      5  C   UNL     1       5.302   6.527  17.425  0.00  0.00    +0.000 A 
ATOM      6  C   UNL     1       6.650   6.912  17.554  0.00  0.00    +0.000 A 
ATOM      7  C   UNL     1       7.635   5.946  17.772  0.00  0.00    +0.000 A 
ATOM      8  C   UNL     1       7.294   4.596  17.867  0.00  0.00    +0.000 A 
ATOM      9  C   UNL     1       5.966   4.201  17.675  0.00  0.00    +0.000 A 
ATOM     10  C   UNL     1       4.981   5.163  17.456  0.00  0.00    +0.000 A 
ATOM     11  C   UNL     1       3.602   4.650  17.285  0.00  0.00    +0.000 C 
ATOM     12  O   UNL     1       3.396   3.672  16.576  0.00  0.00    +0.000 OA
ENDROOT
BRANCH   6  13
ATOM     13  N   UNL     1       7.044   8.270  17.397  0.00  0.00    +0.000 N 
ATOM     14  C   UNL     1       8.073   8.848  18.128  0.00  0.00    +0.000 C 
ATOM     15  O   UNL     1       8.805   8.253  18.913  0.00  0.00    +0.000 OA
ATOM     16  H   UNL     1       6.693   8.750  16.581  0.00  0.00    +0.000 HD
BRANCH  14  17
ATOM     17  C   UNL     1       8.358  10.286  17.858  0.00  0.00    +0.000 A 
ATOM     18  C   UNL     1       7.401  11.158  17.337  0.00  0.00    +0.000 A 
ATOM     19  C   UNL     1       7.758  12.482  17.160  0.00  0.00    +0.000 A 
ATOM     20  N   UNL     1       8.980  12.979  17.463  0.00  0.00    +0.000 NA
ATOM     21  C   UNL     1       9.884  12.115  17.974  0.00  0.00    +0.000 A 
ATOM     22  C   UNL     1       9.620  10.781  18.192  0.00  0.00    +0.000 A 
ENDBRANCH  14  17
ENDBRANCH   6  13
BRANCH   1  24
ATOM     23  C   UNL     1       1.941   5.426  20.529  0.00  0.00    +0.000 C 
ATOM     24  C   UNL     1       2.393   4.477  19.415  0.00  0.00    +0.000 C 
ATOM     25  C   UNL     1       1.378   3.342  19.283  0.00  0.00    +0.000 C 
ENDBRANCH   1  24
BRANCH   3  26
ATOM     26  C   UNL     1       2.763   9.018  17.950  0.00  0.00    +0.000 C 
BRANCH  26  27
ATOM     27  N   UNL     1       1.311   9.054  18.171  0.00  0.00    +0.000 NA
ATOM     28  H   UNL     1       1.065   8.393  18.910  0.00  0.00    +0.000 HD
BRANCH  27  29
ATOM     29  C   UNL     1       0.902  10.399  18.573  0.00  0.00    +0.000 C 
BRANCH  29  30
ATOM     30  C   UNL     1      -0.571  10.610  18.325  0.00  0.00    +0.000 A 
ATOM     31  C   UNL     1      -1.279  11.595  19.029  0.00  0.00    +0.000 A 
ATOM     32  C   UNL     1      -2.657  11.735  18.854  0.00  0.00    +0.000 A 
ATOM     33  C   UNL     1      -3.332  10.897  17.969  0.00  0.00    +0.000 A 
ATOM     34 CL   UNL     1      -5.038  11.034  17.796  0.00  0.00    +0.000 Cl
ATOM     35  C   UNL     1      -2.638   9.934  17.240  0.00  0.00    +0.000 A 
ATOM     36  C   UNL     1      -1.261   9.789  17.420  0.00  0.00    +0.000 A 
ENDBRANCH  29  30
ENDBRANCH  27  29
ENDBRANCH  26  27
ENDBRANCH   3  26
TORSDOF 7
ENDMDL
MODEL 2
REMARK VINA RESULT:      -7.5      1.790      2.147
REMARK  Name = 
REMARK  9 active torsions:
REMARK  status: ('A' for Active; 'I' for Inactive)
REMARK    1  A    between atoms: C_1  and  C_2
REMARK    2  A    between atoms: C_2  and  C_3
REMARK    3  A    between atoms: C_2  and  N_4
REMARK    4  A    between atoms: C_6  and  C_7
REMARK    5  A    between atoms: C_7  and  N_8
REMARK    6  A    between atoms: N_8  and  C_9
REMARK    7  A    between atoms: C_9  and  C_10
REMARK    8  A    between atoms: C_19  and  N_20
REMARK    9  A    between atoms: C_21  and  C_23
REMARK                            x       y       z     vdW  Elec       q    Type
REMARK                         _______ _______ _______ _____ _____    ______ ____
ROOT
ATOM      1  N   UNL     1       2.718   5.027  18.078  0.00  0.00    +0.000 N 
ATOM      2  C   UNL     1       2.291   6.413  17.920  0.00  0.00    +0.000 C 
ATOM      3  C   UNL     1       3.386   7.469  18.110  0.00  0.00    +0.000 C 
ATOM      4  O   UNL     1       4.374   7.373  17.062  0.00  0.00    +0.000 OA
ATOM      5  C   UNL     1       5.329   6.442  17.366  0.00  0.00    +0.000 A 
ATOM      6  C   UNL     1       6.670   6.848  17.493  0.00  0.00    +0.000 A 
ATOM      7  C   UNL     1       7.675   5.896  17.677  0.00  0.00    +0.000 A 
ATOM      8  C   UNL     1       7.361   4.538  17.741  0.00  0.00    +0.000 A 
ATOM      9  C   UNL     1       6.039   4.123  17.551  0.00  0.00    +0.000 A 
ATOM     10  C   UNL     1       5.034   5.071  17.365  0.00  0.00    +0.000 A 
ATOM     11  C   UNL     1       3.663   4.537  17.193  0.00  0.00    +0.000 C 
ATOM     12  O   UNL     1       3.468   3.573  16.461  0.00  0.00    +0.000 OA
ENDROOT
BRANCH   6  13
ATOM     13  N   UNL     1       7.037   8.217  17.368  0.00  0.00    +0.000 N 
ATOM     14  C   UNL     1       8.051   8.800  18.116  0.00  0.00    +0.000 C 
ATOM     15  O   UNL     1       8.791   8.203  18.893  0.00  0.00    +0.000 OA
ATOM     16  H   UNL     1       6.681   8.708  16.561  0.00  0.00    +0.000 HD
BRANCH  14  17
ATOM     17  C   UNL     1       8.308  10.249  17.880  0.00  0.00    +0.000 A 
ATOM     18  C   UNL     1       7.356  11.100  17.318  0.00  0.00    +0.000 A 
ATOM     19  C   UNL     1       7.683  12.436  17.176  0.00  0.00    +0.000 A 
ATOM     20  N   UNL     1       8.872  12.963  17.550  0.00  0.00    +0.000 NA
ATOM     21  C   UNL     1       9.772  12.119  18.099  0.00  0.00    +0.000 A 
ATOM     22  C   UNL     1       9.535  10.776  18.287  0.00  0.00    +0.000 A 
ENDBRANCH  14  17
ENDBRANCH   6  13
BRANCH   1  24
ATOM     23  C   UNL     1       2.025   5.199  20.472  0.00  0.00    +0.000 C 
ATOM     24  C   UNL     1       2.478   4.287  19.329  0.00  0.00    +0.000 C 
ATOM     25  C   UNL     1       1.477   3.141  19.178  0.00  0.00    +0.000 C 
ENDBRANCH   1  24
BRANCH   3  26
ATOM     26  C   UNL     1       2.749   8.870  17.978  0.00  0.00    +0.000 C 
BRANCH  26  27
ATOM     27  N   UNL     1       1.468   8.994  18.686  0.00  0.00    +0.000 NA
ATOM     28  H   UNL     1       0.821   8.283  18.343  0.00  0.00    +0.000 HD
BRANCH  27  29
ATOM     29  C   UNL     1       1.672   8.803  20.122  0.00  0.00    +0.000 C 
BRANCH  29  30
ATOM     30  C   UNL     1       0.633   9.551  20.918  0.00  0.00    +0.000 A 
ATOM     31  C   UNL     1       0.038  10.711  20.402  0.00  0.00    +0.000 A 
ATOM     32  C   UNL     1      -0.866  11.445  21.173  0.00  0.00    +0.000 A 
ATOM     33  C   UNL     1      -1.182  11.019  22.462  0.00  0.00    +0.000 A 
ATOM     34 CL   UNL     1      -2.252  11.955  23.431  0.00  0.00    +0.000 Cl
ATOM     35  C   UNL     1      -0.623   9.853  22.977  0.00  0.00    +0.000 A 
ATOM     36  C   UNL     1       0.285   9.122  22.209  0.00  0.00    +0.000 A 
ENDBRANCH  29  30
ENDBRANCH  27  29
ENDBRANCH  26  27
ENDBRANCH   3  26
TORSDOF 7
ENDMDL
MODEL 3
REMARK VINA RESULT:      -7.4      4.081      7.869
REMARK  Name = 
REMARK  9 active torsions:
REMARK  status: ('A' for Active; 'I' for Inactive)
REMARK    1  A    between atoms: C_1  and  C_2
REMARK    2  A    between atoms: C_2  and  C_3
REMARK    3  A    between atoms: C_2  and  N_4
REMARK    4  A    between atoms: C_6  and  C_7
REMARK    5  A    between atoms: C_7  and  N_8
REMARK    6  A    between atoms: N_8  and  C_9
REMARK    7  A    between atoms: C_9  and  C_10
REMARK    8  A    between atoms: C_19  and  N_20
REMARK    9  A    between atoms: C_21  and  C_23
REMARK                            x       y       z     vdW  Elec       q    Type
REMARK                         _______ _______ _______ _____ _____    ______ ____
ROOT
ATOM      1  N   UNL     1      -1.519  11.324  18.982  0.00  0.00    +0.000 N 
ATOM      2  C   UNL     1      -0.322  10.527  18.741  0.00  0.00    +0.000 C 
ATOM      3  C   UNL     1       0.973  11.323  18.537  0.00  0.00    +0.000 C 
ATOM      4  O   UNL     1       1.348  12.007  19.752  0.00  0.00    +0.000 OA
ATOM      5  C   UNL     1       0.714  13.215  19.855  0.00  0.00    +0.000 A 
ATOM      6  C   UNL     1       1.484  14.392  19.904  0.00  0.00    +0.000 A 
ATOM      7  C   UNL     1       0.865  15.622  20.137  0.00  0.00    +0.000 A 
ATOM      8  C   UNL     1      -0.517  15.698  20.317  0.00  0.00    +0.000 A 
ATOM      9  C   UNL     1      -1.278  14.524  20.334  0.00  0.00    +0.000 A 
ATOM     10  C   UNL     1      -0.663  13.294  20.104  0.00  0.00    +0.000 A 
ATOM     11  C   UNL     1      -1.554  12.112  20.120  0.00  0.00    +0.000 C 
ATOM     12  O   UNL     1      -2.403  11.996  20.997  0.00  0.00    +0.000 OA
ENDROOT
BRANCH   6  13
ATOM     13  N   UNL     1       2.902  14.348  19.790  0.00  0.00    +0.000 N 
ATOM     14  C   UNL     1       3.622  15.211  18.977  0.00  0.00    +0.000 C 
ATOM     15  O   UNL     1       3.146  16.147  18.341  0.00  0.00    +0.000 OA
ATOM     16  H   UNL     1       3.393  13.806  20.487  0.00  0.00    +0.000 HD
BRANCH  14  17
ATOM     17  C   UNL     1       5.101  15.031  18.955  0.00  0.00    +0.000 A 
ATOM     18  C   UNL     1       5.903  15.253  20.075  0.00  0.00    +0.000 A 
ATOM     19  C   UNL     1       7.261  15.020  19.957  0.00  0.00    +0.000 A 
ATOM     20  N   UNL     1       7.854  14.589  18.820  0.00  0.00    +0.000 NA
ATOM     21  C   UNL     1       7.054  14.372  17.754  0.00  0.00    +0.000 A 
ATOM     22  C   UNL     1       5.691  14.570  17.776  0.00  0.00    +0.000 A 
ENDBRANCH  14  17
ENDBRANCH   6  13
BRANCH   1  24
ATOM     23  C   UNL     1      -2.257  10.732  16.670  0.00  0.00    +0.000 C 
ATOM     24  C   UNL     1      -2.485  11.606  17.905  0.00  0.00    +0.000 C 
ATOM     25  C   UNL     1      -3.944  11.480  18.345  0.00  0.00    +0.000 C 
ENDBRANCH   1  24
BRANCH   3  26
ATOM     26  C   UNL     1       2.117  10.332  18.227  0.00  0.00    +0.000 C 
BRANCH  26  27
ATOM     27  N   UNL     1       1.641   8.984  17.891  0.00  0.00    +0.000 NA
ATOM     28  H   UNL     1       1.204   8.999  16.968  0.00  0.00    +0.000 HD
BRANCH  27  29
ATOM     29  C   UNL     1       2.766   8.049  17.873  0.00  0.00    +0.000 C 
BRANCH  29  30
ATOM     30  C   UNL     1       2.423   6.780  18.612  0.00  0.00    +0.000 A 
ATOM     31  C   UNL     1       2.297   5.565  17.923  0.00  0.00    +0.000 A 
ATOM     32  C   UNL     1       1.904   4.407  18.598  0.00  0.00    +0.000 A 
ATOM     33  C   UNL     1       1.640   4.458  19.965  0.00  0.00    +0.000 A 
ATOM     34 CL   UNL     1       1.101   3.045  20.784  0.00  0.00    +0.000 Cl
ATOM     35  C   UNL     1       1.790   5.651  20.669  0.00  0.00    +0.000 A 
ATOM     36  C   UNL     1       2.178   6.809  19.993  0.00  0.00    +0.000 A 
ENDBRANCH  29  30
ENDBRANCH  27  29
ENDBRANCH  26  27
ENDBRANCH   3  26
TORSDOF 7
ENDMDL
MODEL 4
REMARK VINA RESULT:      -7.3      1.571      1.905
REMARK  Name = 
REMARK  9 active torsions:
REMARK  status: ('A' for Active; 'I' for Inactive)
REMARK    1  A    between atoms: C_1  and  C_2
REMARK    2  A    between atoms: C_2  and  C_3
REMARK    3  A    between atoms: C_2  and  N_4
REMARK    4  A    between atoms: C_6  and  C_7
REMARK    5  A    between atoms: C_7  and  N_8
REMARK    6  A    between atoms: N_8  and  C_9
REMARK    7  A    between atoms: C_9  and  C_10
REMARK    8  A    between atoms: C_19  and  N_20
REMARK    9  A    between atoms: C_21  and  C_23
REMARK                            x       y       z     vdW  Elec       q    Type
REMARK                         _______ _______ _______ _____ _____    ______ ____
ROOT
ATOM      1  N   UNL     1       2.681   5.148  18.111  0.00  0.00    +0.000 N 
ATOM      2  C   UNL     1       2.276   6.531  17.886  0.00  0.00    +0.000 C 
ATOM      3  C   UNL     1       3.378   7.582  18.068  0.00  0.00    +0.000 C 
ATOM      4  O   UNL     1       4.397   7.433  17.057  0.00  0.00    +0.000 OA
ATOM      5  C   UNL     1       5.330   6.504  17.427  0.00  0.00    +0.000 A 
ATOM      6  C   UNL     1       6.672   6.900  17.580  0.00  0.00    +0.000 A 
ATOM      7  C   UNL     1       7.658   5.945  17.832  0.00  0.00    +0.000 A 
ATOM      8  C   UNL     1       7.326   4.594  17.940  0.00  0.00    +0.000 A 
ATOM      9  C   UNL     1       6.005   4.186  17.725  0.00  0.00    +0.000 A 
ATOM     10  C   UNL     1       5.018   5.138  17.470  0.00  0.00    +0.000 A 
ATOM     11  C   UNL     1       3.646   4.612  17.277  0.00  0.00    +0.000 C 
ATOM     12  O   UNL     1       3.462   3.623  16.578  0.00  0.00    +0.000 OA
ENDROOT
BRANCH   6  13
ATOM     13  N   UNL     1       7.060   8.259  17.412  0.00  0.00    +0.000 N 
ATOM     14  C   UNL     1       8.083   8.849  18.141  0.00  0.00    +0.000 C 
ATOM     15  O   UNL     1       8.815   8.264  18.934  0.00  0.00    +0.000 OA
ATOM     16  H   UNL     1       6.709   8.729  16.590  0.00  0.00    +0.000 HD
BRANCH  14  17
ATOM     17  C   UNL     1       8.362  10.286  17.859  0.00  0.00    +0.000 A 
ATOM     18  C   UNL     1       7.393  11.156  17.360  0.00  0.00    +0.000 A 
ATOM     19  C   UNL     1       7.746  12.479  17.169  0.00  0.00    +0.000 A 
ATOM     20  N   UNL     1       8.976  12.976  17.439  0.00  0.00    +0.000 NA
ATOM     21  C   UNL     1       9.891  12.114  17.930  0.00  0.00    +0.000 A 
ATOM     22  C   UNL     1       9.632  10.781  18.160  0.00  0.00    +0.000 A 
ENDBRANCH  14  17
ENDBRANCH   6  13
BRANCH   1  24
ATOM     23  C   UNL     1       1.924   5.425  20.477  0.00  0.00    +0.000 C 
ATOM     24  C   UNL     1       2.393   4.461  19.383  0.00  0.00    +0.000 C 
ATOM     25  C   UNL     1       1.377   3.327  19.248  0.00  0.00    +0.000 C 
ENDBRANCH   1  24
BRANCH   3  26
ATOM     26  C   UNL     1       2.763   8.984  17.861  0.00  0.00    +0.000 C 
BRANCH  26  27
ATOM     27  N   UNL     1       1.571   9.222  18.686  0.00  0.00    +0.000 NA
ATOM     28  H   UNL     1       1.735   8.866  19.629  0.00  0.00    +0.000 HD
BRANCH  27  29
ATOM     29  C   UNL     1       1.292  10.656  18.756  0.00  0.00    +0.000 C 
BRANCH  29  30
ATOM     30  C   UNL     1       0.420  10.978  19.943  0.00  0.00    +0.000 A 
ATOM     31  C   UNL     1       0.652  10.367  21.185  0.00  0.00    +0.000 A 
ATOM     32  C   UNL     1      -0.206  10.608  22.261  0.00  0.00    +0.000 A 
ATOM     33  C   UNL     1      -1.294  11.463  22.102  0.00  0.00    +0.000 A 
ATOM     34 CL   UNL     1      -2.381  11.715  23.412  0.00  0.00    +0.000 Cl
ATOM     35  C   UNL     1      -1.520  12.100  20.884  0.00  0.00    +0.000 A 
ATOM     36  C   UNL     1      -0.667  11.855  19.806  0.00  0.00    +0.000 A 
ENDBRANCH  29  30
ENDBRANCH  27  29
ENDBRANCH  26  27
ENDBRANCH   3  26
TORSDOF 7
ENDMDL
MODEL 5
REMARK VINA RESULT:      -7.3      4.100      7.876
REMARK  Name = 
REMARK  9 active torsions:
REMARK  status: ('A' for Active; 'I' for Inactive)
REMARK    1  A    between atoms: C_1  and  C_2
REMARK    2  A    between atoms: C_2  and  C_3
REMARK    3  A    between atoms: C_2  and  N_4
REMARK    4  A    between atoms: C_6  and  C_7
REMARK    5  A    between atoms: C_7  and  N_8
REMARK    6  A    between atoms: N_8  and  C_9
REMARK    7  A    between atoms: C_9  and  C_10
REMARK    8  A    between atoms: C_19  and  N_20
REMARK    9  A    between atoms: C_21  and  C_23
REMARK                            x       y       z     vdW  Elec       q    Type
REMARK                         _______ _______ _______ _____ _____    ______ ____
ROOT
ATOM      1  N   UNL     1      -1.395  11.101  19.431  0.00  0.00    +0.000 N 
ATOM      2  C   UNL     1      -0.170  10.367  19.135  0.00  0.00    +0.000 C 
ATOM      3  C   UNL     1       0.976  11.201  18.548  0.00  0.00    +0.000 C 
ATOM      4  O   UNL     1       1.462  12.153  19.519  0.00  0.00    +0.000 OA
ATOM      5  C   UNL     1       0.721  13.302  19.499  0.00  0.00    +0.000 A 
ATOM      6  C   UNL     1       1.349  14.520  19.179  0.00  0.00    +0.000 A 
ATOM      7  C   UNL     1       0.640  15.719  19.277  0.00  0.00    +0.000 A 
ATOM      8  C   UNL     1      -0.694  15.722  19.688  0.00  0.00    +0.000 A 
ATOM      9  C   UNL     1      -1.304  14.523  20.070  0.00  0.00    +0.000 A 
ATOM     10  C   UNL     1      -0.598  13.324  19.975  0.00  0.00    +0.000 A 
ATOM     11  C   UNL     1      -1.334  12.105  20.382  0.00  0.00    +0.000 C 
ATOM     12  O   UNL     1      -2.011  12.110  21.404  0.00  0.00    +0.000 OA
ENDROOT
BRANCH   6  13
ATOM     13  N   UNL     1       2.725  14.564  18.820  0.00  0.00    +0.000 N 
ATOM     14  C   UNL     1       3.653  15.362  19.475  0.00  0.00    +0.000 C 
ATOM     15  O   UNL     1       3.424  16.041  20.471  0.00  0.00    +0.000 OA
ATOM     16  H   UNL     1       3.054  13.833  18.206  0.00  0.00    +0.000 HD
BRANCH  14  17
ATOM     17  C   UNL     1       5.055  15.308  18.972  0.00  0.00    +0.000 A 
ATOM     18  C   UNL     1       5.455  14.446  17.950  0.00  0.00    +0.000 A 
ATOM     19  C   UNL     1       6.771  14.502  17.533  0.00  0.00    +0.000 A 
ATOM     20  N   UNL     1       7.692  15.344  18.057  0.00  0.00    +0.000 NA
ATOM     21  C   UNL     1       7.276  16.174  19.038  0.00  0.00    +0.000 A 
ATOM     22  C   UNL     1       5.984  16.196  19.516  0.00  0.00    +0.000 A 
ENDBRANCH  14  17
ENDBRANCH   6  13
BRANCH   1  24
ATOM     23  C   UNL     1      -3.715  11.929  19.013  0.00  0.00    +0.000 C 
ATOM     24  C   UNL     1      -2.548  11.073  18.514  0.00  0.00    +0.000 C 
ATOM     25  C   UNL     1      -2.201  11.488  17.083  0.00  0.00    +0.000 C 
ENDBRANCH   1  24
BRANCH   3  26
ATOM     26  C   UNL     1       2.160  10.260  18.233  0.00  0.00    +0.000 C 
BRANCH  26  27
ATOM     27  N   UNL     1       1.738   8.942  17.740  0.00  0.00    +0.000 NA
ATOM     28  H   UNL     1       1.417   9.028  16.774  0.00  0.00    +0.000 HD
BRANCH  27  29
ATOM     29  C   UNL     1       2.863   8.009  17.790  0.00  0.00    +0.000 C 
BRANCH  29  30
ATOM     30  C   UNL     1       2.497   6.766  18.563  0.00  0.00    +0.000 A 
ATOM     31  C   UNL     1       2.387   5.529  17.912  0.00  0.00    +0.000 A 
ATOM     32  C   UNL     1       1.972   4.395  18.616  0.00  0.00    +0.000 A 
ATOM     33  C   UNL     1       1.672   4.494  19.973  0.00  0.00    +0.000 A 
ATOM     34 CL   UNL     1       1.108   3.110  20.825  0.00  0.00    +0.000 Cl
ATOM     35  C   UNL     1       1.806   5.710  20.639  0.00  0.00    +0.000 A 
ATOM     36  C   UNL     1       2.214   6.844  19.935  0.00  0.00    +0.000 A 
ENDBRANCH  29  30
ENDBRANCH  27  29
ENDBRANCH  26  27
ENDBRANCH   3  26
TORSDOF 7
ENDMDL
MODEL 6
REMARK VINA RESULT:      -7.3      6.729     11.852
REMARK  Name = 
REMARK  9 active torsions:
REMARK  status: ('A' for Active; 'I' for Inactive)
REMARK    1  A    between atoms: C_1  and  C_2
REMARK    2  A    between atoms: C_2  and  C_3
REMARK    3  A    between atoms: C_2  and  N_4
REMARK    4  A    between atoms: C_6  and  C_7
REMARK    5  A    between atoms: C_7  and  N_8
REMARK    6  A    between atoms: N_8  and  C_9
REMARK    7  A    between atoms: C_9  and  C_10
REMARK    8  A    between atoms: C_19  and  N_20
REMARK    9  A    between atoms: C_21  and  C_23
REMARK                            x       y       z     vdW  Elec       q    Type
REMARK                         _______ _______ _______ _____ _____    ______ ____
ROOT
ATOM      1  N   UNL     1      -6.176  12.046  19.465  0.00  0.00    +0.000 N 
ATOM      2  C   UNL     1      -4.729  12.213  19.392  0.00  0.00    +0.000 C 
ATOM      3  C   UNL     1      -4.115  13.137  20.450  0.00  0.00    +0.000 C 
ATOM      4  O   UNL     1      -4.251  12.564  21.769  0.00  0.00    +0.000 OA
ATOM      5  C   UNL     1      -5.466  12.872  22.318  0.00  0.00    +0.000 A 
ATOM      6  C   UNL     1      -5.512  13.615  23.512  0.00  0.00    +0.000 A 
ATOM      7  C   UNL     1      -6.732  13.830  24.156  0.00  0.00    +0.000 A 
ATOM      8  C   UNL     1      -7.915  13.315  23.622  0.00  0.00    +0.000 A 
ATOM      9  C   UNL     1      -7.868  12.521  22.472  0.00  0.00    +0.000 A 
ATOM     10  C   UNL     1      -6.650  12.303  21.828  0.00  0.00    +0.000 A 
ATOM     11  C   UNL     1      -6.704  11.467  20.606  0.00  0.00    +0.000 C 
ATOM     12  O   UNL     1      -7.371  10.439  20.597  0.00  0.00    +0.000 OA
ENDROOT
BRANCH   6  13
ATOM     13  N   UNL     1      -4.321  14.100  24.121  0.00  0.00    +0.000 N 
ATOM     14  C   UNL     1      -3.735  15.311  23.780  0.00  0.00    +0.000 C 
ATOM     15  O   UNL     1      -4.206  16.129  22.995  0.00  0.00    +0.000 OA
ATOM     16  H   UNL     1      -4.026  13.635  24.968  0.00  0.00    +0.000 HD
BRANCH  14  17
ATOM     17  C   UNL     1      -2.481  15.674  24.500  0.00  0.00    +0.000 A 
ATOM     18  C   UNL     1      -2.303  15.444  25.864  0.00  0.00    +0.000 A 
ATOM     19  C   UNL     1      -1.087  15.784  26.426  0.00  0.00    +0.000 A 
ATOM     20  N   UNL     1      -0.061  16.326  25.729  0.00  0.00    +0.000 NA
ATOM     21  C   UNL     1      -0.257  16.530  24.408  0.00  0.00    +0.000 A 
ATOM     22  C   UNL     1      -1.430  16.217  23.758  0.00  0.00    +0.000 A 
ENDBRANCH  14  17
ENDBRANCH   6  13
BRANCH   1  24
ATOM     23  C   UNL     1      -7.144  14.284  18.921  0.00  0.00    +0.000 C 
ATOM     24  C   UNL     1      -7.082  12.794  18.576  0.00  0.00    +0.000 C 
ATOM     25  C   UNL     1      -6.747  12.638  17.092  0.00  0.00    +0.000 C 
ENDBRANCH   1  24
BRANCH   3  26
ATOM     26  C   UNL     1      -2.598  13.254  20.183  0.00  0.00    +0.000 C 
BRANCH  26  27
ATOM     27  N   UNL     1      -1.937  11.953  20.014  0.00  0.00    +0.000 NA
ATOM     28  H   UNL     1      -2.144  11.587  19.084  0.00  0.00    +0.000 HD
BRANCH  27  29
ATOM     29  C   UNL     1      -0.490  12.108  20.158  0.00  0.00    +0.000 C 
BRANCH  29  30
ATOM     30  C   UNL     1       0.221  10.807  19.879  0.00  0.00    +0.000 A 
ATOM     31  C   UNL     1       0.374   9.847  20.889  0.00  0.00    +0.000 A 
ATOM     32  C   UNL     1       1.100   8.678  20.649  0.00  0.00    +0.000 A 
ATOM     33  C   UNL     1       1.672   8.463  19.397  0.00  0.00    +0.000 A 
ATOM     34 CL   UNL     1       2.614   7.050  19.119  0.00  0.00    +0.000 Cl
ATOM     35  C   UNL     1       1.504   9.394  18.374  0.00  0.00    +0.000 A 
ATOM     36  C   UNL     1       0.783  10.565  18.616  0.00  0.00    +0.000 A 
ENDBRANCH  29  30
ENDBRANCH  27  29
ENDBRANCH  26  27
ENDBRANCH   3  26
TORSDOF 7
ENDMDL
MODEL 7
REMARK VINA RESULT:      -7.3      4.146      7.858
REMARK  Name = 
REMARK  9 active torsions:
REMARK  status: ('A' for Active; 'I' for Inactive)
REMARK    1  A    between atoms: C_1  and  C_2
REMARK    2  A    between atoms: C_2  and  C_3
REMARK    3  A    between atoms: C_2  and  N_4
REMARK    4  A    between atoms: C_6  and  C_7
REMARK    5  A    between atoms: C_7  and  N_8
REMARK    6  A    between atoms: N_8  and  C_9
REMARK    7  A    between atoms: C_9  and  C_10
REMARK    8  A    between atoms: C_19  and  N_20
REMARK    9  A    between atoms: C_21  and  C_23
REMARK                            x       y       z     vdW  Elec       q    Type
REMARK                         _______ _______ _______ _____ _____    ______ ____
ROOT
ATOM      1  N   UNL     1      -1.387  11.477  19.848  0.00  0.00    +0.000 N 
ATOM      2  C   UNL     1      -0.263  10.796  19.216  0.00  0.00    +0.000 C 
ATOM      3  C   UNL     1       0.981  11.659  18.972  0.00  0.00    +0.000 C 
ATOM      4  O   UNL     1       1.580  12.056  20.225  0.00  0.00    +0.000 OA
ATOM      5  C   UNL     1       0.989  13.186  20.719  0.00  0.00    +0.000 A 
ATOM      6  C   UNL     1       1.766  14.345  20.902  0.00  0.00    +0.000 A 
ATOM      7  C   UNL     1       1.214  15.467  21.522  0.00  0.00    +0.000 A 
ATOM      8  C   UNL     1      -0.111  15.454  21.962  0.00  0.00    +0.000 A 
ATOM      9  C   UNL     1      -0.868  14.284  21.842  0.00  0.00    +0.000 A 
ATOM     10  C   UNL     1      -0.319  13.161  21.225  0.00  0.00    +0.000 A 
ATOM     11  C   UNL     1      -1.205  11.978  21.126  0.00  0.00    +0.000 C 
ATOM     12  O   UNL     1      -1.880  11.636  22.090  0.00  0.00    +0.000 OA
ENDROOT
BRANCH   6  13
ATOM     13  N   UNL     1       3.139  14.375  20.526  0.00  0.00    +0.000 N 
ATOM     14  C   UNL     1       3.594  14.995  19.371  0.00  0.00    +0.000 C 
ATOM     15  O   UNL     1       2.900  15.650  18.599  0.00  0.00    +0.000 OA
ATOM     16  H   UNL     1       3.806  14.113  21.238  0.00  0.00    +0.000 HD
BRANCH  14  17
ATOM     17  C   UNL     1       5.060  14.929  19.110  0.00  0.00    +0.000 A 
ATOM     18  C   UNL     1       5.588  14.690  17.841  0.00  0.00    +0.000 A 
ATOM     19  C   UNL     1       6.963  14.686  17.701  0.00  0.00    +0.000 A 
ATOM     20  N   UNL     1       7.824  14.899  18.723  0.00  0.00    +0.000 NA
ATOM     21  C   UNL     1       7.286  15.137  19.939  0.00  0.00    +0.000 A 
ATOM     22  C   UNL     1       5.930  15.168  20.175  0.00  0.00    +0.000 A 
ENDBRANCH  14  17
ENDBRANCH   6  13
BRANCH   1  24
ATOM     23  C   UNL     1      -3.032  10.934  18.047  0.00  0.00    +0.000 C 
ATOM     24  C   UNL     1      -2.531  11.968  19.060  0.00  0.00    +0.000 C 
ATOM     25  C   UNL     1      -3.706  12.439  19.916  0.00  0.00    +0.000 C 
ENDBRANCH   1  24
BRANCH   3  26
ATOM     26  C   UNL     1       2.038  10.805  18.238  0.00  0.00    +0.000 C 
BRANCH  26  27
ATOM     27  N   UNL     1       1.547   9.473  17.860  0.00  0.00    +0.000 NA
ATOM     28  H   UNL     1       1.079   9.530  16.954  0.00  0.00    +0.000 HD
BRANCH  27  29
ATOM     29  C   UNL     1       2.667   8.538  17.764  0.00  0.00    +0.000 C 
BRANCH  29  30
ATOM     30  C   UNL     1       2.428   7.321  18.623  0.00  0.00    +0.000 A 
ATOM     31  C   UNL     1       2.585   6.033  18.093  0.00  0.00    +0.000 A 
ATOM     32  C   UNL     1       2.287   4.909  18.868  0.00  0.00    +0.000 A 
ATOM     33  C   UNL     1       1.836   5.070  20.177  0.00  0.00    +0.000 A 
ATOM     34 CL   UNL     1       1.416   3.688  21.111  0.00  0.00    +0.000 Cl
ATOM     35  C   UNL     1       1.703   6.343  20.726  0.00  0.00    +0.000 A 
ATOM     36  C   UNL     1       1.995   7.466  19.950  0.00  0.00    +0.000 A 
ENDBRANCH  29  30
ENDBRANCH  27  29
ENDBRANCH  26  27
ENDBRANCH   3  26
TORSDOF 7
ENDMDL
MODEL 8
REMARK VINA RESULT:      -7.2      1.791      2.306
REMARK  Name = 
REMARK  9 active torsions:
REMARK  status: ('A' for Active; 'I' for Inactive)
REMARK    1  A    between atoms: C_1  and  C_2
REMARK    2  A    between atoms: C_2  and  C_3
REMARK    3  A    between atoms: C_2  and  N_4
REMARK    4  A    between atoms: C_6  and  C_7
REMARK    5  A    between atoms: C_7  and  N_8
REMARK    6  A    between atoms: N_8  and  C_9
REMARK    7  A    between atoms: C_9  and  C_10
REMARK    8  A    between atoms: C_19  and  N_20
REMARK    9  A    between atoms: C_21  and  C_23
REMARK                            x       y       z     vdW  Elec       q    Type
REMARK                         _______ _______ _______ _____ _____    ______ ____
ROOT
ATOM      1  N   UNL     1       2.836   4.987  18.040  0.00  0.00    +0.000 N 
ATOM      2  C   UNL     1       2.392   6.369  17.904  0.00  0.00    +0.000 C 
ATOM      3  C   UNL     1       3.472   7.436  18.125  0.00  0.00    +0.000 C 
ATOM      4  O   UNL     1       4.471   7.373  17.085  0.00  0.00    +0.000 OA
ATOM      5  C   UNL     1       5.435   6.448  17.381  0.00  0.00    +0.000 A 
ATOM      6  C   UNL     1       6.769   6.870  17.529  0.00  0.00    +0.000 A 
ATOM      7  C   UNL     1       7.785   5.928  17.705  0.00  0.00    +0.000 A 
ATOM      8  C   UNL     1       7.488   4.564  17.740  0.00  0.00    +0.000 A 
ATOM      9  C   UNL     1       6.173   4.136  17.529  0.00  0.00    +0.000 A 
ATOM     10  C   UNL     1       5.158   5.074  17.351  0.00  0.00    +0.000 A 
ATOM     11  C   UNL     1       3.796   4.525  17.156  0.00  0.00    +0.000 C 
ATOM     12  O   UNL     1       3.621   3.574  16.403  0.00  0.00    +0.000 OA
ENDROOT
BRANCH   6  13
ATOM     13  N   UNL     1       7.120   8.246  17.433  0.00  0.00    +0.000 N 
ATOM     14  C   UNL     1       8.131   8.823  18.188  0.00  0.00    +0.000 C 
ATOM     15  O   UNL     1       8.883   8.217  18.946  0.00  0.00    +0.000 OA
ATOM     16  H   UNL     1       6.752   8.750  16.639  0.00  0.00    +0.000 HD
BRANCH  14  17
ATOM     17  C   UNL     1       8.370  10.280  17.983  0.00  0.00    +0.000 A 
ATOM     18  C   UNL     1       9.578  10.898  18.306  0.00  0.00    +0.000 A 
ATOM     19  C   UNL     1       9.707  12.248  18.041  0.00  0.00    +0.000 A 
ATOM     20  N   UNL     1       8.730  13.003  17.487  0.00  0.00    +0.000 NA
ATOM     21  C   UNL     1       7.574  12.379  17.177  0.00  0.00    +0.000 A 
ATOM     22  C   UNL     1       7.354  11.037  17.396  0.00  0.00    +0.000 A 
ENDBRANCH  14  17
ENDBRANCH   6  13
BRANCH   1  24
ATOM     23  C   UNL     1       1.745   4.993  20.288  0.00  0.00    +0.000 C 
ATOM     24  C   UNL     1       2.594   4.220  19.274  0.00  0.00    +0.000 C 
ATOM     25  C   UNL     1       1.955   2.852  19.028  0.00  0.00    +0.000 C 
ENDBRANCH   1  24
BRANCH   3  26
ATOM     26  C   UNL     1       2.817   8.831  18.013  0.00  0.00    +0.000 C 
BRANCH  26  27
ATOM     27  N   UNL     1       1.509   8.913  18.676  0.00  0.00    +0.000 NA
ATOM     28  H   UNL     1       0.872   8.235  18.254  0.00  0.00    +0.000 HD
BRANCH  27  29
ATOM     29  C   UNL     1       1.653   8.614  20.100  0.00  0.00    +0.000 C 
BRANCH  29  30
ATOM     30  C   UNL     1       0.746   9.490  20.929  0.00  0.00    +0.000 A 
ATOM     31  C   UNL     1       0.524   9.205  22.284  0.00  0.00    +0.000 A 
ATOM     32  C   UNL     1      -0.377   9.971  23.027  0.00  0.00    +0.000 A 
ATOM     33  C   UNL     1      -1.054  11.027  22.421  0.00  0.00    +0.000 A 
ATOM     34 CL   UNL     1      -2.205  11.933  23.323  0.00  0.00    +0.000 Cl
ATOM     35  C   UNL     1      -0.821  11.340  21.084  0.00  0.00    +0.000 A 
ATOM     36  C   UNL     1       0.074  10.572  20.339  0.00  0.00    +0.000 A 
ENDBRANCH  29  30
ENDBRANCH  27  29
ENDBRANCH  26  27
ENDBRANCH   3  26
TORSDOF 7
ENDMDL
MODEL 9
REMARK VINA RESULT:      -7.1      4.474      8.939
REMARK  Name = 
REMARK  9 active torsions:
REMARK  status: ('A' for Active; 'I' for Inactive)
REMARK    1  A    between atoms: C_1  and  C_2
REMARK    2  A    between atoms: C_2  and  C_3
REMARK    3  A    between atoms: C_2  and  N_4
REMARK    4  A    between atoms: C_6  and  C_7
REMARK    5  A    between atoms: C_7  and  N_8
REMARK    6  A    between atoms: N_8  and  C_9
REMARK    7  A    between atoms: C_9  and  C_10
REMARK    8  A    between atoms: C_19  and  N_20
REMARK    9  A    between atoms: C_21  and  C_23
REMARK                            x       y       z     vdW  Elec       q    Type
REMARK                         _______ _______ _______ _____ _____    ______ ____
ROOT
ATOM      1  N   UNL     1       1.188  12.178  18.953  0.00  0.00    +0.000 N 
ATOM      2  C   UNL     1       1.620  11.095  18.078  0.00  0.00    +0.000 C 
ATOM      3  C   UNL     1       1.762   9.721  18.745  0.00  0.00    +0.000 C 
ATOM      4  O   UNL     1       0.474   9.225  19.168  0.00  0.00    +0.000 OA
ATOM      5  C   UNL     1       0.142   9.705  20.406  0.00  0.00    +0.000 A 
ATOM      6  C   UNL     1      -0.057   8.798  21.464  0.00  0.00    +0.000 A 
ATOM      7  C   UNL     1      -0.520   9.256  22.699  0.00  0.00    +0.000 A 
ATOM      8  C   UNL     1      -0.785  10.612  22.898  0.00  0.00    +0.000 A 
ATOM      9  C   UNL     1      -0.651  11.508  21.832  0.00  0.00    +0.000 A 
ATOM     10  C   UNL     1      -0.192  11.053  20.597  0.00  0.00    +0.000 A 
ATOM     11  C   UNL     1      -0.063  12.079  19.536  0.00  0.00    +0.000 C 
ATOM     12  O   UNL     1      -0.954  12.905  19.371  0.00  0.00    +0.000 OA
ENDROOT
BRANCH   6  13
ATOM     13  N   UNL     1       0.139   7.401  21.280  0.00  0.00    +0.000 N 
ATOM     14  C   UNL     1       1.387   6.835  21.056  0.00  0.00    +0.000 C 
ATOM     15  O   UNL     1       2.453   7.443  21.074  0.00  0.00    +0.000 OA
ATOM     16  H   UNL     1      -0.633   6.801  21.532  0.00  0.00    +0.000 HD
BRANCH  14  17
ATOM     17  C   UNL     1       1.426   5.357  20.870  0.00  0.00    +0.000 A 
ATOM     18  C   UNL     1       0.695   4.703  19.878  0.00  0.00    +0.000 A 
ATOM     19  C   UNL     1       0.833   3.332  19.768  0.00  0.00    +0.000 A 
ATOM     20  N   UNL     1       1.635   2.590  20.566  0.00  0.00    +0.000 NA
ATOM     21  C   UNL     1       2.338   3.249  21.512  0.00  0.00    +0.000 A 
ATOM     22  C   UNL     1       2.272   4.612  21.694  0.00  0.00    +0.000 A 
ENDBRANCH  14  17
ENDBRANCH   6  13
BRANCH   1  24
ATOM     23  C   UNL     1       3.090  13.722  18.458  0.00  0.00    +0.000 C 
ATOM     24  C   UNL     1       2.151  13.140  19.518  0.00  0.00    +0.000 C 
ATOM     25  C   UNL     1       1.491  14.286  20.285  0.00  0.00    +0.000 C 
ENDBRANCH   1  24
BRANCH   3  26
ATOM     26  C   UNL     1       2.291   8.716  17.698  0.00  0.00    +0.000 C 
BRANCH  26  27
ATOM     27  N   UNL     1       2.857   7.500  18.296  0.00  0.00    +0.000 NA
ATOM     28  H   UNL     1       2.104   6.840  18.499  0.00  0.00    +0.000 HD
BRANCH  27  29
ATOM     29  C   UNL     1       3.799   6.879  17.365  0.00  0.00    +0.000 C 
BRANCH  29  30
ATOM     30  C   UNL     1       3.934   5.402  17.639  0.00  0.00    +0.000 A 
ATOM     31  C   UNL     1       3.196   4.469  16.896  0.00  0.00    +0.000 A 
ATOM     32  C   UNL     1       3.264   3.109  17.204  0.00  0.00    +0.000 A 
ATOM     33  C   UNL     1       4.073   2.675  18.253  0.00  0.00    +0.000 A 
ATOM     34 CL   UNL     1       4.112   1.006  18.667  0.00  0.00    +0.000 Cl
ATOM     35  C   UNL     1       4.835   3.587  18.981  0.00  0.00    +0.000 A 
ATOM     36  C   UNL     1       4.763   4.947  18.676  0.00  0.00    +0.000 A 
ENDBRANCH  29  30
ENDBRANCH  27  29
ENDBRANCH  26  27
ENDBRANCH   3  26
TORSDOF 7
ENDMDL
