MODEL 1
REMARK VINA RESULT:      -6.9      0.000      0.000
REMARK  Name = 
REMARK  10 active torsions:
REMARK  status: ('A' for Active; 'I' for Inactive)
REMARK    1  A    between atoms: C_1  and  C_2
REMARK    2  A    between atoms: C_2  and  N_3
REMARK    3  A    between atoms: N_6  and  C_7
REMARK    4  A    between atoms: C_7  and  C_8
REMARK    5  A    between atoms: C_8  and  C_9
REMARK    6  A    between atoms: N_11  and  C_12
REMARK    7  A    between atoms: C_14  and  O_15
REMARK    8  A    between atoms: O_15  and  C_16
REMARK    9  A    between atoms: C_19  and  O_20
REMARK   10  A    between atoms: O_20  and  C_21
REMARK                            x       y       z     vdW  Elec       q    Type
REMARK                         _______ _______ _______ _____ _____    ______ ____
ROOT
ATOM      1  C   UNL     1       7.794   7.973  17.909  0.00  0.00    +0.000 C 
ATOM      2  O   UNL     1       8.305   7.168  18.680  0.00  0.00    +0.000 OA
ATOM      3  N   UNL     1       6.739   7.697  17.048  0.00  0.00    +0.000 N 
ATOM      4  H   UNL     1       6.609   8.313  16.261  0.00  0.00    +0.000 HD
ENDROOT
BRANCH   3   5
ATOM      5  C   UNL     1       6.157   6.412  16.984  0.00  0.00    +0.000 A 
ATOM      6  C   UNL     1       5.099   6.143  17.871  0.00  0.00    +0.000 A 
ATOM      7  C   UNL     1       4.463   4.904  17.900  0.00  0.00    +0.000 A 
ATOM      8  C   UNL     1       4.864   3.918  17.012  0.00  0.00    +0.000 A 
ATOM      9  C   UNL     1       5.893   4.183  16.102  0.00  0.00    +0.000 A 
ATOM     10  C   UNL     1       6.548   5.429  16.064  0.00  0.00    +0.000 A 
BRANCH   7  11
ATOM     11  O   UNL     1       3.437   4.792  18.795  0.00  0.00    +0.000 OA
ATOM     12  C   UNL     1       2.555   5.906  18.837  0.00  0.00    +0.000 C 
ENDBRANCH   7  11
BRANCH  10  13
ATOM     13  O   UNL     1       7.521   5.456  15.104  0.00  0.00    +0.000 OA
ATOM     14  C   UNL     1       7.295   4.890  13.826  0.00  0.00    +0.000 C 
ENDBRANCH  10  13
ENDBRANCH   3   5
BRANCH   1  15
ATOM     15  C   UNL     1       8.306   9.389  17.761  0.00  0.00    +0.000 C 
BRANCH  15  16
ATOM     16  C   UNL     1       9.124   9.789  18.995  0.00  0.00    +0.000 C 
BRANCH  16  20
ATOM     17  N   UNL     1      11.810  12.396  18.592  0.00  0.00    +0.000 NA
ATOM     18  C   UNL     1      11.577  11.611  19.826  0.00  0.00    +0.000 C 
ATOM     19  C   UNL     1      10.108  11.565  20.330  0.00  0.00    +0.000 C 
ATOM     20  N   UNL     1       9.090  11.234  19.298  0.00  0.00    +0.000 NA
ATOM     21  C   UNL     1       9.339  12.089  18.123  0.00  0.00    +0.000 C 
ATOM     22  C   UNL     1      10.789  12.022  17.590  0.00  0.00    +0.000 C 
BRANCH  17  24
ATOM     23  C   UNL     1      12.023  14.665  17.537  0.00  0.00    +0.000 C 
ATOM     24  C   UNL     1      11.800  13.851  18.805  0.00  0.00    +0.000 C 
ENDBRANCH  17  24
ENDBRANCH  16  20
ENDBRANCH  15  16
ENDBRANCH   1  15
TORSDOF 7
ENDMDL
MODEL 2
REMARK VINA RESULT:      -6.7      0.915      1.539
REMARK  Name = 
REMARK  10 active torsions:
REMARK  status: ('A' for Active; 'I' for Inactive)
REMARK    1  A    between atoms: C_1  and  C_2
REMARK    2  A    between atoms: C_2  and  N_3
REMARK    3  A    between atoms: N_6  and  C_7
REMARK    4  A    between atoms: C_7  and  C_8
REMARK    5  A    between atoms: C_8  and  C_9
REMARK    6  A    between atoms: N_11  and  C_12
REMARK    7  A    between atoms: C_14  and  O_15
REMARK    8  A    between atoms: O_15  and  C_16
REMARK    9  A    between atoms: C_19  and  O_20
REMARK   10  A    between atoms: O_20  and  C_21
REMARK                            x       y       z     vdW  Elec       q    Type
REMARK                         _______ _______ _______ _____ _____    ______ ____
ROOT
ATOM      1  C   UNL     1       7.836   7.897  17.900  0.00  0.00    +0.000 C 
ATOM      2  O   UNL     1       8.279   7.083  18.703  0.00  0.00    +0.000 OA
ATOM      3  N   UNL     1       6.822   7.647  16.984  0.00  0.00    +0.000 N 
ATOM      4  H   UNL     1       6.754   8.261  16.188  0.00  0.00    +0.000 HD
ENDROOT
BRANCH   3   5
ATOM      5  C   UNL     1       6.206   6.380  16.896  0.00  0.00    +0.000 A 
ATOM      6  C   UNL     1       5.130   6.128  17.767  0.00  0.00    +0.000 A 
ATOM      7  C   UNL     1       4.460   4.907  17.771  0.00  0.00    +0.000 A 
ATOM      8  C   UNL     1       4.844   3.922  16.874  0.00  0.00    +0.000 A 
ATOM      9  C   UNL     1       5.891   4.170  15.981  0.00  0.00    +0.000 A 
ATOM     10  C   UNL     1       6.581   5.398  15.968  0.00  0.00    +0.000 A 
BRANCH   7  11
ATOM     11  O   UNL     1       3.419   4.811  18.651  0.00  0.00    +0.000 OA
ATOM     12  C   UNL     1       2.507   5.901  18.621  0.00  0.00    +0.000 C 
ENDBRANCH   7  11
BRANCH  10  13
ATOM     13  O   UNL     1       7.566   5.411  15.020  0.00  0.00    +0.000 OA
ATOM     14  C   UNL     1       7.332   4.893  13.723  0.00  0.00    +0.000 C 
ENDBRANCH  10  13
ENDBRANCH   3   5
BRANCH   1  15
ATOM     15  C   UNL     1       8.398   9.296  17.774  0.00  0.00    +0.000 C 
BRANCH  15  16
ATOM     16  C   UNL     1       8.918   9.785  19.131  0.00  0.00    +0.000 C 
BRANCH  16  20
ATOM     17  N   UNL     1       8.977  13.541  19.376  0.00  0.00    +0.000 NA
ATOM     18  C   UNL     1       8.837  12.782  18.111  0.00  0.00    +0.000 C 
ATOM     19  C   UNL     1       9.872  11.643  17.890  0.00  0.00    +0.000 C 
ATOM     20  N   UNL     1      10.058  10.719  19.039  0.00  0.00    +0.000 NA
ATOM     21  C   UNL     1      10.251  11.534  20.253  0.00  0.00    +0.000 C 
ATOM     22  C   UNL     1       9.142  12.584  20.490  0.00  0.00    +0.000 C 
BRANCH  17  24
ATOM     23  C   UNL     1      10.148  15.376  18.122  0.00  0.00    +0.000 C 
ATOM     24  C   UNL     1      10.089  14.504  19.370  0.00  0.00    +0.000 C 
ENDBRANCH  17  24
ENDBRANCH  16  20
ENDBRANCH  15  16
ENDBRANCH   1  15
TORSDOF 7
ENDMDL
MODEL 3
REMARK VINA RESULT:      -6.4      2.583      8.534
REMARK  Name = 
REMARK  10 active torsions:
REMARK  status: ('A' for Active; 'I' for Inactive)
REMARK    1  A    between atoms: C_1  and  C_2
REMARK    2  A    between atoms: C_2  and  N_3
REMARK    3  A    between atoms: N_6  and  C_7
REMARK    4  A    between atoms: C_7  and  C_8
REMARK    5  A    between atoms: C_8  and  C_9
REMARK    6  A    between atoms: N_11  and  C_12
REMARK    7  A    between atoms: C_14  and  O_15
REMARK    8  A    between atoms: O_15  and  C_16
REMARK    9  A    between atoms: C_19  and  O_20
REMARK   10  A    between atoms: O_20  and  C_21
REMARK                            x       y       z     vdW  Elec       q    Type
REMARK                         _______ _______ _______ _____ _____    ______ ____
ROOT
ATOM      1  C   UNL     1       8.468   9.430  18.418  0.00  0.00    +0.000 C 
ATOM      2  O   UNL     1       7.910  10.326  17.794  0.00  0.00    +0.000 OA
ATOM      3  N   UNL     1       9.347   9.621  19.478  0.00  0.00    +0.000 N 
ATOM      4  H   UNL     1       9.970   8.862  19.705  0.00  0.00    +0.000 HD
ENDROOT
BRANCH   3   5
ATOM      5  C   UNL     1       9.689  10.914  19.928  0.00  0.00    +0.000 A 
ATOM      6  C   UNL     1       9.156  11.324  21.164  0.00  0.00    +0.000 A 
ATOM      7  C   UNL     1       9.420  12.585  21.694  0.00  0.00    +0.000 A 
ATOM      8  C   UNL     1      10.252  13.450  21.000  0.00  0.00    +0.000 A 
ATOM      9  C   UNL     1      10.814  13.043  19.785  0.00  0.00    +0.000 A 
ATOM     10  C   UNL     1      10.552  11.774  19.235  0.00  0.00    +0.000 A 
BRANCH   7  11
ATOM     11  O   UNL     1       8.858  12.839  22.913  0.00  0.00    +0.000 OA
ATOM     12  C   UNL     1       7.877  11.896  23.327  0.00  0.00    +0.000 C 
ENDBRANCH   7  11
BRANCH  10  13
ATOM     13  O   UNL     1      11.200  11.600  18.043  0.00  0.00    +0.000 OA
ATOM     14  C   UNL     1      11.587  12.713  17.257  0.00  0.00    +0.000 C 
ENDBRANCH  10  13
ENDBRANCH   3   5
BRANCH   1  15
ATOM     15  C   UNL     1       8.300   7.970  18.061  0.00  0.00    +0.000 C 
BRANCH  15  16
ATOM     16  C   UNL     1       7.015   7.765  17.251  0.00  0.00    +0.000 C 
BRANCH  16  20
ATOM     17  N   UNL     1       4.622   4.996  18.131  0.00  0.00    +0.000 NA
ATOM     18  C   UNL     1       5.971   5.162  18.719  0.00  0.00    +0.000 C 
ATOM     19  C   UNL     1       7.128   5.382  17.705  0.00  0.00    +0.000 C 
ATOM     20  N   UNL     1       6.877   6.416  16.668  0.00  0.00    +0.000 NA
ATOM     21  C   UNL     1       5.549   6.160  16.080  0.00  0.00    +0.000 C 
ATOM     22  C   UNL     1       4.410   6.054  17.120  0.00  0.00    +0.000 C 
BRANCH  17  24
ATOM     23  C   UNL     1       2.927   3.282  17.424  0.00  0.00    +0.000 C 
ATOM     24  C   UNL     1       4.395   3.672  17.531  0.00  0.00    +0.000 C 
ENDBRANCH  17  24
ENDBRANCH  16  20
ENDBRANCH  15  16
ENDBRANCH   1  15
TORSDOF 7
ENDMDL
MODEL 4
REMARK VINA RESULT:      -6.4      4.673      7.937
REMARK  Name = 
REMARK  10 active torsions:
REMARK  status: ('A' for Active; 'I' for Inactive)
REMARK    1  A    between atoms: C_1  and  C_2
REMARK    2  A    between atoms: C_2  and  N_3
REMARK    3  A    between atoms: N_6  and  C_7
REMARK    4  A    between atoms: C_7  and  C_8
REMARK    5  A    between atoms: C_8  and  C_9
REMARK    6  A    between atoms: N_11  and  C_12
REMARK    7  A    between atoms: C_14  and  O_15
REMARK    8  A    between atoms: O_15  and  C_16
REMARK    9  A    between atoms: C_19  and  O_20
REMARK   10  A    between atoms: O_20  and  C_21
REMARK                            x       y       z     vdW  Elec       q    Type
REMARK                         _______ _______ _______ _____ _____    ______ ____
ROOT
ATOM      1  C   UNL     1       2.705   5.719  19.852  0.00  0.00    +0.000 C 
ATOM      2  O   UNL     1       3.436   4.873  20.355  0.00  0.00    +0.000 OA
ATOM      3  N   UNL     1       2.807   6.194  18.550  0.00  0.00    +0.000 N 
ATOM      4  H   UNL     1       2.378   7.081  18.345  0.00  0.00    +0.000 HD
ENDROOT
BRANCH   3   5
ATOM      5  C   UNL     1       3.811   5.727  17.673  0.00  0.00    +0.000 A 
ATOM      6  C   UNL     1       4.924   6.563  17.471  0.00  0.00    +0.000 A 
ATOM      7  C   UNL     1       5.965   6.205  16.618  0.00  0.00    +0.000 A 
ATOM      8  C   UNL     1       5.916   4.980  15.969  0.00  0.00    +0.000 A 
ATOM      9  C   UNL     1       4.831   4.125  16.186  0.00  0.00    +0.000 A 
ATOM     10  C   UNL     1       3.770   4.476  17.043  0.00  0.00    +0.000 A 
BRANCH   7  11
ATOM     11  O   UNL     1       6.992   7.101  16.536  0.00  0.00    +0.000 OA
ATOM     12  C   UNL     1       7.659   7.360  17.766  0.00  0.00    +0.000 C 
ENDBRANCH   7  11
BRANCH  10  13
ATOM     13  O   UNL     1       2.820   3.493  17.094  0.00  0.00    +0.000 OA
ATOM     14  C   UNL     1       3.019   2.331  17.878  0.00  0.00    +0.000 C 
ENDBRANCH  10  13
ENDBRANCH   3   5
BRANCH   1  15
ATOM     15  C   UNL     1       1.606   6.406  20.633  0.00  0.00    +0.000 C 
BRANCH  15  16
ATOM     16  C   UNL     1       1.700   7.926  20.458  0.00  0.00    +0.000 C 
BRANCH  16  20
ATOM     17  N   UNL     1       0.354  11.014  22.140  0.00  0.00    +0.000 NA
ATOM     18  C   UNL     1       0.159   9.632  22.636  0.00  0.00    +0.000 C 
ATOM     19  C   UNL     1      -0.343   8.602  21.585  0.00  0.00    +0.000 C 
ATOM     20  N   UNL     1       0.394   8.597  20.295  0.00  0.00    +0.000 NA
ATOM     21  C   UNL     1       0.502   9.991  19.826  0.00  0.00    +0.000 C 
ATOM     22  C   UNL     1       1.106  10.961  20.868  0.00  0.00    +0.000 C 
BRANCH  17  24
ATOM     23  C   UNL     1      -1.827  11.726  23.162  0.00  0.00    +0.000 C 
ATOM     24  C   UNL     1      -0.900  11.760  21.955  0.00  0.00    +0.000 C 
ENDBRANCH  17  24
ENDBRANCH  16  20
ENDBRANCH  15  16
ENDBRANCH   1  15
TORSDOF 7
ENDMDL
MODEL 5
REMARK VINA RESULT:      -6.3      1.526      2.121
REMARK  Name = 
REMARK  10 active torsions:
REMARK  status: ('A' for Active; 'I' for Inactive)
REMARK    1  A    between atoms: C_1  and  C_2
REMARK    2  A    between atoms: C_2  and  N_3
REMARK    3  A    between atoms: N_6  and  C_7
REMARK    4  A    between atoms: C_7  and  C_8
REMARK    5  A    between atoms: C_8  and  C_9
REMARK    6  A    between atoms: N_11  and  C_12
REMARK    7  A    between atoms: C_14  and  O_15
REMARK    8  A    between atoms: O_15  and  C_16
REMARK    9  A    between atoms: C_19  and  O_20
REMARK   10  A    between atoms: O_20  and  C_21
REMARK                            x       y       z     vdW  Elec       q    Type
REMARK                         _______ _______ _______ _____ _____    ______ ____
ROOT
ATOM      1  C   UNL     1       7.661   7.648  17.844  0.00  0.00    +0.000 C 
ATOM      2  O   UNL     1       6.929   8.125  16.984  0.00  0.00    +0.000 OA
ATOM      3  N   UNL     1       7.597   6.343  18.316  0.00  0.00    +0.000 N 
ATOM      4  H   UNL     1       8.016   6.153  19.212  0.00  0.00    +0.000 HD
ENDROOT
BRANCH   3   5
ATOM      5  C   UNL     1       6.635   5.431  17.829  0.00  0.00    +0.000 A 
ATOM      6  C   UNL     1       5.566   5.110  18.686  0.00  0.00    +0.000 A 
ATOM      7  C   UNL     1       4.569   4.213  18.310  0.00  0.00    +0.000 A 
ATOM      8  C   UNL     1       4.616   3.639  17.048  0.00  0.00    +0.000 A 
ATOM      9  C   UNL     1       5.656   3.974  16.175  0.00  0.00    +0.000 A 
ATOM     10  C   UNL     1       6.673   4.876  16.542  0.00  0.00    +0.000 A 
BRANCH   7  11
ATOM     11  O   UNL     1       3.580   4.014  19.231  0.00  0.00    +0.000 OA
ATOM     12  C   UNL     1       3.709   2.825  20.000  0.00  0.00    +0.000 C 
ENDBRANCH   7  11
BRANCH  10  13
ATOM     13  O   UNL     1       7.583   5.045  15.536  0.00  0.00    +0.000 OA
ATOM     14  C   UNL     1       7.197   4.922  14.179  0.00  0.00    +0.000 C 
ENDBRANCH  10  13
ENDBRANCH   3   5
BRANCH   1  15
ATOM     15  C   UNL     1       8.717   8.468  18.553  0.00  0.00    +0.000 C 
BRANCH  15  16
ATOM     16  C   UNL     1       8.503   9.961  18.280  0.00  0.00    +0.000 C 
BRANCH  16  20
ATOM     17  N   UNL     1       8.937  13.348  19.865  0.00  0.00    +0.000 NA
ATOM     18  C   UNL     1       8.652  13.121  18.429  0.00  0.00    +0.000 C 
ATOM     19  C   UNL     1       9.558  12.077  17.718  0.00  0.00    +0.000 C 
ATOM     20  N   UNL     1       9.720  10.783  18.432  0.00  0.00    +0.000 NA
ATOM     21  C   UNL     1      10.061  11.077  19.836  0.00  0.00    +0.000 C 
ATOM     22  C   UNL     1       9.074  12.038  20.536  0.00  0.00    +0.000 C 
BRANCH  17  24
ATOM     23  C   UNL     1      10.295  14.617  21.555  0.00  0.00    +0.000 C 
ATOM     24  C   UNL     1      10.135  14.167  20.109  0.00  0.00    +0.000 C 
ENDBRANCH  17  24
ENDBRANCH  16  20
ENDBRANCH  15  16
ENDBRANCH   1  15
TORSDOF 7
ENDMDL
MODEL 6
REMARK VINA RESULT:      -6.3      1.109      1.120
REMARK  Name = 
REMARK  10 active torsions:
REMARK  status: ('A' for Active; 'I' for Inactive)
REMARK    1  A    between atoms: C_1  and  C_2
REMARK    2  A    between atoms: C_2  and  N_3
REMARK    3  A    between atoms: N_6  and  C_7
REMARK    4  A    between atoms: C_7  and  C_8
REMARK    5  A    between atoms: C_8  and  C_9
REMARK    6  A    between atoms: N_11  and  C_12
REMARK    7  A    between atoms: C_14  and  O_15
REMARK    8  A    between atoms: O_15  and  C_16
REMARK    9  A    between atoms: C_19  and  O_20
REMARK   10  A    between atoms: O_20  and  C_21
REMARK                            x       y       z     vdW  Elec       q    Type
REMARK                         _______ _______ _______ _____ _____    ______ ____
ROOT
ATOM      1  C   UNL     1       7.723   7.824  17.917  0.00  0.00    +0.000 C 
ATOM      2  O   UNL     1       6.969   8.224  17.037  0.00  0.00    +0.000 OA
ATOM      3  N   UNL     1       7.673   6.564  18.502  0.00  0.00    +0.000 N 
ATOM      4  H   UNL     1       8.115   6.453  19.401  0.00  0.00    +0.000 HD
ENDROOT
BRANCH   3   5
ATOM      5  C   UNL     1       6.702   5.613  18.120  0.00  0.00    +0.000 A 
ATOM      6  C   UNL     1       5.664   5.356  19.034  0.00  0.00    +0.000 A 
ATOM      7  C   UNL     1       4.662   4.427  18.763  0.00  0.00    +0.000 A 
ATOM      8  C   UNL     1       4.671   3.757  17.549  0.00  0.00    +0.000 A 
ATOM      9  C   UNL     1       5.680   4.027  16.618  0.00  0.00    +0.000 A 
ATOM     10  C   UNL     1       6.702   4.960  16.880  0.00  0.00    +0.000 A 
BRANCH   7  11
ATOM     11  O   UNL     1       3.705   4.297  19.729  0.00  0.00    +0.000 OA
ATOM     12  C   UNL     1       2.384   4.618  19.309  0.00  0.00    +0.000 C 
ENDBRANCH   7  11
BRANCH  10  13
ATOM     13  O   UNL     1       7.577   5.053  15.834  0.00  0.00    +0.000 OA
ATOM     14  C   UNL     1       7.126   4.938  14.497  0.00  0.00    +0.000 C 
ENDBRANCH  10  13
ENDBRANCH   3   5
BRANCH   1  15
ATOM     15  C   UNL     1       8.794   8.702  18.525  0.00  0.00    +0.000 C 
BRANCH  15  16
ATOM     16  C   UNL     1       8.754  10.101  17.899  0.00  0.00    +0.000 C 
BRANCH  16  20
ATOM     17  N   UNL     1      11.457  12.678  18.374  0.00  0.00    +0.000 NA
ATOM     18  C   UNL     1      11.402  11.376  19.078  0.00  0.00    +0.000 C 
ATOM     19  C   UNL     1      10.041  11.024  19.741  0.00  0.00    +0.000 C 
ATOM     20  N   UNL     1       8.845  11.203  18.877  0.00  0.00    +0.000 NA
ATOM     21  C   UNL     1       8.929  12.538  18.255  0.00  0.00    +0.000 C 
ATOM     22  C   UNL     1      10.260  12.806  17.515  0.00  0.00    +0.000 C 
BRANCH  17  24
ATOM     23  C   UNL     1      11.647  15.176  18.558  0.00  0.00    +0.000 C 
ATOM     24  C   UNL     1      11.556  13.836  19.276  0.00  0.00    +0.000 C 
ENDBRANCH  17  24
ENDBRANCH  16  20
ENDBRANCH  15  16
ENDBRANCH   1  15
TORSDOF 7
ENDMDL
MODEL 7
REMARK VINA RESULT:      -6.2      6.754      9.962
REMARK  Name = 
REMARK  10 active torsions:
REMARK  status: ('A' for Active; 'I' for Inactive)
REMARK    1  A    between atoms: C_1  and  C_2
REMARK    2  A    between atoms: C_2  and  N_3
REMARK    3  A    between atoms: N_6  and  C_7
REMARK    4  A    between atoms: C_7  and  C_8
REMARK    5  A    between atoms: C_8  and  C_9
REMARK    6  A    between atoms: N_11  and  C_12
REMARK    7  A    between atoms: C_14  and  O_15
REMARK    8  A    between atoms: O_15  and  C_16
REMARK    9  A    between atoms: C_19  and  O_20
REMARK   10  A    between atoms: O_20  and  C_21
REMARK                            x       y       z     vdW  Elec       q    Type
REMARK                         _______ _______ _______ _____ _____    ______ ____
ROOT
ATOM      1  C   UNL     1       2.151   9.317  18.094  0.00  0.00    +0.000 C 
ATOM      2  O   UNL     1       2.299  10.395  17.527  0.00  0.00    +0.000 OA
ATOM      3  N   UNL     1       1.177   9.041  19.045  0.00  0.00    +0.000 N 
ATOM      4  H   UNL     1       1.336   8.256  19.656  0.00  0.00    +0.000 HD
ENDROOT
BRANCH   3   5
ATOM      5  C   UNL     1       0.251  10.023  19.458  0.00  0.00    +0.000 A 
ATOM      6  C   UNL     1      -0.678  10.470  18.500  0.00  0.00    +0.000 A 
ATOM      7  C   UNL     1      -1.627  11.444  18.799  0.00  0.00    +0.000 A 
ATOM      8  C   UNL     1      -1.677  11.970  20.081  0.00  0.00    +0.000 A 
ATOM      9  C   UNL     1      -0.780  11.511  21.051  0.00  0.00    +0.000 A 
ATOM     10  C   UNL     1       0.188  10.530  20.763  0.00  0.00    +0.000 A 
BRANCH   7  11
ATOM     11  O   UNL     1      -2.481  11.764  17.781  0.00  0.00    +0.000 OA
ATOM     12  C   UNL     1      -2.503  10.835  16.705  0.00  0.00    +0.000 C 
ENDBRANCH   7  11
BRANCH  10  13
ATOM     13  O   UNL     1       0.956  10.244  21.858  0.00  0.00    +0.000 OA
ATOM     14  C   UNL     1       0.435   9.480  22.931  0.00  0.00    +0.000 C 
ENDBRANCH  10  13
ENDBRANCH   3   5
BRANCH   1  15
ATOM     15  C   UNL     1       3.077   8.145  17.855  0.00  0.00    +0.000 C 
BRANCH  15  16
ATOM     16  C   UNL     1       2.396   6.836  18.275  0.00  0.00    +0.000 C 
BRANCH  16  20
ATOM     17  N   UNL     1       2.493   3.291  19.535  0.00  0.00    +0.000 NA
ATOM     18  C   UNL     1       1.359   4.223  19.731  0.00  0.00    +0.000 C 
ATOM     19  C   UNL     1       1.728   5.631  20.275  0.00  0.00    +0.000 C 
ATOM     20  N   UNL     1       2.850   6.310  19.577  0.00  0.00    +0.000 NA
ATOM     21  C   UNL     1       3.966   5.352  19.468  0.00  0.00    +0.000 C 
ATOM     22  C   UNL     1       3.577   4.002  18.824  0.00  0.00    +0.000 C 
BRANCH  17  24
ATOM     23  C   UNL     1       1.962   2.585  21.887  0.00  0.00    +0.000 C 
ATOM     24  C   UNL     1       3.007   2.712  20.786  0.00  0.00    +0.000 C 
ENDBRANCH  17  24
ENDBRANCH  16  20
ENDBRANCH  15  16
ENDBRANCH   1  15
TORSDOF 7
ENDMDL
MODEL 8
REMARK VINA RESULT:      -6.2      6.099      8.357
REMARK  Name = 
REMARK  10 active torsions:
REMARK  status: ('A' for Active; 'I' for Inactive)
REMARK    1  A    between atoms: C_1  and  C_2
REMARK    2  A    between atoms: C_2  and  N_3
REMARK    3  A    between atoms: N_6  and  C_7
REMARK    4  A    between atoms: C_7  and  C_8
REMARK    5  A    between atoms: C_8  and  C_9
REMARK    6  A    between atoms: N_11  and  C_12
REMARK    7  A    between atoms: C_14  and  O_15
REMARK    8  A    between atoms: O_15  and  C_16
REMARK    9  A    between atoms: C_19  and  O_20
REMARK   10  A    between atoms: O_20  and  C_21
REMARK                            x       y       z     vdW  Elec       q    Type
REMARK                         _______ _______ _______ _____ _____    ______ ____
ROOT
ATOM      1  C   UNL     1       1.993   5.598  20.402  0.00  0.00    +0.000 C 
ATOM      2  O   UNL     1       0.803   5.306  20.458  0.00  0.00    +0.000 OA
ATOM      3  N   UNL     1       2.498   6.892  20.363  0.00  0.00    +0.000 N 
ATOM      4  H   UNL     1       3.433   7.014  20.010  0.00  0.00    +0.000 HD
ENDROOT
BRANCH   3   5
ATOM      5  C   UNL     1       1.644   8.016  20.373  0.00  0.00    +0.000 A 
ATOM      6  C   UNL     1       1.128   8.417  21.619  0.00  0.00    +0.000 A 
ATOM      7  C   UNL     1       0.268   9.506  21.741  0.00  0.00    +0.000 A 
ATOM      8  C   UNL     1      -0.070  10.231  20.608  0.00  0.00    +0.000 A 
ATOM      9  C   UNL     1       0.462   9.863  19.368  0.00  0.00    +0.000 A 
ATOM     10  C   UNL     1       1.329   8.762  19.229  0.00  0.00    +0.000 A 
BRANCH   7  11
ATOM     11  O   UNL     1      -0.136   9.796  23.013  0.00  0.00    +0.000 OA
ATOM     12  C   UNL     1      -1.126  10.813  23.110  0.00  0.00    +0.000 C 
ENDBRANCH   7  11
BRANCH  10  13
ATOM     13  O   UNL     1       1.715   8.587  17.929  0.00  0.00    +0.000 OA
ATOM     14  C   UNL     1       3.041   8.205  17.610  0.00  0.00    +0.000 C 
ENDBRANCH  10  13
ENDBRANCH   3   5
BRANCH   1  15
ATOM     15  C   UNL     1       3.080   4.550  20.311  0.00  0.00    +0.000 C 
BRANCH  15  16
ATOM     16  C   UNL     1       4.344   5.149  19.682  0.00  0.00    +0.000 C 
BRANCH  16  20
ATOM     17  N   UNL     1       5.205   4.741  16.040  0.00  0.00    +0.000 NA
ATOM     18  C   UNL     1       4.081   4.057  16.721  0.00  0.00    +0.000 C 
ATOM     19  C   UNL     1       4.435   3.345  18.057  0.00  0.00    +0.000 C 
ATOM     20  N   UNL     1       5.218   4.157  19.024  0.00  0.00    +0.000 NA
ATOM     21  C   UNL     1       6.352   4.760  18.299  0.00  0.00    +0.000 C 
ATOM     22  C   UNL     1       5.943   5.549  17.034  0.00  0.00    +0.000 C 
BRANCH  17  24
ATOM     23  C   UNL     1       6.088   3.935  13.831  0.00  0.00    +0.000 C 
ATOM     24  C   UNL     1       6.126   3.825  15.350  0.00  0.00    +0.000 C 
ENDBRANCH  17  24
ENDBRANCH  16  20
ENDBRANCH  15  16
ENDBRANCH   1  15
TORSDOF 7
ENDMDL
MODEL 9
REMARK VINA RESULT:      -6.2      6.803     10.162
REMARK  Name = 
REMARK  10 active torsions:
REMARK  status: ('A' for Active; 'I' for Inactive)
REMARK    1  A    between atoms: C_1  and  C_2
REMARK    2  A    between atoms: C_2  and  N_3
REMARK    3  A    between atoms: N_6  and  C_7
REMARK    4  A    between atoms: C_7  and  C_8
REMARK    5  A    between atoms: C_8  and  C_9
REMARK    6  A    between atoms: N_11  and  C_12
REMARK    7  A    between atoms: C_14  and  O_15
REMARK    8  A    between atoms: O_15  and  C_16
REMARK    9  A    between atoms: C_19  and  O_20
REMARK   10  A    between atoms: O_20  and  C_21
REMARK                            x       y       z     vdW  Elec       q    Type
REMARK                         _______ _______ _______ _____ _____    ______ ____
ROOT
ATOM      1  C   UNL     1       2.132   9.201  18.059  0.00  0.00    +0.000 C 
ATOM      2  O   UNL     1       2.277  10.256  17.451  0.00  0.00    +0.000 OA
ATOM      3  N   UNL     1       1.151   8.954  19.012  0.00  0.00    +0.000 N 
ATOM      4  H   UNL     1       1.310   8.196  19.655  0.00  0.00    +0.000 HD
ENDROOT
BRANCH   3   5
ATOM      5  C   UNL     1       0.215   9.946  19.379  0.00  0.00    +0.000 A 
ATOM      6  C   UNL     1       0.434  10.615  20.596  0.00  0.00    +0.000 A 
ATOM      7  C   UNL     1      -0.434  11.602  21.057  0.00  0.00    +0.000 A 
ATOM      8  C   UNL     1      -1.531  11.952  20.285  0.00  0.00    +0.000 A 
ATOM      9  C   UNL     1      -1.743  11.317  19.057  0.00  0.00    +0.000 A 
ATOM     10  C   UNL     1      -0.877  10.315  18.580  0.00  0.00    +0.000 A 
BRANCH   7  11
ATOM     11  O   UNL     1      -0.085  12.185  22.242  0.00  0.00    +0.000 OA
ATOM     12  C   UNL     1      -0.886  13.296  22.622  0.00  0.00    +0.000 C 
ENDBRANCH   7  11
BRANCH  10  13
ATOM     13  O   UNL     1      -1.285   9.833  17.367  0.00  0.00    +0.000 OA
ATOM     14  C   UNL     1      -2.447  10.342  16.738  0.00  0.00    +0.000 C 
ENDBRANCH  10  13
ENDBRANCH   3   5
BRANCH   1  15
ATOM     15  C   UNL     1       3.067   8.026  17.875  0.00  0.00    +0.000 C 
BRANCH  15  16
ATOM     16  C   UNL     1       2.295   6.707  18.003  0.00  0.00    +0.000 C 
BRANCH  16  20
ATOM     17  N   UNL     1       1.006   3.537  19.571  0.00  0.00    +0.000 NA
ATOM     18  C   UNL     1       1.142   4.831  20.279  0.00  0.00    +0.000 C 
ATOM     19  C   UNL     1       2.515   5.543  20.124  0.00  0.00    +0.000 C 
ATOM     20  N   UNL     1       3.025   5.650  18.733  0.00  0.00    +0.000 NA
ATOM     21  C   UNL     1       2.918   4.320  18.105  0.00  0.00    +0.000 C 
ATOM     22  C   UNL     1       1.507   3.695  18.189  0.00  0.00    +0.000 C 
BRANCH  17  24
ATOM     23  C   UNL     1       1.762   2.545  21.751  0.00  0.00    +0.000 C 
ATOM     24  C   UNL     1       1.700   2.422  20.234  0.00  0.00    +0.000 C 
ENDBRANCH  17  24
ENDBRANCH  16  20
ENDBRANCH  15  16
ENDBRANCH   1  15
TORSDOF 7
ENDMDL
