MODEL 1
REMARK VINA RESULT:      -8.5      0.000      0.000
REMARK  Name = 
REMARK  6 active torsions:
REMARK  status: ('A' for Active; 'I' for Inactive)
REMARK    1  A    between atoms: C_1  and  C_2
REMARK    2  A    between atoms: C_6  and  N_7
REMARK    3  A    between atoms: N_7  and  C_8
REMARK    4  A    between atoms: N_11  and  C_12
REMARK    5  A    between atoms: C_16  and  N_17
REMARK    6  A    between atoms: C_20  and  C_21
REMARK                            x       y       z     vdW  Elec       q    Type
REMARK                         _______ _______ _______ _____ _____    ______ ____
ROOT
ATOM      1  C   UNL     1       2.948   5.100  20.117  0.00  0.00    +0.000 A 
ATOM      2  N   UNL     1       3.886   5.579  19.267  0.00  0.00    +0.000 NA
ATOM      3  C   UNL     1       4.623   4.735  18.552  0.00  0.00    +0.000 A 
ATOM      4  N   UNL     1       5.589   5.333  17.775  0.00  0.00    +0.000 N 
ATOM      5  N   UNL     1       4.454   3.413  18.565  0.00  0.00    +0.000 NA
ATOM      6  C   UNL     1       3.469   2.948  19.363  0.00  0.00    +0.000 A 
ATOM      7  C   UNL     1       2.652   3.746  20.141  0.00  0.00    +0.000 A 
ATOM      8  H   UNL     1       5.332   6.309  17.664  0.00  0.00    +0.000 HD
ENDROOT
BRANCH   4   9
ATOM      9  C   UNL     1       6.049   4.622  16.594  0.00  0.00    +0.000 C 
ATOM     10  C   UNL     1       7.563   4.770  16.419  0.00  0.00    +0.000 C 
ATOM     11  O   UNL     1       7.847   4.842  15.014  0.00  0.00    +0.000 OA
ATOM     12  C   UNL     1       6.604   4.721  14.304  0.00  0.00    +0.000 C 
ATOM     13  C   UNL     1       5.498   5.159  15.263  0.00  0.00    +0.000 C 
BRANCH  13  14
ATOM     14  N   UNL     1       5.297   6.623  15.208  0.00  0.00    +0.000 NA
ATOM     15  H   UNL     1       5.221   6.919  14.235  0.00  0.00    +0.000 HD
ATOM     16  H   UNL     1       6.124   7.086  15.587  0.00  0.00    +0.000 HD
ENDBRANCH  13  14
ENDBRANCH   4   9
BRANCH   7  17
ATOM     17  C   UNL     1       1.613   3.163  21.006  0.00  0.00    +0.000 C 
ATOM     18  N   UNL     1       0.389   2.886  20.450  0.00  0.00    +0.000 N 
ATOM     19  O   UNL     1       1.830   2.938  22.191  0.00  0.00    +0.000 OA
ATOM     20  H   UNL     1       0.081   3.229  19.553  0.00  0.00    +0.000 HD
ATOM     21  H   UNL     1      -0.329   2.544  21.078  0.00  0.00    +0.000 HD
ENDBRANCH   7  17
BRANCH   1  22
ATOM     22  N   UNL     1       2.263   6.053  20.919  0.00  0.00    +0.000 N 
ATOM     23  H   UNL     1       2.781   6.211  21.792  0.00  0.00    +0.000 HD
BRANCH  22  29
ATOM     24  C   UNL     1      -0.157  10.336  21.626  0.00  0.00    +0.000 C 
ATOM     25  C   UNL     1       0.655   9.427  20.750  0.00  0.00    +0.000 A 
ATOM     26  C   UNL     1       0.911   9.782  19.420  0.00  0.00    +0.000 A 
ATOM     27  C   UNL     1       1.643   8.931  18.599  0.00  0.00    +0.000 A 
ATOM     28  C   UNL     1       2.103   7.713  19.097  0.00  0.00    +0.000 A 
ATOM     29  C   UNL     1       1.812   7.304  20.408  0.00  0.00    +0.000 A 
ATOM     30  C   UNL     1       1.126   8.195  21.242  0.00  0.00    +0.000 A 
ENDBRANCH  22  29
ENDBRANCH   1  22
TORSDOF 5
ENDMDL
MODEL 2
REMARK VINA RESULT:      -8.4      0.400      1.389
REMARK  Name = 
REMARK  6 active torsions:
REMARK  status: ('A' for Active; 'I' for Inactive)
REMARK    1  A    between atoms: C_1  and  C_2
REMARK    2  A    between atoms: C_6  and  N_7
REMARK    3  A    between atoms: N_7  and  C_8
REMARK    4  A    between atoms: N_11  and  C_12
REMARK    5  A    between atoms: C_16  and  N_17
REMARK    6  A    between atoms: C_20  and  C_21
REMARK                            x       y       z     vdW  Elec       q    Type
REMARK                         _______ _______ _______ _____ _____    ______ ____
ROOT
ATOM      1  C   UNL     1       2.913   4.965  20.187  0.00  0.00    +0.000 A 
ATOM      2  N   UNL     1       3.889   5.479  19.402  0.00  0.00    +0.000 NA
ATOM      3  C   UNL     1       4.595   4.673  18.614  0.00  0.00    +0.000 A 
ATOM      4  N   UNL     1       5.604   5.295  17.913  0.00  0.00    +0.000 N 
ATOM      5  N   UNL     1       4.359   3.367  18.491  0.00  0.00    +0.000 NA
ATOM      6  C   UNL     1       3.338   2.877  19.225  0.00  0.00    +0.000 A 
ATOM      7  C   UNL     1       2.549   3.633  20.070  0.00  0.00    +0.000 A 
ATOM      8  H   UNL     1       5.399   6.289  17.899  0.00  0.00    +0.000 HD
ENDROOT
BRANCH   4   9
ATOM      9  C   UNL     1       6.048   4.683  16.672  0.00  0.00    +0.000 C 
ATOM     10  C   UNL     1       7.551   4.890  16.466  0.00  0.00    +0.000 C 
ATOM     11  O   UNL     1       7.790   5.069  15.062  0.00  0.00    +0.000 OA
ATOM     12  C   UNL     1       6.530   4.961  14.381  0.00  0.00    +0.000 C 
ATOM     13  C   UNL     1       5.442   5.296  15.399  0.00  0.00    +0.000 C 
BRANCH  13  14
ATOM     14  N   UNL     1       5.198   6.753  15.454  0.00  0.00    +0.000 NA
ATOM     15  H   UNL     1       4.196   6.927  15.537  0.00  0.00    +0.000 HD
ATOM     16  H   UNL     1       5.492   7.173  14.572  0.00  0.00    +0.000 HD
ENDBRANCH  13  14
ENDBRANCH   4   9
BRANCH   7  17
ATOM     17  C   UNL     1       1.466   3.022  20.858  0.00  0.00    +0.000 C 
ATOM     18  N   UNL     1       0.267   2.782  20.234  0.00  0.00    +0.000 N 
ATOM     19  O   UNL     1       1.626   2.740  22.040  0.00  0.00    +0.000 OA
ATOM     20  H   UNL     1       0.004   3.168  19.341  0.00  0.00    +0.000 HD
ATOM     21  H   UNL     1      -0.482   2.419  20.812  0.00  0.00    +0.000 HD
ENDBRANCH   7  17
BRANCH   1  22
ATOM     22  N   UNL     1       2.264   5.868  21.072  0.00  0.00    +0.000 N 
ATOM     23  H   UNL     1       2.833   5.997  21.918  0.00  0.00    +0.000 HD
BRANCH  22  29
ATOM     24  C   UNL     1       2.038   9.445  17.630  0.00  0.00    +0.000 C 
ATOM     25  C   UNL     1       1.612   8.882  18.954  0.00  0.00    +0.000 A 
ATOM     26  C   UNL     1       0.773   9.625  19.793  0.00  0.00    +0.000 A 
ATOM     27  C   UNL     1       0.394   9.116  21.030  0.00  0.00    +0.000 A 
ATOM     28  C   UNL     1       0.870   7.873  21.443  0.00  0.00    +0.000 A 
ATOM     29  C   UNL     1       1.759   7.131  20.649  0.00  0.00    +0.000 A 
ATOM     30  C   UNL     1       2.085   7.627  19.381  0.00  0.00    +0.000 A 
ENDBRANCH  22  29
ENDBRANCH   1  22
TORSDOF 5
ENDMDL
MODEL 3
REMARK VINA RESULT:      -7.9      4.906      6.704
REMARK  Name = 
REMARK  6 active torsions:
REMARK  status: ('A' for Active; 'I' for Inactive)
REMARK    1  A    between atoms: C_1  and  C_2
REMARK    2  A    between atoms: C_6  and  N_7
REMARK    3  A    between atoms: N_7  and  C_8
REMARK    4  A    between atoms: N_11  and  C_12
REMARK    5  A    between atoms: C_16  and  N_17
REMARK    6  A    between atoms: C_20  and  C_21
REMARK                            x       y       z     vdW  Elec       q    Type
REMARK                         _______ _______ _______ _____ _____    ______ ____
ROOT
ATOM      1  C   UNL     1       6.842   7.306  17.307  0.00  0.00    +0.000 A 
ATOM      2  N   UNL     1       7.123   8.627  17.210  0.00  0.00    +0.000 NA
ATOM      3  C   UNL     1       8.038   9.168  18.008  0.00  0.00    +0.000 A 
ATOM      4  N   UNL     1       8.191  10.528  17.866  0.00  0.00    +0.000 N 
ATOM      5  N   UNL     1       8.765   8.468  18.879  0.00  0.00    +0.000 NA
ATOM      6  C   UNL     1       8.527   7.140  18.920  0.00  0.00    +0.000 A 
ATOM      7  C   UNL     1       7.599   6.488  18.131  0.00  0.00    +0.000 A 
ATOM      8  H   UNL     1       7.805  10.788  16.965  0.00  0.00    +0.000 HD
ENDROOT
BRANCH   4   9
ATOM      9  C   UNL     1       9.468  11.113  18.242  0.00  0.00    +0.000 C 
ATOM     10  C   UNL     1       9.472  11.518  19.718  0.00  0.00    +0.000 C 
ATOM     11  O   UNL     1      10.245  12.721  19.850  0.00  0.00    +0.000 OA
ATOM     12  C   UNL     1      10.743  13.072  18.549  0.00  0.00    +0.000 C 
ATOM     13  C   UNL     1       9.809  12.429  17.526  0.00  0.00    +0.000 C 
BRANCH  13  14
ATOM     14  N   UNL     1       8.656  13.307  17.235  0.00  0.00    +0.000 NA
ATOM     15  H   UNL     1       8.797  13.767  16.336  0.00  0.00    +0.000 HD
ATOM     16  H   UNL     1       8.617  14.048  17.936  0.00  0.00    +0.000 HD
ENDBRANCH  13  14
ENDBRANCH   4   9
BRANCH   7  17
ATOM     17  C   UNL     1       7.378   5.037  18.249  0.00  0.00    +0.000 C 
ATOM     18  N   UNL     1       7.907   4.221  17.281  0.00  0.00    +0.000 N 
ATOM     19  O   UNL     1       6.734   4.570  19.181  0.00  0.00    +0.000 OA
ATOM     20  H   UNL     1       8.263   4.545  16.396  0.00  0.00    +0.000 HD
ATOM     21  H   UNL     1       7.689   3.234  17.350  0.00  0.00    +0.000 HD
ENDBRANCH   7  17
BRANCH   1  22
ATOM     22  N   UNL     1       5.788   6.814  16.490  0.00  0.00    +0.000 N 
ATOM     23  H   UNL     1       6.151   6.106  15.841  0.00  0.00    +0.000 HD
BRANCH  22  29
ATOM     24  C   UNL     1       2.581   3.112  17.334  0.00  0.00    +0.000 C 
ATOM     25  C   UNL     1       2.973   4.554  17.476  0.00  0.00    +0.000 A 
ATOM     26  C   UNL     1       2.093   5.464  18.073  0.00  0.00    +0.000 A 
ATOM     27  C   UNL     1       2.445   6.804  18.185  0.00  0.00    +0.000 A 
ATOM     28  C   UNL     1       3.667   7.245  17.680  0.00  0.00    +0.000 A 
ATOM     29  C   UNL     1       4.545   6.368  17.024  0.00  0.00    +0.000 A 
ATOM     30  C   UNL     1       4.206   5.010  16.971  0.00  0.00    +0.000 A 
ENDBRANCH  22  29
ENDBRANCH   1  22
TORSDOF 5
ENDMDL
MODEL 4
REMARK VINA RESULT:      -7.8      3.387      4.939
REMARK  Name = 
REMARK  6 active torsions:
REMARK  status: ('A' for Active; 'I' for Inactive)
REMARK    1  A    between atoms: C_1  and  C_2
REMARK    2  A    between atoms: C_6  and  N_7
REMARK    3  A    between atoms: N_7  and  C_8
REMARK    4  A    between atoms: N_11  and  C_12
REMARK    5  A    between atoms: C_16  and  N_17
REMARK    6  A    between atoms: C_20  and  C_21
REMARK                            x       y       z     vdW  Elec       q    Type
REMARK                         _______ _______ _______ _____ _____    ______ ____
ROOT
ATOM      1  C   UNL     1       5.327   5.338  17.372  0.00  0.00    +0.000 A 
ATOM      2  N   UNL     1       4.987   4.957  16.119  0.00  0.00    +0.000 NA
ATOM      3  C   UNL     1       5.934   4.605  15.255  0.00  0.00    +0.000 A 
ATOM      4  N   UNL     1       5.477   4.302  13.993  0.00  0.00    +0.000 N 
ATOM      5  N   UNL     1       7.229   4.538  15.566  0.00  0.00    +0.000 NA
ATOM      6  C   UNL     1       7.551   4.853  16.838  0.00  0.00    +0.000 A 
ATOM      7  C   UNL     1       6.639   5.228  17.805  0.00  0.00    +0.000 A 
ATOM      8  H   UNL     1       4.485   4.101  14.066  0.00  0.00    +0.000 HD
ENDROOT
BRANCH   4   9
ATOM      9  C   UNL     1       6.282   3.412  13.172  0.00  0.00    +0.000 C 
ATOM     10  C   UNL     1       7.263   4.204  12.304  0.00  0.00    +0.000 C 
ATOM     11  O   UNL     1       7.392   3.529  11.044  0.00  0.00    +0.000 OA
ATOM     12  C   UNL     1       6.572   2.351  11.087  0.00  0.00    +0.000 C 
ATOM     13  C   UNL     1       5.490   2.599  12.136  0.00  0.00    +0.000 C 
BRANCH  13  14
ATOM     14  N   UNL     1       4.326   3.294  11.544  0.00  0.00    +0.000 NA
ATOM     15  H   UNL     1       4.318   3.144  10.535  0.00  0.00    +0.000 HD
ATOM     16  H   UNL     1       4.431   4.299  11.686  0.00  0.00    +0.000 HD
ENDBRANCH  13  14
ENDBRANCH   4   9
BRANCH   7  17
ATOM     17  C   UNL     1       7.070   5.581  19.168  0.00  0.00    +0.000 C 
ATOM     18  N   UNL     1       8.153   6.412  19.310  0.00  0.00    +0.000 N 
ATOM     19  O   UNL     1       6.484   5.142  20.150  0.00  0.00    +0.000 OA
ATOM     20  H   UNL     1       8.796   6.640  18.567  0.00  0.00    +0.000 HD
ATOM     21  H   UNL     1       8.469   6.590  20.256  0.00  0.00    +0.000 HD
ENDBRANCH   7  17
BRANCH   1  22
ATOM     22  N   UNL     1       4.273   5.791  18.211  0.00  0.00    +0.000 N 
ATOM     23  H   UNL     1       3.877   6.662  17.836  0.00  0.00    +0.000 HD
BRANCH  22  29
ATOM     24  C   UNL     1       2.093   3.168  21.826  0.00  0.00    +0.000 C 
ATOM     25  C   UNL     1       2.112   3.675  20.414  0.00  0.00    +0.000 A 
ATOM     26  C   UNL     1       1.127   3.262  19.509  0.00  0.00    +0.000 A 
ATOM     27  C   UNL     1       1.154   3.713  18.194  0.00  0.00    +0.000 A 
ATOM     28  C   UNL     1       2.179   4.558  17.771  0.00  0.00    +0.000 A 
ATOM     29  C   UNL     1       3.213   4.942  18.640  0.00  0.00    +0.000 A 
ATOM     30  C   UNL     1       3.141   4.531  19.976  0.00  0.00    +0.000 A 
ENDBRANCH  22  29
ENDBRANCH   1  22
TORSDOF 5
ENDMDL
MODEL 5
REMARK VINA RESULT:      -7.8      2.970      4.947
REMARK  Name = 
REMARK  6 active torsions:
REMARK  status: ('A' for Active; 'I' for Inactive)
REMARK    1  A    between atoms: C_1  and  C_2
REMARK    2  A    between atoms: C_6  and  N_7
REMARK    3  A    between atoms: N_7  and  C_8
REMARK    4  A    between atoms: N_11  and  C_12
REMARK    5  A    between atoms: C_16  and  N_17
REMARK    6  A    between atoms: C_20  and  C_21
REMARK                            x       y       z     vdW  Elec       q    Type
REMARK                         _______ _______ _______ _____ _____    ______ ____
ROOT
ATOM      1  C   UNL     1       5.356   5.636  17.177  0.00  0.00    +0.000 A 
ATOM      2  N   UNL     1       5.035   5.269  15.914  0.00  0.00    +0.000 NA
ATOM      3  C   UNL     1       5.953   4.700  15.137  0.00  0.00    +0.000 A 
ATOM      4  N   UNL     1       5.533   4.432  13.855  0.00  0.00    +0.000 N 
ATOM      5  N   UNL     1       7.184   4.399  15.549  0.00  0.00    +0.000 NA
ATOM      6  C   UNL     1       7.473   4.705  16.831  0.00  0.00    +0.000 A 
ATOM      7  C   UNL     1       6.588   5.295  17.712  0.00  0.00    +0.000 A 
ATOM      8  H   UNL     1       4.518   4.430  13.858  0.00  0.00    +0.000 HD
ENDROOT
BRANCH   4   9
ATOM      9  C   UNL     1       6.202   3.366  13.127  0.00  0.00    +0.000 C 
ATOM     10  C   UNL     1       7.294   3.927  12.213  0.00  0.00    +0.000 C 
ATOM     11  O   UNL     1       7.329   3.133  11.018  0.00  0.00    +0.000 OA
ATOM     12  C   UNL     1       6.344   2.096  11.146  0.00  0.00    +0.000 C 
ATOM     13  C   UNL     1       5.304   2.590  12.151  0.00  0.00    +0.000 C 
BRANCH  13  14
ATOM     14  N   UNL     1       4.259   3.393  11.480  0.00  0.00    +0.000 NA
ATOM     15  H   UNL     1       4.420   4.383  11.665  0.00  0.00    +0.000 HD
ATOM     16  H   UNL     1       3.352   3.166  11.890  0.00  0.00    +0.000 HD
ENDBRANCH  13  14
ENDBRANCH   4   9
BRANCH   7  17
ATOM     17  C   UNL     1       6.985   5.622  19.092  0.00  0.00    +0.000 C 
ATOM     18  N   UNL     1       8.101   6.399  19.278  0.00  0.00    +0.000 N 
ATOM     19  O   UNL     1       6.343   5.207  20.050  0.00  0.00    +0.000 OA
ATOM     20  H   UNL     1       8.780   6.599  18.560  0.00  0.00    +0.000 HD
ATOM     21  H   UNL     1       8.390   6.559  20.236  0.00  0.00    +0.000 HD
ENDBRANCH   7  17
BRANCH   1  22
ATOM     22  N   UNL     1       4.356   6.323  17.917  0.00  0.00    +0.000 N 
ATOM     23  H   UNL     1       3.917   7.041  17.328  0.00  0.00    +0.000 HD
BRANCH  22  29
ATOM     24  C   UNL     1       1.452   2.336  18.529  0.00  0.00    +0.000 C 
ATOM     25  C   UNL     1       1.936   3.679  18.992  0.00  0.00    +0.000 A 
ATOM     26  C   UNL     1       1.352   4.287  20.110  0.00  0.00    +0.000 A 
ATOM     27  C   UNL     1       1.783   5.541  20.528  0.00  0.00    +0.000 A 
ATOM     28  C   UNL     1       2.783   6.203  19.817  0.00  0.00    +0.000 A 
ATOM     29  C   UNL     1       3.347   5.645  18.658  0.00  0.00    +0.000 A 
ATOM     30  C   UNL     1       2.947   4.357  18.283  0.00  0.00    +0.000 A 
ENDBRANCH  22  29
ENDBRANCH   1  22
TORSDOF 5
ENDMDL
MODEL 6
REMARK VINA RESULT:      -7.8      3.531      6.833
REMARK  Name = 
REMARK  6 active torsions:
REMARK  status: ('A' for Active; 'I' for Inactive)
REMARK    1  A    between atoms: C_1  and  C_2
REMARK    2  A    between atoms: C_6  and  N_7
REMARK    3  A    between atoms: N_7  and  C_8
REMARK    4  A    between atoms: N_11  and  C_12
REMARK    5  A    between atoms: C_16  and  N_17
REMARK    6  A    between atoms: C_20  and  C_21
REMARK                            x       y       z     vdW  Elec       q    Type
REMARK                         _______ _______ _______ _____ _____    ______ ____
ROOT
ATOM      1  C   UNL     1       2.545   6.843  18.352  0.00  0.00    +0.000 A 
ATOM      2  N   UNL     1       2.250   8.091  17.919  0.00  0.00    +0.000 NA
ATOM      3  C   UNL     1       1.650   8.950  18.737  0.00  0.00    +0.000 A 
ATOM      4  N   UNL     1       1.339  10.164  18.168  0.00  0.00    +0.000 N 
ATOM      5  N   UNL     1       1.368   8.682  20.012  0.00  0.00    +0.000 NA
ATOM      6  C   UNL     1       1.729   7.459  20.455  0.00  0.00    +0.000 A 
ATOM      7  C   UNL     1       2.357   6.501  19.682  0.00  0.00    +0.000 A 
ATOM      8  H   UNL     1       1.914  10.270  17.338  0.00  0.00    +0.000 HD
ENDROOT
BRANCH   4   9
ATOM      9  C   UNL     1       1.210  11.315  19.046  0.00  0.00    +0.000 C 
ATOM     10  C   UNL     1      -0.158  11.982  18.878  0.00  0.00    +0.000 C 
ATOM     11  O   UNL     1       0.014  13.400  19.026  0.00  0.00    +0.000 OA
ATOM     12  C   UNL     1       1.401  13.651  19.301  0.00  0.00    +0.000 C 
ATOM     13  C   UNL     1       2.188  12.463  18.750  0.00  0.00    +0.000 C 
BRANCH  13  14
ATOM     14  N   UNL     1       2.516  12.661  17.322  0.00  0.00    +0.000 NA
ATOM     15  H   UNL     1       3.240  11.999  17.044  0.00  0.00    +0.000 HD
ATOM     16  H   UNL     1       2.915  13.593  17.199  0.00  0.00    +0.000 HD
ENDBRANCH  13  14
ENDBRANCH   4   9
BRANCH   7  17
ATOM     17  C   UNL     1       2.699   5.179  20.230  0.00  0.00    +0.000 C 
ATOM     18  N   UNL     1       1.735   4.500  20.933  0.00  0.00    +0.000 N 
ATOM     19  O   UNL     1       3.814   4.697  20.071  0.00  0.00    +0.000 OA
ATOM     20  H   UNL     1       0.880   4.915  21.273  0.00  0.00    +0.000 HD
ATOM     21  H   UNL     1       2.012   3.621  21.354  0.00  0.00    +0.000 HD
ENDBRANCH   7  17
BRANCH   1  22
ATOM     22  N   UNL     1       3.100   5.949  17.397  0.00  0.00    +0.000 N 
ATOM     23  H   UNL     1       2.635   6.075  16.490  0.00  0.00    +0.000 HD
BRANCH  22  29
ATOM     24  C   UNL     1       7.647   7.948  17.551  0.00  0.00    +0.000 C 
ATOM     25  C   UNL     1       6.748   6.776  17.291  0.00  0.00    +0.000 A 
ATOM     26  C   UNL     1       7.280   5.583  16.786  0.00  0.00    +0.000 A 
ATOM     27  C   UNL     1       6.446   4.502  16.523  0.00  0.00    +0.000 A 
ATOM     28  C   UNL     1       5.074   4.617  16.740  0.00  0.00    +0.000 A 
ATOM     29  C   UNL     1       4.503   5.819  17.190  0.00  0.00    +0.000 A 
ATOM     30  C   UNL     1       5.360   6.879  17.508  0.00  0.00    +0.000 A 
ENDBRANCH  22  29
ENDBRANCH   1  22
TORSDOF 5
ENDMDL
MODEL 7
REMARK VINA RESULT:      -7.7      2.256      6.755
REMARK  Name = 
REMARK  6 active torsions:
REMARK  status: ('A' for Active; 'I' for Inactive)
REMARK    1  A    between atoms: C_1  and  C_2
REMARK    2  A    between atoms: C_6  and  N_7
REMARK    3  A    between atoms: N_7  and  C_8
REMARK    4  A    between atoms: N_11  and  C_12
REMARK    5  A    between atoms: C_16  and  N_17
REMARK    6  A    between atoms: C_20  and  C_21
REMARK                            x       y       z     vdW  Elec       q    Type
REMARK                         _______ _______ _______ _____ _____    ______ ____
ROOT
ATOM      1  C   UNL     1       3.599   4.730  19.644  0.00  0.00    +0.000 A 
ATOM      2  N   UNL     1       3.349   6.026  19.947  0.00  0.00    +0.000 NA
ATOM      3  C   UNL     1       2.097   6.426  20.152  0.00  0.00    +0.000 A 
ATOM      4  N   UNL     1       1.958   7.775  20.385  0.00  0.00    +0.000 N 
ATOM      5  N   UNL     1       1.048   5.604  20.144  0.00  0.00    +0.000 NA
ATOM      6  C   UNL     1       1.316   4.302  19.911  0.00  0.00    +0.000 A 
ATOM      7  C   UNL     1       2.580   3.792  19.687  0.00  0.00    +0.000 A 
ATOM      8  H   UNL     1       2.865   8.133  20.668  0.00  0.00    +0.000 HD
ENDROOT
BRANCH   4   9
ATOM      9  C   UNL     1       0.797   8.220  21.139  0.00  0.00    +0.000 C 
ATOM     10  C   UNL     1       0.133   9.423  20.465  0.00  0.00    +0.000 C 
ATOM     11  O   UNL     1      -0.365  10.293  21.492  0.00  0.00    +0.000 OA
ATOM     12  C   UNL     1      -0.074   9.690  22.763  0.00  0.00    +0.000 C 
ATOM     13  C   UNL     1       1.108   8.747  22.549  0.00  0.00    +0.000 C 
BRANCH  13  14
ATOM     14  N   UNL     1       2.393   9.468  22.684  0.00  0.00    +0.000 NA
ATOM     15  H   UNL     1       2.222  10.473  22.669  0.00  0.00    +0.000 HD
ATOM     16  H   UNL     1       2.976   9.262  21.873  0.00  0.00    +0.000 HD
ENDBRANCH  13  14
ENDBRANCH   4   9
BRANCH   7  17
ATOM     17  C   UNL     1       2.791   2.360  19.415  0.00  0.00    +0.000 C 
ATOM     18  N   UNL     1       1.750   1.643  18.879  0.00  0.00    +0.000 N 
ATOM     19  O   UNL     1       3.861   1.820  19.666  0.00  0.00    +0.000 OA
ATOM     20  H   UNL     1       0.796   1.968  18.841  0.00  0.00    +0.000 HD
ATOM     21  H   UNL     1       1.897   0.648  18.759  0.00  0.00    +0.000 HD
ENDBRANCH   7  17
BRANCH   1  22
ATOM     22  N   UNL     1       4.947   4.392  19.345  0.00  0.00    +0.000 N 
ATOM     23  H   UNL     1       5.081   3.377  19.435  0.00  0.00    +0.000 HD
BRANCH  22  29
ATOM     24  C   UNL     1       5.565   4.168  14.419  0.00  0.00    +0.000 C 
ATOM     25  C   UNL     1       5.905   4.775  15.748  0.00  0.00    +0.000 A 
ATOM     26  C   UNL     1       6.915   5.741  15.840  0.00  0.00    +0.000 A 
ATOM     27  C   UNL     1       7.247   6.289  17.073  0.00  0.00    +0.000 A 
ATOM     28  C   UNL     1       6.588   5.858  18.224  0.00  0.00    +0.000 A 
ATOM     29  C   UNL     1       5.612   4.850  18.172  0.00  0.00    +0.000 A 
ATOM     30  C   UNL     1       5.245   4.349  16.917  0.00  0.00    +0.000 A 
ENDBRANCH  22  29
ENDBRANCH   1  22
TORSDOF 5
ENDMDL
MODEL 8
REMARK VINA RESULT:      -7.7      3.241      7.569
REMARK  Name = 
REMARK  6 active torsions:
REMARK  status: ('A' for Active; 'I' for Inactive)
REMARK    1  A    between atoms: C_1  and  C_2
REMARK    2  A    between atoms: C_6  and  N_7
REMARK    3  A    between atoms: N_7  and  C_8
REMARK    4  A    between atoms: N_11  and  C_12
REMARK    5  A    between atoms: C_16  and  N_17
REMARK    6  A    between atoms: C_20  and  C_21
REMARK                            x       y       z     vdW  Elec       q    Type
REMARK                         _______ _______ _______ _____ _____    ______ ____
ROOT
ATOM      1  C   UNL     1       5.680   5.419  16.810  0.00  0.00    +0.000 A 
ATOM      2  N   UNL     1       4.681   4.528  17.016  0.00  0.00    +0.000 NA
ATOM      3  C   UNL     1       4.595   3.890  18.179  0.00  0.00    +0.000 A 
ATOM      4  N   UNL     1       3.582   2.961  18.250  0.00  0.00    +0.000 N 
ATOM      5  N   UNL     1       5.408   4.119  19.210  0.00  0.00    +0.000 NA
ATOM      6  C   UNL     1       6.358   5.060  19.019  0.00  0.00    +0.000 A 
ATOM      7  C   UNL     1       6.526   5.775  17.849  0.00  0.00    +0.000 A 
ATOM      8  H   UNL     1       2.914   3.179  17.518  0.00  0.00    +0.000 HD
ENDROOT
BRANCH   4   9
ATOM      9  C   UNL     1       3.054   2.628  19.562  0.00  0.00    +0.000 C 
ATOM     10  C   UNL     1       1.673   1.977  19.449  0.00  0.00    +0.000 C 
ATOM     11  O   UNL     1       0.880   2.411  20.565  0.00  0.00    +0.000 OA
ATOM     12  C   UNL     1       1.694   3.270  21.379  0.00  0.00    +0.000 C 
ATOM     13  C   UNL     1       2.787   3.836  20.474  0.00  0.00    +0.000 C 
BRANCH  13  14
ATOM     14  N   UNL     1       2.324   5.059  19.784  0.00  0.00    +0.000 NA
ATOM     15  H   UNL     1       1.457   5.383  20.212  0.00  0.00    +0.000 HD
ATOM     16  H   UNL     1       2.100   4.829  18.815  0.00  0.00    +0.000 HD
ENDBRANCH  13  14
ENDBRANCH   4   9
BRANCH   7  17
ATOM     17  C   UNL     1       7.602   6.769  17.707  0.00  0.00    +0.000 C 
ATOM     18  N   UNL     1       8.348   7.078  18.817  0.00  0.00    +0.000 N 
ATOM     19  O   UNL     1       7.823   7.313  16.631  0.00  0.00    +0.000 OA
ATOM     20  H   UNL     1       8.094   6.829  19.760  0.00  0.00    +0.000 HD
ATOM     21  H   UNL     1       9.041   7.810  18.710  0.00  0.00    +0.000 HD
ENDBRANCH   7  17
BRANCH   1  22
ATOM     22  N   UNL     1       5.768   5.993  15.512  0.00  0.00    +0.000 N 
ATOM     23  H   UNL     1       6.315   6.862  15.551  0.00  0.00    +0.000 HD
BRANCH  22  29
ATOM     24  C   UNL     1       4.559   2.917  11.800  0.00  0.00    +0.000 C 
ATOM     25  C   UNL     1       5.574   3.759  12.517  0.00  0.00    +0.000 A 
ATOM     26  C   UNL     1       6.910   3.757  12.096  0.00  0.00    +0.000 A 
ATOM     27  C   UNL     1       7.856   4.518  12.771  0.00  0.00    +0.000 A 
ATOM     28  C   UNL     1       7.478   5.267  13.884  0.00  0.00    +0.000 A 
ATOM     29  C   UNL     1       6.158   5.244  14.365  0.00  0.00    +0.000 A 
ATOM     30  C   UNL     1       5.203   4.521  13.641  0.00  0.00    +0.000 A 
ENDBRANCH  22  29
ENDBRANCH   1  22
TORSDOF 5
ENDMDL
MODEL 9
REMARK VINA RESULT:      -7.5      3.678      5.919
REMARK  Name = 
REMARK  6 active torsions:
REMARK  status: ('A' for Active; 'I' for Inactive)
REMARK    1  A    between atoms: C_1  and  C_2
REMARK    2  A    between atoms: C_6  and  N_7
REMARK    3  A    between atoms: N_7  and  C_8
REMARK    4  A    between atoms: N_11  and  C_12
REMARK    5  A    between atoms: C_16  and  N_17
REMARK    6  A    between atoms: C_20  and  C_21
REMARK                            x       y       z     vdW  Elec       q    Type
REMARK                         _______ _______ _______ _____ _____    ______ ____
ROOT
ATOM      1  C   UNL     1       0.757   9.839  19.842  0.00  0.00    +0.000 A 
ATOM      2  N   UNL     1       1.303   8.783  19.194  0.00  0.00    +0.000 NA
ATOM      3  C   UNL     1       1.836   7.784  19.891  0.00  0.00    +0.000 A 
ATOM      4  N   UNL     1       2.421   6.800  19.128  0.00  0.00    +0.000 N 
ATOM      5  N   UNL     1       1.811   7.716  21.222  0.00  0.00    +0.000 NA
ATOM      6  C   UNL     1       1.201   8.739  21.858  0.00  0.00    +0.000 A 
ATOM      7  C   UNL     1       0.620   9.819  21.222  0.00  0.00    +0.000 A 
ATOM      8  H   UNL     1       2.049   6.879  18.187  0.00  0.00    +0.000 HD
ENDROOT
BRANCH   4   9
ATOM      9  C   UNL     1       2.525   5.467  19.698  0.00  0.00    +0.000 C 
ATOM     10  C   UNL     1       3.937   4.903  19.521  0.00  0.00    +0.000 C 
ATOM     11  O   UNL     1       3.829   3.490  19.288  0.00  0.00    +0.000 OA
ATOM     12  C   UNL     1       2.437   3.138  19.337  0.00  0.00    +0.000 C 
ATOM     13  C   UNL     1       1.646   4.405  19.018  0.00  0.00    +0.000 C 
BRANCH  13  14
ATOM     14  N   UNL     1       1.473   4.569  17.558  0.00  0.00    +0.000 NA
ATOM     15  H   UNL     1       0.738   5.253  17.378  0.00  0.00    +0.000 HD
ATOM     16  H   UNL     1       1.150   3.686  17.161  0.00  0.00    +0.000 HD
ENDBRANCH  13  14
ENDBRANCH   4   9
BRANCH   7  17
ATOM     17  C   UNL     1      -0.006  10.911  21.985  0.00  0.00    +0.000 C 
ATOM     18  N   UNL     1      -0.986  10.589  22.890  0.00  0.00    +0.000 N 
ATOM     19  O   UNL     1       0.331  12.077  21.813  0.00  0.00    +0.000 OA
ATOM     20  H   UNL     1      -1.449   9.694  22.933  0.00  0.00    +0.000 HD
ATOM     21  H   UNL     1      -1.446  11.362  23.357  0.00  0.00    +0.000 HD
ENDBRANCH   7  17
BRANCH   1  22
ATOM     22  N   UNL     1       0.292  10.913  19.036  0.00  0.00    +0.000 N 
ATOM     23  H   UNL     1       0.959  11.093  18.276  0.00  0.00    +0.000 HD
BRANCH  22  29
ATOM     24  C   UNL     1      -2.979   9.644  15.516  0.00  0.00    +0.000 C 
ATOM     25  C   UNL     1      -2.661  10.326  16.814  0.00  0.00    +0.000 A 
ATOM     26  C   UNL     1      -3.648  11.065  17.478  0.00  0.00    +0.000 A 
ATOM     27  C   UNL     1      -3.351  11.716  18.669  0.00  0.00    +0.000 A 
ATOM     28  C   UNL     1      -2.060  11.652  19.191  0.00  0.00    +0.000 A 
ATOM     29  C   UNL     1      -1.034  10.968  18.519  0.00  0.00    +0.000 A 
ATOM     30  C   UNL     1      -1.360  10.267  17.352  0.00  0.00    +0.000 A 
ENDBRANCH  22  29
ENDBRANCH   1  22
TORSDOF 5
ENDMDL
