MODEL 1
REMARK VINA RESULT:      -7.7      0.000      0.000
REMARK  Name = 
REMARK  6 active torsions:
REMARK  status: ('A' for Active; 'I' for Inactive)
REMARK    1  A    between atoms: C_1  and  N_2
REMARK    2  A    between atoms: C_3  and  C_5
REMARK    3  A    between atoms: C_5  and  C_6
REMARK    4  A    between atoms: C_11  and  N_12
REMARK    5  A    between atoms: N_15  and  C_16
REMARK    6  A    between atoms: C_24  and  O_25
REMARK                            x       y       z     vdW  Elec       q    Type
REMARK                         _______ _______ _______ _____ _____    ______ ____
ROOT
ATOM      1  N   UNL     1       4.177   7.220  17.655  0.00  0.00    +0.000 N 
ATOM      2  C   UNL     1       2.866   7.189  18.155  0.00  0.00    +0.000 C 
ATOM      3  O   UNL     1       2.013   6.330  17.953  0.00  0.00    +0.000 OA
ATOM      4  N   UNL     1       2.581   8.314  18.886  0.00  0.00    +0.000 N 
ATOM      5  H   UNL     1       4.740   8.032  17.883  0.00  0.00    +0.000 HD
ATOM      6  H   UNL     1       2.993   9.108  18.410  0.00  0.00    +0.000 HD
ENDROOT
BRANCH   4   7
ATOM      7  C   UNL     1       1.207   8.702  19.258  0.00  0.00    +0.000 C 
ATOM      8  C   UNL     1       0.840   9.179  20.666  0.00  0.00    +0.000 A 
ATOM      9  C   UNL     1       0.283   8.459  21.719  0.00  0.00    +0.000 A 
ATOM     10  C   UNL     1      -0.466   9.152  22.693  0.00  0.00    +0.000 A 
ATOM     11  C   UNL     1      -0.649  10.542  22.615  0.00  0.00    +0.000 A 
ATOM     12  C   UNL     1      -0.008  11.274  21.622  0.00  0.00    +0.000 A 
ATOM     13  C   UNL     1       0.743  10.584  20.684  0.00  0.00    +0.000 A 
ATOM     14  C   UNL     1       1.364  11.148  19.461  0.00  0.00    +0.000 C 
ATOM     15  C   UNL     1       0.943  10.044  18.480  0.00  0.00    +0.000 C 
BRANCH  15  16
ATOM     16  O   UNL     1       1.697  10.103  17.263  0.00  0.00    +0.000 OA
ATOM     17  H   UNL     1       1.153  10.573  16.606  0.00  0.00    +0.000 HD
ENDBRANCH  15  16
ENDBRANCH   4   7
BRANCH   1  23
ATOM     18  C   UNL     1       5.273   4.967  17.605  0.00  0.00    +0.000 A 
ATOM     19  C   UNL     1       5.866   3.953  16.834  0.00  0.00    +0.000 A 
ATOM     20  C   UNL     1       6.125   4.128  15.477  0.00  0.00    +0.000 A 
ATOM     21  C   UNL     1       5.772   5.321  14.872  0.00  0.00    +0.000 A 
ATOM     22  C   UNL     1       5.131   6.315  15.600  0.00  0.00    +0.000 A 
ATOM     23  C   UNL     1       4.852   6.175  16.965  0.00  0.00    +0.000 A 
BRANCH  18  24
ATOM     24  C   UNL     1       5.251   4.725  19.103  0.00  0.00    +0.000 C 
BRANCH  24  27
ATOM     25  C   UNL     1       2.141   2.575  19.448  0.00  0.00    +0.000 C 
ATOM     26  N   UNL     1       3.077   3.611  19.104  0.00  0.00    +0.000 N 
ATOM     27  C   UNL     1       4.401   3.516  19.482  0.00  0.00    +0.000 C 
ATOM     28  O   UNL     1       4.879   2.516  20.018  0.00  0.00    +0.000 OA
ATOM     29  H   UNL     1       2.697   4.545  18.992  0.00  0.00    +0.000 HD
ENDBRANCH  24  27
ENDBRANCH  18  24
ENDBRANCH   1  23
TORSDOF 5
ENDMDL
MODEL 2
REMARK VINA RESULT:      -7.7      2.700      7.621
REMARK  Name = 
REMARK  6 active torsions:
REMARK  status: ('A' for Active; 'I' for Inactive)
REMARK    1  A    between atoms: C_1  and  N_2
REMARK    2  A    between atoms: C_3  and  C_5
REMARK    3  A    between atoms: C_5  and  C_6
REMARK    4  A    between atoms: C_11  and  N_12
REMARK    5  A    between atoms: N_15  and  C_16
REMARK    6  A    between atoms: C_24  and  O_25
REMARK                            x       y       z     vdW  Elec       q    Type
REMARK                         _______ _______ _______ _____ _____    ______ ____
ROOT
ATOM      1  N   UNL     1       1.747   9.592  18.200  0.00  0.00    +0.000 N 
ATOM      2  C   UNL     1       1.864   8.528  19.107  0.00  0.00    +0.000 C 
ATOM      3  O   UNL     1       1.670   8.558  20.318  0.00  0.00    +0.000 OA
ATOM      4  N   UNL     1       2.311   7.388  18.488  0.00  0.00    +0.000 N 
ATOM      5  H   UNL     1       1.991   9.405  17.232  0.00  0.00    +0.000 HD
ATOM      6  H   UNL     1       3.028   7.654  17.823  0.00  0.00    +0.000 HD
ENDROOT
BRANCH   4   7
ATOM      7  C   UNL     1       2.827   6.222  19.231  0.00  0.00    +0.000 C 
ATOM      8  C   UNL     1       2.031   4.921  19.376  0.00  0.00    +0.000 A 
ATOM      9  C   UNL     1       1.237   4.492  20.435  0.00  0.00    +0.000 A 
ATOM     10  C   UNL     1       1.050   3.107  20.625  0.00  0.00    +0.000 A 
ATOM     11  C   UNL     1       1.646   2.169  19.766  0.00  0.00    +0.000 A 
ATOM     12  C   UNL     1       2.353   2.600  18.650  0.00  0.00    +0.000 A 
ATOM     13  C   UNL     1       2.510   3.964  18.462  0.00  0.00    +0.000 A 
ATOM     14  C   UNL     1       3.360   4.622  17.439  0.00  0.00    +0.000 C 
ATOM     15  C   UNL     1       4.010   5.674  18.350  0.00  0.00    +0.000 C 
BRANCH  15  16
ATOM     16  O   UNL     1       4.627   6.721  17.590  0.00  0.00    +0.000 OA
ATOM     17  H   UNL     1       5.448   6.970  18.053  0.00  0.00    +0.000 HD
ENDBRANCH  15  16
ENDBRANCH   4   7
BRANCH   1  23
ATOM     18  C   UNL     1      -0.187  11.089  18.744  0.00  0.00    +0.000 A 
ATOM     19  C   UNL     1      -0.633  12.382  19.064  0.00  0.00    +0.000 A 
ATOM     20  C   UNL     1       0.227  13.477  19.035  0.00  0.00    +0.000 A 
ATOM     21  C   UNL     1       1.556  13.280  18.700  0.00  0.00    +0.000 A 
ATOM     22  C   UNL     1       2.032  12.003  18.438  0.00  0.00    +0.000 A 
ATOM     23  C   UNL     1       1.198  10.878  18.459  0.00  0.00    +0.000 A 
BRANCH  18  24
ATOM     24  C   UNL     1      -1.272  10.037  18.604  0.00  0.00    +0.000 C 
BRANCH  24  27
ATOM     25  C   UNL     1      -3.016  10.815  15.323  0.00  0.00    +0.000 C 
ATOM     26  N   UNL     1      -2.082  10.378  16.326  0.00  0.00    +0.000 N 
ATOM     27  C   UNL     1      -2.392  10.478  17.667  0.00  0.00    +0.000 C 
ATOM     28  O   UNL     1      -3.498  10.828  18.079  0.00  0.00    +0.000 OA
ATOM     29  H   UNL     1      -1.099  10.417  16.076  0.00  0.00    +0.000 HD
ENDBRANCH  24  27
ENDBRANCH  18  24
ENDBRANCH   1  23
TORSDOF 5
ENDMDL
MODEL 3
REMARK VINA RESULT:      -7.5      1.995      3.710
REMARK  Name = 
REMARK  6 active torsions:
REMARK  status: ('A' for Active; 'I' for Inactive)
REMARK    1  A    between atoms: C_1  and  N_2
REMARK    2  A    between atoms: C_3  and  C_5
REMARK    3  A    between atoms: C_5  and  C_6
REMARK    4  A    between atoms: C_11  and  N_12
REMARK    5  A    between atoms: N_15  and  C_16
REMARK    6  A    between atoms: C_24  and  O_25
REMARK                            x       y       z     vdW  Elec       q    Type
REMARK                         _______ _______ _______ _____ _____    ______ ____
ROOT
ATOM      1  N   UNL     1       2.303   5.591  20.553  0.00  0.00    +0.000 N 
ATOM      2  C   UNL     1       2.009   6.813  19.931  0.00  0.00    +0.000 C 
ATOM      3  O   UNL     1       2.167   7.104  18.749  0.00  0.00    +0.000 OA
ATOM      4  N   UNL     1       1.558   7.741  20.836  0.00  0.00    +0.000 N 
ATOM      5  H   UNL     1       2.154   5.533  21.555  0.00  0.00    +0.000 HD
ATOM      6  H   UNL     1       2.111   7.648  21.680  0.00  0.00    +0.000 HD
ENDROOT
BRANCH   4   7
ATOM      7  C   UNL     1       1.478   9.183  20.533  0.00  0.00    +0.000 C 
ATOM      8  C   UNL     1       0.234   9.824  19.910  0.00  0.00    +0.000 A 
ATOM      9  C   UNL     1      -0.017  10.138  18.578  0.00  0.00    +0.000 A 
ATOM     10  C   UNL     1      -0.925  11.177  18.285  0.00  0.00    +0.000 A 
ATOM     11  C   UNL     1      -1.573  11.885  19.310  0.00  0.00    +0.000 A 
ATOM     12  C   UNL     1      -1.401  11.503  20.636  0.00  0.00    +0.000 A 
ATOM     13  C   UNL     1      -0.524  10.466  20.908  0.00  0.00    +0.000 A 
ATOM     14  C   UNL     1      -0.075  10.017  22.249  0.00  0.00    +0.000 C 
ATOM     15  C   UNL     1       1.423   9.887  21.939  0.00  0.00    +0.000 C 
BRANCH  15  16
ATOM     16  O   UNL     1       2.104   9.119  22.938  0.00  0.00    +0.000 OA
ATOM     17  H   UNL     1       2.368   8.276  22.527  0.00  0.00    +0.000 HD
ENDBRANCH  15  16
ENDBRANCH   4   7
BRANCH   1  23
ATOM     18  C   UNL     1       4.008   4.089  19.495  0.00  0.00    +0.000 A 
ATOM     19  C   UNL     1       4.300   2.832  18.939  0.00  0.00    +0.000 A 
ATOM     20  C   UNL     1       3.302   1.886  18.714  0.00  0.00    +0.000 A 
ATOM     21  C   UNL     1       1.997   2.188  19.064  0.00  0.00    +0.000 A 
ATOM     22  C   UNL     1       1.695   3.400  19.669  0.00  0.00    +0.000 A 
ATOM     23  C   UNL     1       2.670   4.375  19.914  0.00  0.00    +0.000 A 
BRANCH  18  24
ATOM     24  C   UNL     1       5.146   5.093  19.481  0.00  0.00    +0.000 C 
BRANCH  24  27
ATOM     25  C   UNL     1       5.035   6.548  15.976  0.00  0.00    +0.000 C 
ATOM     26  N   UNL     1       4.753   6.212  17.346  0.00  0.00    +0.000 N 
ATOM     27  C   UNL     1       5.619   5.414  18.067  0.00  0.00    +0.000 C 
ATOM     28  O   UNL     1       6.712   5.045  17.637  0.00  0.00    +0.000 OA
ATOM     29  H   UNL     1       3.775   6.188  17.614  0.00  0.00    +0.000 HD
ENDBRANCH  24  27
ENDBRANCH  18  24
ENDBRANCH   1  23
TORSDOF 5
ENDMDL
MODEL 4
REMARK VINA RESULT:      -7.5      2.608      7.958
REMARK  Name = 
REMARK  6 active torsions:
REMARK  status: ('A' for Active; 'I' for Inactive)
REMARK    1  A    between atoms: C_1  and  N_2
REMARK    2  A    between atoms: C_3  and  C_5
REMARK    3  A    between atoms: C_5  and  C_6
REMARK    4  A    between atoms: C_11  and  N_12
REMARK    5  A    between atoms: N_15  and  C_16
REMARK    6  A    between atoms: C_24  and  O_25
REMARK                            x       y       z     vdW  Elec       q    Type
REMARK                         _______ _______ _______ _____ _____    ______ ____
ROOT
ATOM      1  N   UNL     1       0.970   9.525  20.277  0.00  0.00    +0.000 N 
ATOM      2  C   UNL     1       1.201   8.164  20.525  0.00  0.00    +0.000 C 
ATOM      3  O   UNL     1       0.785   7.498  21.468  0.00  0.00    +0.000 OA
ATOM      4  N   UNL     1       2.046   7.620  19.590  0.00  0.00    +0.000 N 
ATOM      5  H   UNL     1       1.430   9.934  19.470  0.00  0.00    +0.000 HD
ATOM      6  H   UNL     1       2.774   8.298  19.396  0.00  0.00    +0.000 HD
ENDROOT
BRANCH   4   7
ATOM      7  C   UNL     1       2.712   6.316  19.773  0.00  0.00    +0.000 C 
ATOM      8  C   UNL     1       1.935   4.997  19.828  0.00  0.00    +0.000 A 
ATOM      9  C   UNL     1       1.520   4.269  20.939  0.00  0.00    +0.000 A 
ATOM     10  C   UNL     1       1.326   2.878  20.805  0.00  0.00    +0.000 A 
ATOM     11  C   UNL     1       1.539   2.231  19.578  0.00  0.00    +0.000 A 
ATOM     12  C   UNL     1       1.853   2.972  18.445  0.00  0.00    +0.000 A 
ATOM     13  C   UNL     1       2.019   4.341  18.585  0.00  0.00    +0.000 A 
ATOM     14  C   UNL     1       2.512   5.282  17.550  0.00  0.00    +0.000 C 
ATOM     15  C   UNL     1       3.493   6.070  18.430  0.00  0.00    +0.000 C 
BRANCH  15  16
ATOM     16  O   UNL     1       3.880   7.305  17.814  0.00  0.00    +0.000 OA
ATOM     17  H   UNL     1       4.834   7.423  17.973  0.00  0.00    +0.000 HD
ENDBRANCH  15  16
ENDBRANCH   4   7
BRANCH   1  23
ATOM     18  C   UNL     1      -0.677  11.413  20.307  0.00  0.00    +0.000 A 
ATOM     19  C   UNL     1      -1.617  12.156  21.041  0.00  0.00    +0.000 A 
ATOM     20  C   UNL     1      -1.796  11.957  22.408  0.00  0.00    +0.000 A 
ATOM     21  C   UNL     1      -1.041  10.991  23.051  0.00  0.00    +0.000 A 
ATOM     22  C   UNL     1      -0.149  10.204  22.336  0.00  0.00    +0.000 A 
ATOM     23  C   UNL     1       0.056  10.373  20.960  0.00  0.00    +0.000 A 
BRANCH  18  24
ATOM     24  C   UNL     1      -0.436  11.884  18.885  0.00  0.00    +0.000 C 
BRANCH  24  27
ATOM     25  C   UNL     1      -2.770  11.026  16.016  0.00  0.00    +0.000 C 
ATOM     26  N   UNL     1      -1.979  11.716  17.000  0.00  0.00    +0.000 N 
ATOM     27  C   UNL     1      -1.155  11.016  17.857  0.00  0.00    +0.000 C 
ATOM     28  O   UNL     1      -0.957   9.804  17.762  0.00  0.00    +0.000 OA
ATOM     29  H   UNL     1      -2.346  12.601  17.335  0.00  0.00    +0.000 HD
ENDBRANCH  24  27
ENDBRANCH  18  24
ENDBRANCH   1  23
TORSDOF 5
ENDMDL
MODEL 5
REMARK VINA RESULT:      -7.5      2.578      8.076
REMARK  Name = 
REMARK  6 active torsions:
REMARK  status: ('A' for Active; 'I' for Inactive)
REMARK    1  A    between atoms: C_1  and  N_2
REMARK    2  A    between atoms: C_3  and  C_5
REMARK    3  A    between atoms: C_5  and  C_6
REMARK    4  A    between atoms: C_11  and  N_12
REMARK    5  A    between atoms: N_15  and  C_16
REMARK    6  A    between atoms: C_24  and  O_25
REMARK                            x       y       z     vdW  Elec       q    Type
REMARK                         _______ _______ _______ _____ _____    ______ ____
ROOT
ATOM      1  N   UNL     1       1.273   9.565  19.140  0.00  0.00    +0.000 N 
ATOM      2  C   UNL     1       1.973   8.740  18.246  0.00  0.00    +0.000 C 
ATOM      3  O   UNL     1       2.181   8.944  17.054  0.00  0.00    +0.000 OA
ATOM      4  N   UNL     1       2.374   7.575  18.848  0.00  0.00    +0.000 N 
ATOM      5  H   UNL     1       1.152   9.223  20.087  0.00  0.00    +0.000 HD
ATOM      6  H   UNL     1       1.621   7.259  19.448  0.00  0.00    +0.000 HD
ENDROOT
BRANCH   4   7
ATOM      7  C   UNL     1       2.839   6.399  18.088  0.00  0.00    +0.000 C 
ATOM      8  C   UNL     1       4.293   6.235  17.635  0.00  0.00    +0.000 A 
ATOM      9  C   UNL     1       4.864   6.515  16.397  0.00  0.00    +0.000 A 
ATOM     10  C   UNL     1       6.025   5.813  16.011  0.00  0.00    +0.000 A 
ATOM     11  C   UNL     1       6.605   4.850  16.852  0.00  0.00    +0.000 A 
ATOM     12  C   UNL     1       6.095   4.645  18.130  0.00  0.00    +0.000 A 
ATOM     13  C   UNL     1       4.968   5.358  18.506  0.00  0.00    +0.000 A 
ATOM     14  C   UNL     1       4.177   5.169  19.746  0.00  0.00    +0.000 C 
ATOM     15  C   UNL     1       2.778   5.207  19.113  0.00  0.00    +0.000 C 
BRANCH  15  16
ATOM     16  O   UNL     1       1.758   5.413  20.098  0.00  0.00    +0.000 OA
ATOM     17  H   UNL     1       2.034   6.169  20.648  0.00  0.00    +0.000 HD
ENDBRANCH  15  16
ENDBRANCH   4   7
BRANCH   1  23
ATOM     18  C   UNL     1      -0.560  11.228  18.747  0.00  0.00    +0.000 A 
ATOM     19  C   UNL     1      -0.926  12.575  18.589  0.00  0.00    +0.000 A 
ATOM     20  C   UNL     1       0.031  13.584  18.500  0.00  0.00    +0.000 A 
ATOM     21  C   UNL     1       1.371  13.250  18.588  0.00  0.00    +0.000 A 
ATOM     22  C   UNL     1       1.754  11.934  18.804  0.00  0.00    +0.000 A 
ATOM     23  C   UNL     1       0.822  10.893  18.901  0.00  0.00    +0.000 A 
BRANCH  18  24
ATOM     24  C   UNL     1      -1.687  10.222  18.609  0.00  0.00    +0.000 C 
BRANCH  24  27
ATOM     25  C   UNL     1      -2.972  10.577  15.054  0.00  0.00    +0.000 C 
ATOM     26  N   UNL     1      -2.200  10.245  16.222  0.00  0.00    +0.000 N 
ATOM     27  C   UNL     1      -2.650  10.581  17.482  0.00  0.00    +0.000 C 
ATOM     28  O   UNL     1      -3.762  11.066  17.694  0.00  0.00    +0.000 OA
ATOM     29  H   UNL     1      -1.195  10.178  16.095  0.00  0.00    +0.000 HD
ENDBRANCH  24  27
ENDBRANCH  18  24
ENDBRANCH   1  23
TORSDOF 5
ENDMDL
MODEL 6
REMARK VINA RESULT:      -7.4      2.842      7.982
REMARK  Name = 
REMARK  6 active torsions:
REMARK  status: ('A' for Active; 'I' for Inactive)
REMARK    1  A    between atoms: C_1  and  N_2
REMARK    2  A    between atoms: C_3  and  C_5
REMARK    3  A    between atoms: C_5  and  C_6
REMARK    4  A    between atoms: C_11  and  N_12
REMARK    5  A    between atoms: N_15  and  C_16
REMARK    6  A    between atoms: C_24  and  O_25
REMARK                            x       y       z     vdW  Elec       q    Type
REMARK                         _______ _______ _______ _____ _____    ______ ____
ROOT
ATOM      1  N   UNL     1       1.262   9.545  19.290  0.00  0.00    +0.000 N 
ATOM      2  C   UNL     1       1.441   8.285  19.879  0.00  0.00    +0.000 C 
ATOM      3  O   UNL     1       1.050   7.916  20.982  0.00  0.00    +0.000 OA
ATOM      4  N   UNL     1       2.202   7.464  19.084  0.00  0.00    +0.000 N 
ATOM      5  H   UNL     1       1.692   9.699  18.383  0.00  0.00    +0.000 HD
ATOM      6  H   UNL     1       2.949   8.020  18.686  0.00  0.00    +0.000 HD
ENDROOT
BRANCH   4   7
ATOM      7  C   UNL     1       2.813   6.214  19.577  0.00  0.00    +0.000 C 
ATOM      8  C   UNL     1       2.039   4.895  19.655  0.00  0.00    +0.000 A 
ATOM      9  C   UNL     1       1.404   4.314  20.749  0.00  0.00    +0.000 A 
ATOM     10  C   UNL     1       1.239   2.913  20.771  0.00  0.00    +0.000 A 
ATOM     11  C   UNL     1       1.696   2.111  19.714  0.00  0.00    +0.000 A 
ATOM     12  C   UNL     1       2.236   2.700  18.576  0.00  0.00    +0.000 A 
ATOM     13  C   UNL     1       2.373   4.079  18.557  0.00  0.00    +0.000 A 
ATOM     14  C   UNL     1       3.068   4.884  17.523  0.00  0.00    +0.000 C 
ATOM     15  C   UNL     1       3.851   5.809  18.466  0.00  0.00    +0.000 C 
BRANCH  15  16
ATOM     16  O   UNL     1       4.358   6.959  17.776  0.00  0.00    +0.000 OA
ATOM     17  H   UNL     1       5.324   6.970  17.901  0.00  0.00    +0.000 HD
ENDBRANCH  15  16
ENDBRANCH   4   7
BRANCH   1  23
ATOM     18  C   UNL     1      -0.769  11.001  19.101  0.00  0.00    +0.000 A 
ATOM     19  C   UNL     1      -1.571  11.999  19.678  0.00  0.00    +0.000 A 
ATOM     20  C   UNL     1      -1.184  12.662  20.841  0.00  0.00    +0.000 A 
ATOM     21  C   UNL     1       0.009  12.313  21.449  0.00  0.00    +0.000 A 
ATOM     22  C   UNL     1       0.788  11.288  20.930  0.00  0.00    +0.000 A 
ATOM     23  C   UNL     1       0.432  10.598  19.765  0.00  0.00    +0.000 A 
BRANCH  18  24
ATOM     24  C   UNL     1      -1.204  10.523  17.728  0.00  0.00    +0.000 C 
BRANCH  24  27
ATOM     25  C   UNL     1      -4.695  11.740  16.864  0.00  0.00    +0.000 C 
ATOM     26  N   UNL     1      -3.270  11.610  17.010  0.00  0.00    +0.000 N 
ATOM     27  C   UNL     1      -2.722  10.480  17.583  0.00  0.00    +0.000 C 
ATOM     28  O   UNL     1      -3.386   9.490  17.890  0.00  0.00    +0.000 OA
ATOM     29  H   UNL     1      -2.744  12.473  17.101  0.00  0.00    +0.000 HD
ENDBRANCH  24  27
ENDBRANCH  18  24
ENDBRANCH   1  23
TORSDOF 5
ENDMDL
MODEL 7
REMARK VINA RESULT:      -7.3      2.160      2.954
REMARK  Name = 
REMARK  6 active torsions:
REMARK  status: ('A' for Active; 'I' for Inactive)
REMARK    1  A    between atoms: C_1  and  N_2
REMARK    2  A    between atoms: C_3  and  C_5
REMARK    3  A    between atoms: C_5  and  C_6
REMARK    4  A    between atoms: C_11  and  N_12
REMARK    5  A    between atoms: N_15  and  C_16
REMARK    6  A    between atoms: C_24  and  O_25
REMARK                            x       y       z     vdW  Elec       q    Type
REMARK                         _______ _______ _______ _____ _____    ______ ____
ROOT
ATOM      1  N   UNL     1       2.570   6.644  19.195  0.00  0.00    +0.000 N 
ATOM      2  C   UNL     1       2.222   7.979  18.941  0.00  0.00    +0.000 C 
ATOM      3  O   UNL     1       2.574   8.672  17.991  0.00  0.00    +0.000 OA
ATOM      4  N   UNL     1       1.452   8.498  19.951  0.00  0.00    +0.000 N 
ATOM      5  H   UNL     1       2.226   6.232  20.056  0.00  0.00    +0.000 HD
ATOM      6  H   UNL     1       1.825   8.162  20.831  0.00  0.00    +0.000 HD
ENDROOT
BRANCH   4   7
ATOM      7  C   UNL     1       1.210   9.945  20.112  0.00  0.00    +0.000 C 
ATOM      8  C   UNL     1      -0.106  10.610  19.696  0.00  0.00    +0.000 A 
ATOM      9  C   UNL     1      -0.409  11.295  18.524  0.00  0.00    +0.000 A 
ATOM     10  C   UNL     1      -1.430  12.269  18.552  0.00  0.00    +0.000 A 
ATOM     11  C   UNL     1      -2.136  12.546  19.734  0.00  0.00    +0.000 A 
ATOM     12  C   UNL     1      -1.904  11.790  20.877  0.00  0.00    +0.000 A 
ATOM     13  C   UNL     1      -0.914  10.821  20.829  0.00  0.00    +0.000 A 
ATOM     14  C   UNL     1      -0.399  10.027  21.972  0.00  0.00    +0.000 C 
ATOM     15  C   UNL     1       1.100  10.164  21.667  0.00  0.00    +0.000 C 
BRANCH  15  16
ATOM     16  O   UNL     1       1.876   9.200  22.389  0.00  0.00    +0.000 OA
ATOM     17  H   UNL     1       1.504   9.142  23.288  0.00  0.00    +0.000 HD
ENDBRANCH  15  16
ENDBRANCH   4   7
BRANCH   1  23
ATOM     18  C   UNL     1       2.646   4.572  17.788  0.00  0.00    +0.000 A 
ATOM     19  C   UNL     1       3.360   3.790  16.865  0.00  0.00    +0.000 A 
ATOM     20  C   UNL     1       4.671   4.100  16.509  0.00  0.00    +0.000 A 
ATOM     21  C   UNL     1       5.274   5.214  17.066  0.00  0.00    +0.000 A 
ATOM     22  C   UNL     1       4.568   6.034  17.935  0.00  0.00    +0.000 A 
ATOM     23  C   UNL     1       3.249   5.757  18.315  0.00  0.00    +0.000 A 
BRANCH  18  24
ATOM     24  C   UNL     1       1.318   3.997  18.245  0.00  0.00    +0.000 C 
BRANCH  24  27
ATOM     25  C   UNL     1       1.530   2.678  21.798  0.00  0.00    +0.000 C 
ATOM     26  N   UNL     1       1.342   3.505  20.636  0.00  0.00    +0.000 N 
ATOM     27  C   UNL     1       1.481   2.979  19.368  0.00  0.00    +0.000 C 
ATOM     28  O   UNL     1       1.655   1.779  19.151  0.00  0.00    +0.000 OA
ATOM     29  H   UNL     1       1.540   4.494  20.749  0.00  0.00    +0.000 HD
ENDBRANCH  24  27
ENDBRANCH  18  24
ENDBRANCH   1  23
TORSDOF 5
ENDMDL
MODEL 8
REMARK VINA RESULT:      -7.1      1.447      1.567
REMARK  Name = 
REMARK  6 active torsions:
REMARK  status: ('A' for Active; 'I' for Inactive)
REMARK    1  A    between atoms: C_1  and  N_2
REMARK    2  A    between atoms: C_3  and  C_5
REMARK    3  A    between atoms: C_5  and  C_6
REMARK    4  A    between atoms: C_11  and  N_12
REMARK    5  A    between atoms: N_15  and  C_16
REMARK    6  A    between atoms: C_24  and  O_25
REMARK                            x       y       z     vdW  Elec       q    Type
REMARK                         _______ _______ _______ _____ _____    ______ ____
ROOT
ATOM      1  N   UNL     1       3.373   7.450  17.796  0.00  0.00    +0.000 N 
ATOM      2  C   UNL     1       2.445   7.541  18.845  0.00  0.00    +0.000 C 
ATOM      3  O   UNL     1       2.240   6.717  19.731  0.00  0.00    +0.000 OA
ATOM      4  N   UNL     1       1.689   8.682  18.749  0.00  0.00    +0.000 N 
ATOM      5  H   UNL     1       3.381   8.205  17.118  0.00  0.00    +0.000 HD
ATOM      6  H   UNL     1       1.463   8.824  17.771  0.00  0.00    +0.000 HD
ENDROOT
BRANCH   4   7
ATOM      7  C   UNL     1       0.442   8.884  19.512  0.00  0.00    +0.000 C 
ATOM      8  C   UNL     1       0.429   9.491  20.918  0.00  0.00    +0.000 A 
ATOM      9  C   UNL     1       0.375   8.847  22.151  0.00  0.00    +0.000 A 
ATOM     10  C   UNL     1      -0.169   9.538  23.254  0.00  0.00    +0.000 A 
ATOM     11  C   UNL     1      -0.647  10.852  23.123  0.00  0.00    +0.000 A 
ATOM     12  C   UNL     1      -0.499  11.530  21.919  0.00  0.00    +0.000 A 
ATOM     13  C   UNL     1       0.058  10.848  20.849  0.00  0.00    +0.000 A 
ATOM     14  C   UNL     1       0.152  11.327  19.448  0.00  0.00    +0.000 C 
ATOM     15  C   UNL     1      -0.311  10.039  18.753  0.00  0.00    +0.000 C 
BRANCH  15  16
ATOM     16  O   UNL     1       0.012  10.047  17.356  0.00  0.00    +0.000 OA
ATOM     17  H   UNL     1       0.763  10.656  17.236  0.00  0.00    +0.000 HD
ENDBRANCH  15  16
ENDBRANCH   4   7
BRANCH   1  23
ATOM     18  C   UNL     1       4.124   5.096  17.382  0.00  0.00    +0.000 A 
ATOM     19  C   UNL     1       5.196   4.212  17.171  0.00  0.00    +0.000 A 
ATOM     20  C   UNL     1       6.520   4.631  17.291  0.00  0.00    +0.000 A 
ATOM     21  C   UNL     1       6.781   5.953  17.607  0.00  0.00    +0.000 A 
ATOM     22  C   UNL     1       5.739   6.857  17.761  0.00  0.00    +0.000 A 
ATOM     23  C   UNL     1       4.397   6.474  17.646  0.00  0.00    +0.000 A 
BRANCH  18  24
ATOM     24  C   UNL     1       2.749   4.457  17.434  0.00  0.00    +0.000 C 
BRANCH  24  27
ATOM     25  C   UNL     1       2.758   2.876  20.886  0.00  0.00    +0.000 C 
ATOM     26  N   UNL     1       2.763   3.805  19.787  0.00  0.00    +0.000 N 
ATOM     27  C   UNL     1       2.659   3.356  18.486  0.00  0.00    +0.000 C 
ATOM     28  O   UNL     1       2.445   2.180  18.194  0.00  0.00    +0.000 OA
ATOM     29  H   UNL     1       3.260   4.677  19.935  0.00  0.00    +0.000 HD
ENDBRANCH  24  27
ENDBRANCH  18  24
ENDBRANCH   1  23
TORSDOF 5
ENDMDL
MODEL 9
REMARK VINA RESULT:      -7.1      2.591      8.112
REMARK  Name = 
REMARK  6 active torsions:
REMARK  status: ('A' for Active; 'I' for Inactive)
REMARK    1  A    between atoms: C_1  and  N_2
REMARK    2  A    between atoms: C_3  and  C_5
REMARK    3  A    between atoms: C_5  and  C_6
REMARK    4  A    between atoms: C_11  and  N_12
REMARK    5  A    between atoms: N_15  and  C_16
REMARK    6  A    between atoms: C_24  and  O_25
REMARK                            x       y       z     vdW  Elec       q    Type
REMARK                         _______ _______ _______ _____ _____    ______ ____
ROOT
ATOM      1  N   UNL     1       1.185   8.839  19.517  0.00  0.00    +0.000 N 
ATOM      2  C   UNL     1       2.112   8.405  18.557  0.00  0.00    +0.000 C 
ATOM      3  O   UNL     1       2.414   8.965  17.508  0.00  0.00    +0.000 OA
ATOM      4  N   UNL     1       2.638   7.181  18.887  0.00  0.00    +0.000 N 
ATOM      5  H   UNL     1       1.020   8.229  20.311  0.00  0.00    +0.000 HD
ATOM      6  H   UNL     1       1.889   6.609  19.258  0.00  0.00    +0.000 HD
ENDROOT
BRANCH   4   7
ATOM      7  C   UNL     1       3.381   6.343  17.925  0.00  0.00    +0.000 C 
ATOM      8  C   UNL     1       4.910   6.250  17.926  0.00  0.00    +0.000 A 
ATOM      9  C   UNL     1       5.830   6.929  17.133  0.00  0.00    +0.000 A 
ATOM     10  C   UNL     1       7.088   6.335  16.895  0.00  0.00    +0.000 A 
ATOM     11  C   UNL     1       7.418   5.086  17.445  0.00  0.00    +0.000 A 
ATOM     12  C   UNL     1       6.538   4.457  18.319  0.00  0.00    +0.000 A 
ATOM     13  C   UNL     1       5.315   5.062  18.563  0.00  0.00    +0.000 A 
ATOM     14  C   UNL     1       4.180   4.483  19.323  0.00  0.00    +0.000 C 
ATOM     15  C   UNL     1       3.057   4.862  18.347  0.00  0.00    +0.000 C 
BRANCH  15  16
ATOM     16  O   UNL     1       1.767   4.762  18.962  0.00  0.00    +0.000 OA
ATOM     17  H   UNL     1       1.551   5.638  19.330  0.00  0.00    +0.000 HD
ENDBRANCH  15  16
ENDBRANCH   4   7
BRANCH   1  23
ATOM     18  C   UNL     1      -0.504  10.485  18.670  0.00  0.00    +0.000 A 
ATOM     19  C   UNL     1      -1.138  11.727  18.838  0.00  0.00    +0.000 A 
ATOM     20  C   UNL     1      -0.720  12.632  19.811  0.00  0.00    +0.000 A 
ATOM     21  C   UNL     1       0.332  12.289  20.642  0.00  0.00    +0.000 A 
ATOM     22  C   UNL     1       0.936  11.043  20.533  0.00  0.00    +0.000 A 
ATOM     23  C   UNL     1       0.542  10.106  19.569  0.00  0.00    +0.000 A 
BRANCH  18  24
ATOM     24  C   UNL     1      -0.917   9.699  17.439  0.00  0.00    +0.000 C 
BRANCH  24  27
ATOM     25  C   UNL     1      -3.809  11.052  15.386  0.00  0.00    +0.000 C 
ATOM     26  N   UNL     1      -2.505  10.671  15.860  0.00  0.00    +0.000 N 
ATOM     27  C   UNL     1      -2.364   9.967  17.039  0.00  0.00    +0.000 C 
ATOM     28  O   UNL     1      -3.318   9.529  17.682  0.00  0.00    +0.000 OA
ATOM     29  H   UNL     1      -1.732  11.268  15.585  0.00  0.00    +0.000 HD
ENDBRANCH  24  27
ENDBRANCH  18  24
ENDBRANCH   1  23
TORSDOF 5
ENDMDL
