MODEL 1
REMARK VINA RESULT:      -8.6      0.000      0.000
REMARK  Name = 
REMARK  11 active torsions:
REMARK  status: ('A' for Active; 'I' for Inactive)
REMARK    1  A    between atoms: C_1  and  O_2
REMARK    2  A    between atoms: O_2  and  C_3
REMARK    3  A    between atoms: C_6  and  C_7
REMARK    4  A    between atoms: C_9  and  C_10
REMARK    5  A    between atoms: C_15  and  S_16
REMARK    6  A    between atoms: S_16  and  C_17
REMARK    7  A    between atoms: C_17  and  C_18
REMARK    8  A    between atoms: N_20  and  C_21
REMARK    9  A    between atoms: C_21  and  C_22
REMARK   10  A    between atoms: C_29  and  O_30
REMARK   11  A    between atoms: O_30  and  C_31
REMARK                            x       y       z     vdW  Elec       q    Type
REMARK                         _______ _______ _______ _____ _____    ______ ____
ROOT
ATOM      1  C   UNL     1       3.389   6.131  19.011  0.00  0.00    +0.000 A 
ATOM      2  C   UNL     1       2.910   4.967  19.593  0.00  0.00    +0.000 A 
ATOM      3  C   UNL     1       3.702   3.839  19.521  0.00  0.00    +0.000 A 
ATOM      4  N   UNL     1       4.899   3.861  18.887  0.00  0.00    +0.000 NA
ATOM      5  C   UNL     1       5.287   5.019  18.333  0.00  0.00    +0.000 A 
ATOM      6  N   UNL     1       4.577   6.158  18.370  0.00  0.00    +0.000 NA
ENDROOT
BRANCH   1  10
ATOM      7  C   UNL     1       0.801   9.581  18.935  0.00  0.00    +0.000 A 
ATOM      8  C   UNL     1       1.608   9.268  17.832  0.00  0.00    +0.000 A 
ATOM      9  C   UNL     1       2.478   8.171  17.860  0.00  0.00    +0.000 A 
ATOM     10  C   UNL     1       2.593   7.375  19.006  0.00  0.00    +0.000 A 
ATOM     11  C   UNL     1       1.874   7.790  20.142  0.00  0.00    +0.000 A 
ATOM     12  C   UNL     1       0.980   8.872  20.126  0.00  0.00    +0.000 A 
BRANCH   7  14
ATOM     13  C   UNL     1      -1.213  10.339  17.964  0.00  0.00    +0.000 C 
ATOM     14  O   UNL     1      -0.131  10.581  18.866  0.00  0.00    +0.000 OA
ENDBRANCH   7  14
BRANCH  12  15
ATOM     15  O   UNL     1       0.374   9.043  21.341  0.00  0.00    +0.000 OA
ATOM     16  C   UNL     1       1.169   9.324  22.480  0.00  0.00    +0.000 C 
ENDBRANCH  12  15
ENDBRANCH   1  10
BRANCH   3  17
ATOM     17  C   UNL     1       3.219   2.545  20.160  0.00  0.00    +0.000 C 
ATOM     18  F   UNL     1       4.194   1.916  20.884  0.00  0.00    +0.000 F 
ATOM     19  F   UNL     1       2.187   2.728  21.028  0.00  0.00    +0.000 F 
ATOM     20  F   UNL     1       2.799   1.627  19.246  0.00  0.00    +0.000 F 
ENDBRANCH   3  17
BRANCH   5  21
ATOM     21  S   UNL     1       6.829   4.978  17.454  0.00  0.00    +0.000 S 
BRANCH  21  22
ATOM     22  C   UNL     1       7.823   6.038  18.539  0.00  0.00    +0.000 C 
BRANCH  22  23
ATOM     23  C   UNL     1       7.875   7.459  18.008  0.00  0.00    +0.000 C 
ATOM     24  O   UNL     1       7.269   7.787  16.988  0.00  0.00    +0.000 OA
ATOM     25  N   UNL     1       8.570   8.373  18.776  0.00  0.00    +0.000 N 
ATOM     26  H   UNL     1       9.282   8.028  19.412  0.00  0.00    +0.000 HD
BRANCH  25  27
ATOM     27  C   UNL     1       8.719   9.722  18.279  0.00  0.00    +0.000 C 
BRANCH  27  28
ATOM     28  C   UNL     1       9.541  10.561  19.186  0.00  0.00    +0.000 A 
ATOM     29  C   UNL     1       9.353  10.983  20.487  0.00  0.00    +0.000 A 
ATOM     30  C   UNL     1      10.426  11.853  20.791  0.00  0.00    +0.000 A 
ATOM     31  C   UNL     1      11.211  11.897  19.662  0.00  0.00    +0.000 A 
ATOM     32  O   UNL     1      10.683  11.117  18.681  0.00  0.00    +0.000 OA
ENDBRANCH  27  28
ENDBRANCH  25  27
ENDBRANCH  22  23
ENDBRANCH  21  22
ENDBRANCH   5  21
TORSDOF 9
ENDMDL
MODEL 2
REMARK VINA RESULT:      -8.6      0.922      1.128
REMARK  Name = 
REMARK  11 active torsions:
REMARK  status: ('A' for Active; 'I' for Inactive)
REMARK    1  A    between atoms: C_1  and  O_2
REMARK    2  A    between atoms: O_2  and  C_3
REMARK    3  A    between atoms: C_6  and  C_7
REMARK    4  A    between atoms: C_9  and  C_10
REMARK    5  A    between atoms: C_15  and  S_16
REMARK    6  A    between atoms: S_16  and  C_17
REMARK    7  A    between atoms: C_17  and  C_18
REMARK    8  A    between atoms: N_20  and  C_21
REMARK    9  A    between atoms: C_21  and  C_22
REMARK   10  A    between atoms: C_29  and  O_30
REMARK   11  A    between atoms: O_30  and  C_31
REMARK                            x       y       z     vdW  Elec       q    Type
REMARK                         _______ _______ _______ _____ _____    ______ ____
ROOT
ATOM      1  C   UNL     1       3.524   5.908  18.506  0.00  0.00    +0.000 A 
ATOM      2  C   UNL     1       2.880   4.680  18.541  0.00  0.00    +0.000 A 
ATOM      3  C   UNL     1       3.636   3.550  18.306  0.00  0.00    +0.000 A 
ATOM      4  N   UNL     1       4.960   3.635  18.031  0.00  0.00    +0.000 NA
ATOM      5  C   UNL     1       5.509   4.859  17.997  0.00  0.00    +0.000 A 
ATOM      6  N   UNL     1       4.841   6.001  18.224  0.00  0.00    +0.000 NA
ENDROOT
BRANCH   1  10
ATOM      7  C   UNL     1       1.099   9.440  19.007  0.00  0.00    +0.000 A 
ATOM      8  C   UNL     1       1.886   9.269  17.858  0.00  0.00    +0.000 A 
ATOM      9  C   UNL     1       2.703   8.143  17.703  0.00  0.00    +0.000 A 
ATOM     10  C   UNL     1       2.787   7.171  18.707  0.00  0.00    +0.000 A 
ATOM     11  C   UNL     1       2.094   7.433  19.903  0.00  0.00    +0.000 A 
ATOM     12  C   UNL     1       1.251   8.544  20.069  0.00  0.00    +0.000 A 
BRANCH   7  14
ATOM     13  C   UNL     1      -0.917  10.398  18.238  0.00  0.00    +0.000 C 
ATOM     14  O   UNL     1       0.216  10.479  19.107  0.00  0.00    +0.000 OA
ENDBRANCH   7  14
BRANCH  12  15
ATOM     15  O   UNL     1       0.659   8.548  21.302  0.00  0.00    +0.000 OA
ATOM     16  C   UNL     1       1.299   9.215  22.377  0.00  0.00    +0.000 C 
ENDBRANCH  12  15
ENDBRANCH   1  10
BRANCH   3  17
ATOM     17  C   UNL     1       2.970   2.182  18.351  0.00  0.00    +0.000 C 
ATOM     18  F   UNL     1       2.287   1.963  19.516  0.00  0.00    +0.000 F 
ATOM     19  F   UNL     1       2.058   1.997  17.358  0.00  0.00    +0.000 F 
ATOM     20  F   UNL     1       3.860   1.156  18.256  0.00  0.00    +0.000 F 
ENDBRANCH   3  17
BRANCH   5  21
ATOM     21  S   UNL     1       7.229   4.923  17.563  0.00  0.00    +0.000 S 
BRANCH  21  22
ATOM     22  C   UNL     1       7.791   6.181  18.742  0.00  0.00    +0.000 C 
BRANCH  22  23
ATOM     23  C   UNL     1       7.962   7.525  18.059  0.00  0.00    +0.000 C 
ATOM     24  O   UNL     1       7.538   7.728  16.921  0.00  0.00    +0.000 OA
ATOM     25  N   UNL     1       8.544   8.525  18.815  0.00  0.00    +0.000 N 
ATOM     26  H   UNL     1       9.134   8.259  19.596  0.00  0.00    +0.000 HD
BRANCH  25  27
ATOM     27  C   UNL     1       8.803   9.801  18.189  0.00  0.00    +0.000 C 
BRANCH  27  28
ATOM     28  C   UNL     1       9.213  10.831  19.177  0.00  0.00    +0.000 A 
ATOM     29  C   UNL     1       9.568  10.751  20.510  0.00  0.00    +0.000 A 
ATOM     30  C   UNL     1       9.756  12.078  20.959  0.00  0.00    +0.000 A 
ATOM     31  C   UNL     1       9.517  12.887  19.872  0.00  0.00    +0.000 A 
ATOM     32  O   UNL     1       9.186  12.140  18.784  0.00  0.00    +0.000 OA
ENDBRANCH  27  28
ENDBRANCH  25  27
ENDBRANCH  22  23
ENDBRANCH  21  22
ENDBRANCH   5  21
TORSDOF 9
ENDMDL
MODEL 3
REMARK VINA RESULT:      -8.4      2.978      8.149
REMARK  Name = 
REMARK  11 active torsions:
REMARK  status: ('A' for Active; 'I' for Inactive)
REMARK    1  A    between atoms: C_1  and  O_2
REMARK    2  A    between atoms: O_2  and  C_3
REMARK    3  A    between atoms: C_6  and  C_7
REMARK    4  A    between atoms: C_9  and  C_10
REMARK    5  A    between atoms: C_15  and  S_16
REMARK    6  A    between atoms: S_16  and  C_17
REMARK    7  A    between atoms: C_17  and  C_18
REMARK    8  A    between atoms: N_20  and  C_21
REMARK    9  A    between atoms: C_21  and  C_22
REMARK   10  A    between atoms: C_29  and  O_30
REMARK   11  A    between atoms: O_30  and  C_31
REMARK                            x       y       z     vdW  Elec       q    Type
REMARK                         _______ _______ _______ _____ _____    ______ ____
ROOT
ATOM      1  C   UNL     1       3.589   5.078  18.408  0.00  0.00    +0.000 A 
ATOM      2  C   UNL     1       2.947   3.923  18.828  0.00  0.00    +0.000 A 
ATOM      3  C   UNL     1       1.895   4.057  19.712  0.00  0.00    +0.000 A 
ATOM      4  N   UNL     1       1.513   5.273  20.170  0.00  0.00    +0.000 NA
ATOM      5  C   UNL     1       2.193   6.342  19.732  0.00  0.00    +0.000 A 
ATOM      6  N   UNL     1       3.219   6.293  18.867  0.00  0.00    +0.000 NA
ENDROOT
BRANCH   1  10
ATOM      7  C   UNL     1       6.860   5.199  15.599  0.00  0.00    +0.000 A 
ATOM      8  C   UNL     1       5.781   4.325  15.403  0.00  0.00    +0.000 A 
ATOM      9  C   UNL     1       4.732   4.253  16.328  0.00  0.00    +0.000 A 
ATOM     10  C   UNL     1       4.747   5.026  17.494  0.00  0.00    +0.000 A 
ATOM     11  C   UNL     1       5.903   5.793  17.732  0.00  0.00    +0.000 A 
ATOM     12  C   UNL     1       6.954   5.896  16.807  0.00  0.00    +0.000 A 
BRANCH   7  14
ATOM     13  C   UNL     1       7.438   4.956  13.324  0.00  0.00    +0.000 C 
ATOM     14  O   UNL     1       7.824   5.353  14.641  0.00  0.00    +0.000 OA
ENDBRANCH   7  14
BRANCH  12  15
ATOM     15  O   UNL     1       7.938   6.736  17.253  0.00  0.00    +0.000 OA
ATOM     16  C   UNL     1       7.647   8.111  17.434  0.00  0.00    +0.000 C 
ENDBRANCH  12  15
ENDBRANCH   1  10
BRANCH   3  17
ATOM     17  C   UNL     1       1.154   2.814  20.187  0.00  0.00    +0.000 C 
ATOM     18  F   UNL     1       1.880   1.668  20.016  0.00  0.00    +0.000 F 
ATOM     19  F   UNL     1       0.841   2.849  21.511  0.00  0.00    +0.000 F 
ATOM     20  F   UNL     1      -0.013   2.606  19.518  0.00  0.00    +0.000 F 
ENDBRANCH   3  17
BRANCH   5  21
ATOM     21  S   UNL     1       1.702   7.906  20.415  0.00  0.00    +0.000 S 
BRANCH  21  22
ATOM     22  C   UNL     1       1.673   8.901  18.900  0.00  0.00    +0.000 C 
BRANCH  22  23
ATOM     23  C   UNL     1       0.730  10.081  19.045  0.00  0.00    +0.000 C 
ATOM     24  O   UNL     1       0.860  10.900  19.955  0.00  0.00    +0.000 OA
ATOM     25  N   UNL     1      -0.225  10.227  18.057  0.00  0.00    +0.000 N 
ATOM     26  H   UNL     1      -0.494   9.409  17.521  0.00  0.00    +0.000 HD
BRANCH  25  27
ATOM     27  C   UNL     1      -1.197  11.287  18.188  0.00  0.00    +0.000 C 
BRANCH  27  28
ATOM     28  C   UNL     1      -2.363  11.085  17.291  0.00  0.00    +0.000 A 
ATOM     29  C   UNL     1      -2.477  10.563  16.017  0.00  0.00    +0.000 A 
ATOM     30  C   UNL     1      -3.828  10.724  15.632  0.00  0.00    +0.000 A 
ATOM     31  C   UNL     1      -4.459  11.321  16.698  0.00  0.00    +0.000 A 
ATOM     32  O   UNL     1      -3.580  11.545  17.711  0.00  0.00    +0.000 OA
ENDBRANCH  27  28
ENDBRANCH  25  27
ENDBRANCH  22  23
ENDBRANCH  21  22
ENDBRANCH   5  21
TORSDOF 9
ENDMDL
MODEL 4
REMARK VINA RESULT:      -8.4      0.945      1.108
REMARK  Name = 
REMARK  11 active torsions:
REMARK  status: ('A' for Active; 'I' for Inactive)
REMARK    1  A    between atoms: C_1  and  O_2
REMARK    2  A    between atoms: O_2  and  C_3
REMARK    3  A    between atoms: C_6  and  C_7
REMARK    4  A    between atoms: C_9  and  C_10
REMARK    5  A    between atoms: C_15  and  S_16
REMARK    6  A    between atoms: S_16  and  C_17
REMARK    7  A    between atoms: C_17  and  C_18
REMARK    8  A    between atoms: N_20  and  C_21
REMARK    9  A    between atoms: C_21  and  C_22
REMARK   10  A    between atoms: C_29  and  O_30
REMARK   11  A    between atoms: O_30  and  C_31
REMARK                            x       y       z     vdW  Elec       q    Type
REMARK                         _______ _______ _______ _____ _____    ______ ____
ROOT
ATOM      1  C   UNL     1       3.237   5.869  18.695  0.00  0.00    +0.000 A 
ATOM      2  C   UNL     1       2.530   4.688  18.868  0.00  0.00    +0.000 A 
ATOM      3  C   UNL     1       3.207   3.500  18.680  0.00  0.00    +0.000 A 
ATOM      4  N   UNL     1       4.512   3.485  18.319  0.00  0.00    +0.000 NA
ATOM      5  C   UNL     1       5.124   4.667  18.153  0.00  0.00    +0.000 A 
ATOM      6  N   UNL     1       4.536   5.861  18.327  0.00  0.00    +0.000 NA
ENDROOT
BRANCH   1  10
ATOM      7  C   UNL     1       1.045   9.564  19.079  0.00  0.00    +0.000 A 
ATOM      8  C   UNL     1       1.669   9.225  17.870  0.00  0.00    +0.000 A 
ATOM      9  C   UNL     1       2.413   8.045  17.746  0.00  0.00    +0.000 A 
ATOM     10  C   UNL     1       2.584   7.186  18.838  0.00  0.00    +0.000 A 
ATOM     11  C   UNL     1       2.062   7.615  20.072  0.00  0.00    +0.000 A 
ATOM     12  C   UNL     1       1.294   8.782  20.211  0.00  0.00    +0.000 A 
BRANCH   7  14
ATOM     13  C   UNL     1      -0.902  10.639  18.287  0.00  0.00    +0.000 C 
ATOM     14  O   UNL     1       0.225  10.655  19.167  0.00  0.00    +0.000 OA
ENDBRANCH   7  14
BRANCH  12  15
ATOM     15  O   UNL     1       0.866   8.954  21.500  0.00  0.00    +0.000 OA
ATOM     16  C   UNL     1      -0.435   8.523  21.862  0.00  0.00    +0.000 C 
ENDBRANCH  12  15
ENDBRANCH   1  10
BRANCH   3  17
ATOM     17  C   UNL     1       2.471   2.182  18.874  0.00  0.00    +0.000 C 
ATOM     18  F   UNL     1       3.278   1.093  18.692  0.00  0.00    +0.000 F 
ATOM     19  F   UNL     1       1.949   2.038  20.123  0.00  0.00    +0.000 F 
ATOM     20  F   UNL     1       1.439   2.017  18.002  0.00  0.00    +0.000 F 
ENDBRANCH   3  17
BRANCH   5  21
ATOM     21  S   UNL     1       6.813   4.596  17.612  0.00  0.00    +0.000 S 
BRANCH  21  22
ATOM     22  C   UNL     1       7.513   5.922  18.630  0.00  0.00    +0.000 C 
BRANCH  22  23
ATOM     23  C   UNL     1       7.800   7.154  17.792  0.00  0.00    +0.000 C 
ATOM     24  O   UNL     1       7.658   7.148  16.569  0.00  0.00    +0.000 OA
ATOM     25  N   UNL     1       8.151   8.297  18.485  0.00  0.00    +0.000 N 
ATOM     26  H   UNL     1       8.543   8.197  19.415  0.00  0.00    +0.000 HD
BRANCH  25  27
ATOM     27  C   UNL     1       8.512   9.477  17.733  0.00  0.00    +0.000 C 
BRANCH  27  28
ATOM     28  C   UNL     1       8.992  10.571  18.614  0.00  0.00    +0.000 A 
ATOM     29  C   UNL     1       9.241  11.910  18.381  0.00  0.00    +0.000 A 
ATOM     30  C   UNL     1       9.786  12.435  19.576  0.00  0.00    +0.000 A 
ATOM     31  C   UNL     1       9.824  11.388  20.469  0.00  0.00    +0.000 A 
ATOM     32  O   UNL     1       9.344  10.252  19.895  0.00  0.00    +0.000 OA
ENDBRANCH  27  28
ENDBRANCH  25  27
ENDBRANCH  22  23
ENDBRANCH  21  22
ENDBRANCH   5  21
TORSDOF 9
ENDMDL
MODEL 5
REMARK VINA RESULT:      -8.4      3.032      8.101
REMARK  Name = 
REMARK  11 active torsions:
REMARK  status: ('A' for Active; 'I' for Inactive)
REMARK    1  A    between atoms: C_1  and  O_2
REMARK    2  A    between atoms: O_2  and  C_3
REMARK    3  A    between atoms: C_6  and  C_7
REMARK    4  A    between atoms: C_9  and  C_10
REMARK    5  A    between atoms: C_15  and  S_16
REMARK    6  A    between atoms: S_16  and  C_17
REMARK    7  A    between atoms: C_17  and  C_18
REMARK    8  A    between atoms: N_20  and  C_21
REMARK    9  A    between atoms: C_21  and  C_22
REMARK   10  A    between atoms: C_29  and  O_30
REMARK   11  A    between atoms: O_30  and  C_31
REMARK                            x       y       z     vdW  Elec       q    Type
REMARK                         _______ _______ _______ _____ _____    ______ ____
ROOT
ATOM      1  C   UNL     1       3.672   5.188  18.282  0.00  0.00    +0.000 A 
ATOM      2  C   UNL     1       3.076   4.053  18.810  0.00  0.00    +0.000 A 
ATOM      3  C   UNL     1       2.045   4.227  19.711  0.00  0.00    +0.000 A 
ATOM      4  N   UNL     1       1.640   5.465  20.084  0.00  0.00    +0.000 NA
ATOM      5  C   UNL     1       2.276   6.515  19.544  0.00  0.00    +0.000 A 
ATOM      6  N   UNL     1       3.278   6.425  18.656  0.00  0.00    +0.000 NA
ENDROOT
BRANCH   1  10
ATOM      7  C   UNL     1       6.846   5.160  15.362  0.00  0.00    +0.000 A 
ATOM      8  C   UNL     1       5.838   4.185  15.332  0.00  0.00    +0.000 A 
ATOM      9  C   UNL     1       4.824   4.165  16.297  0.00  0.00    +0.000 A 
ATOM     10  C   UNL     1       4.806   5.097  17.342  0.00  0.00    +0.000 A 
ATOM     11  C   UNL     1       5.900   5.977  17.425  0.00  0.00    +0.000 A 
ATOM     12  C   UNL     1       6.914   6.029  16.455  0.00  0.00    +0.000 A 
BRANCH   7  14
ATOM     13  C   UNL     1       7.304   4.839  13.069  0.00  0.00    +0.000 C 
ATOM     14  O   UNL     1       7.769   5.250  14.357  0.00  0.00    +0.000 OA
ENDBRANCH   7  14
BRANCH  12  15
ATOM     15  O   UNL     1       7.837   6.998  16.741  0.00  0.00    +0.000 OA
ATOM     16  C   UNL     1       7.473   8.072  17.592  0.00  0.00    +0.000 C 
ENDBRANCH  12  15
ENDBRANCH   1  10
BRANCH   3  17
ATOM     17  C   UNL     1       1.354   3.006  20.302  0.00  0.00    +0.000 C 
ATOM     18  F   UNL     1       0.149   2.743  19.713  0.00  0.00    +0.000 F 
ATOM     19  F   UNL     1       2.079   1.862  20.168  0.00  0.00    +0.000 F 
ATOM     20  F   UNL     1       1.086   3.141  21.630  0.00  0.00    +0.000 F 
ENDBRANCH   3  17
BRANCH   5  21
ATOM     21  S   UNL     1       1.757   8.113  20.117  0.00  0.00    +0.000 S 
BRANCH  21  22
ATOM     22  C   UNL     1       1.726   9.004  18.539  0.00  0.00    +0.000 C 
BRANCH  22  23
ATOM     23  C   UNL     1       0.853  10.241  18.632  0.00  0.00    +0.000 C 
ATOM     24  O   UNL     1       1.335  11.374  18.604  0.00  0.00    +0.000 OA
ATOM     25  N   UNL     1      -0.512  10.025  18.669  0.00  0.00    +0.000 N 
ATOM     26  H   UNL     1      -0.850   9.124  18.990  0.00  0.00    +0.000 HD
BRANCH  25  27
ATOM     27  C   UNL     1      -1.387  11.163  18.838  0.00  0.00    +0.000 C 
BRANCH  27  28
ATOM     28  C   UNL     1      -2.445  11.208  17.798  0.00  0.00    +0.000 A 
ATOM     29  C   UNL     1      -3.802  11.461  17.862  0.00  0.00    +0.000 A 
ATOM     30  C   UNL     1      -4.314  11.259  16.560  0.00  0.00    +0.000 A 
ATOM     31  C   UNL     1      -3.238  10.908  15.777  0.00  0.00    +0.000 A 
ATOM     32  O   UNL     1      -2.098  10.874  16.519  0.00  0.00    +0.000 OA
ENDBRANCH  27  28
ENDBRANCH  25  27
ENDBRANCH  22  23
ENDBRANCH  21  22
ENDBRANCH   5  21
TORSDOF 9
ENDMDL
MODEL 6
REMARK VINA RESULT:      -8.3      3.415      5.071
REMARK  Name = 
REMARK  11 active torsions:
REMARK  status: ('A' for Active; 'I' for Inactive)
REMARK    1  A    between atoms: C_1  and  O_2
REMARK    2  A    between atoms: O_2  and  C_3
REMARK    3  A    between atoms: C_6  and  C_7
REMARK    4  A    between atoms: C_9  and  C_10
REMARK    5  A    between atoms: C_15  and  S_16
REMARK    6  A    between atoms: S_16  and  C_17
REMARK    7  A    between atoms: C_17  and  C_18
REMARK    8  A    between atoms: N_20  and  C_21
REMARK    9  A    between atoms: C_21  and  C_22
REMARK   10  A    between atoms: C_29  and  O_30
REMARK   11  A    between atoms: O_30  and  C_31
REMARK                            x       y       z     vdW  Elec       q    Type
REMARK                         _______ _______ _______ _____ _____    ______ ____
ROOT
ATOM      1  C   UNL     1       3.338   6.193  18.992  0.00  0.00    +0.000 A 
ATOM      2  C   UNL     1       2.779   4.945  18.765  0.00  0.00    +0.000 A 
ATOM      3  C   UNL     1       3.624   3.854  18.749  0.00  0.00    +0.000 A 
ATOM      4  N   UNL     1       4.959   3.998  18.931  0.00  0.00    +0.000 NA
ATOM      5  C   UNL     1       5.428   5.239  19.128  0.00  0.00    +0.000 A 
ATOM      6  N   UNL     1       4.668   6.345  19.166  0.00  0.00    +0.000 NA
ENDROOT
BRANCH   1  10
ATOM      7  C   UNL     1       0.670   9.582  18.978  0.00  0.00    +0.000 A 
ATOM      8  C   UNL     1       1.308   9.169  17.799  0.00  0.00    +0.000 A 
ATOM      9  C   UNL     1       2.203   8.092  17.801  0.00  0.00    +0.000 A 
ATOM     10  C   UNL     1       2.515   7.419  18.988  0.00  0.00    +0.000 A 
ATOM     11  C   UNL     1       1.966   7.938  20.175  0.00  0.00    +0.000 A 
ATOM     12  C   UNL     1       1.049   9.001  20.191  0.00  0.00    +0.000 A 
BRANCH   7  14
ATOM     13  C   UNL     1      -1.410  10.285  18.109  0.00  0.00    +0.000 C 
ATOM     14  O   UNL     1      -0.289  10.557  18.954  0.00  0.00    +0.000 OA
ENDBRANCH   7  14
BRANCH  12  15
ATOM     15  O   UNL     1       0.631   9.287  21.462  0.00  0.00    +0.000 OA
ATOM     16  C   UNL     1      -0.534   8.657  21.967  0.00  0.00    +0.000 C 
ENDBRANCH  12  15
ENDBRANCH   1  10
BRANCH   3  17
ATOM     17  C   UNL     1       3.048   2.464  18.517  0.00  0.00    +0.000 C 
ATOM     18  F   UNL     1       3.985   1.476  18.638  0.00  0.00    +0.000 F 
ATOM     19  F   UNL     1       2.063   2.138  19.398  0.00  0.00    +0.000 F 
ATOM     20  F   UNL     1       2.520   2.311  17.272  0.00  0.00    +0.000 F 
ENDBRANCH   3  17
BRANCH   5  21
ATOM     21  S   UNL     1       7.190   5.383  19.290  0.00  0.00    +0.000 S 
BRANCH  21  22
ATOM     22  C   UNL     1       7.705   4.466  17.814  0.00  0.00    +0.000 C 
BRANCH  22  23
ATOM     23  C   UNL     1       7.067   5.045  16.565  0.00  0.00    +0.000 C 
ATOM     24  O   UNL     1       7.466   6.098  16.068  0.00  0.00    +0.000 OA
ATOM     25  N   UNL     1       6.072   4.286  15.979  0.00  0.00    +0.000 N 
ATOM     26  H   UNL     1       5.576   3.613  16.553  0.00  0.00    +0.000 HD
BRANCH  25  27
ATOM     27  C   UNL     1       5.376   4.826  14.834  0.00  0.00    +0.000 C 
BRANCH  27  28
ATOM     28  C   UNL     1       5.706   4.092  13.586  0.00  0.00    +0.000 A 
ATOM     29  C   UNL     1       6.897   3.881  12.919  0.00  0.00    +0.000 A 
ATOM     30  C   UNL     1       6.577   3.195  11.725  0.00  0.00    +0.000 A 
ATOM     31  C   UNL     1       5.213   3.018  11.741  0.00  0.00    +0.000 A 
ATOM     32  O   UNL     1       4.674   3.559  12.866  0.00  0.00    +0.000 OA
ENDBRANCH  27  28
ENDBRANCH  25  27
ENDBRANCH  22  23
ENDBRANCH  21  22
ENDBRANCH   5  21
TORSDOF 9
ENDMDL
MODEL 7
REMARK VINA RESULT:      -8.2      1.147      1.490
REMARK  Name = 
REMARK  11 active torsions:
REMARK  status: ('A' for Active; 'I' for Inactive)
REMARK    1  A    between atoms: C_1  and  O_2
REMARK    2  A    between atoms: O_2  and  C_3
REMARK    3  A    between atoms: C_6  and  C_7
REMARK    4  A    between atoms: C_9  and  C_10
REMARK    5  A    between atoms: C_15  and  S_16
REMARK    6  A    between atoms: S_16  and  C_17
REMARK    7  A    between atoms: C_17  and  C_18
REMARK    8  A    between atoms: N_20  and  C_21
REMARK    9  A    between atoms: C_21  and  C_22
REMARK   10  A    between atoms: C_29  and  O_30
REMARK   11  A    between atoms: O_30  and  C_31
REMARK                            x       y       z     vdW  Elec       q    Type
REMARK                         _______ _______ _______ _____ _____    ______ ____
ROOT
ATOM      1  C   UNL     1       2.817   6.173  18.727  0.00  0.00    +0.000 A 
ATOM      2  C   UNL     1       2.009   5.090  19.038  0.00  0.00    +0.000 A 
ATOM      3  C   UNL     1       2.541   3.826  18.883  0.00  0.00    +0.000 A 
ATOM      4  N   UNL     1       3.803   3.646  18.425  0.00  0.00    +0.000 NA
ATOM      5  C   UNL     1       4.517   4.742  18.128  0.00  0.00    +0.000 A 
ATOM      6  N   UNL     1       4.072   6.002  18.262  0.00  0.00    +0.000 NA
ENDROOT
BRANCH   1  10
ATOM      7  C   UNL     1       1.068  10.111  18.926  0.00  0.00    +0.000 A 
ATOM      8  C   UNL     1       1.850   9.731  17.825  0.00  0.00    +0.000 A 
ATOM      9  C   UNL     1       2.451   8.467  17.769  0.00  0.00    +0.000 A 
ATOM     10  C   UNL     1       2.318   7.559  18.826  0.00  0.00    +0.000 A 
ATOM     11  C   UNL     1       1.643   8.016  19.973  0.00  0.00    +0.000 A 
ATOM     12  C   UNL     1       1.014   9.270  20.040  0.00  0.00    +0.000 A 
BRANCH   7  14
ATOM     13  C   UNL     1       1.202  12.463  18.774  0.00  0.00    +0.000 C 
ATOM     14  O   UNL     1       0.388  11.298  18.930  0.00  0.00    +0.000 OA
ENDBRANCH   7  14
BRANCH  12  15
ATOM     15  O   UNL     1       0.390   9.456  21.243  0.00  0.00    +0.000 OA
ATOM     16  C   UNL     1       1.097   9.186  22.442  0.00  0.00    +0.000 C 
ENDBRANCH  12  15
ENDBRANCH   1  10
BRANCH   3  17
ATOM     17  C   UNL     1       1.692   2.610  19.228  0.00  0.00    +0.000 C 
ATOM     18  F   UNL     1       0.654   2.425  18.357  0.00  0.00    +0.000 F 
ATOM     19  F   UNL     1       2.392   1.443  19.206  0.00  0.00    +0.000 F 
ATOM     20  F   UNL     1       1.119   2.695  20.460  0.00  0.00    +0.000 F 
ENDBRANCH   3  17
BRANCH   5  21
ATOM     21  S   UNL     1       6.138   4.453  17.465  0.00  0.00    +0.000 S 
BRANCH  21  22
ATOM     22  C   UNL     1       7.078   5.670  18.425  0.00  0.00    +0.000 C 
BRANCH  22  23
ATOM     23  C   UNL     1       7.289   6.944  17.628  0.00  0.00    +0.000 C 
ATOM     24  O   UNL     1       6.790   7.095  16.512  0.00  0.00    +0.000 OA
ATOM     25  N   UNL     1       8.000   7.948  18.256  0.00  0.00    +0.000 N 
ATOM     26  H   UNL     1       8.631   7.695  19.009  0.00  0.00    +0.000 HD
BRANCH  25  27
ATOM     27  C   UNL     1       8.298   9.152  17.514  0.00  0.00    +0.000 C 
BRANCH  27  28
ATOM     28  C   UNL     1       8.861  10.215  18.383  0.00  0.00    +0.000 A 
ATOM     29  C   UNL     1       9.347  10.198  19.676  0.00  0.00    +0.000 A 
ATOM     30  C   UNL     1       9.650  11.537  20.013  0.00  0.00    +0.000 A 
ATOM     31  C   UNL     1       9.344  12.288  18.902  0.00  0.00    +0.000 A 
ATOM     32  O   UNL     1       8.863  11.496  17.907  0.00  0.00    +0.000 OA
ENDBRANCH  27  28
ENDBRANCH  25  27
ENDBRANCH  22  23
ENDBRANCH  21  22
ENDBRANCH   5  21
TORSDOF 9
ENDMDL
MODEL 8
REMARK VINA RESULT:      -8.2      1.588      2.078
REMARK  Name = 
REMARK  11 active torsions:
REMARK  status: ('A' for Active; 'I' for Inactive)
REMARK    1  A    between atoms: C_1  and  O_2
REMARK    2  A    between atoms: O_2  and  C_3
REMARK    3  A    between atoms: C_6  and  C_7
REMARK    4  A    between atoms: C_9  and  C_10
REMARK    5  A    between atoms: C_15  and  S_16
REMARK    6  A    between atoms: S_16  and  C_17
REMARK    7  A    between atoms: C_17  and  C_18
REMARK    8  A    between atoms: N_20  and  C_21
REMARK    9  A    between atoms: C_21  and  C_22
REMARK   10  A    between atoms: C_29  and  O_30
REMARK   11  A    between atoms: O_30  and  C_31
REMARK                            x       y       z     vdW  Elec       q    Type
REMARK                         _______ _______ _______ _____ _____    ______ ____
ROOT
ATOM      1  C   UNL     1       2.758   6.142  19.050  0.00  0.00    +0.000 A 
ATOM      2  C   UNL     1       2.420   5.291  20.091  0.00  0.00    +0.000 A 
ATOM      3  C   UNL     1       2.845   3.980  20.014  0.00  0.00    +0.000 A 
ATOM      4  N   UNL     1       3.553   3.532  18.950  0.00  0.00    +0.000 NA
ATOM      5  C   UNL     1       3.827   4.410  17.973  0.00  0.00    +0.000 A 
ATOM      6  N   UNL     1       3.456   5.701  17.982  0.00  0.00    +0.000 NA
ENDROOT
BRANCH   1  10
ATOM      7  C   UNL     1       1.165  10.147  18.901  0.00  0.00    +0.000 A 
ATOM      8  C   UNL     1       1.961   9.655  17.856  0.00  0.00    +0.000 A 
ATOM      9  C   UNL     1       2.512   8.369  17.912  0.00  0.00    +0.000 A 
ATOM     10  C   UNL     1       2.314   7.550  19.030  0.00  0.00    +0.000 A 
ATOM     11  C   UNL     1       1.627   8.117  20.119  0.00  0.00    +0.000 A 
ATOM     12  C   UNL     1       1.047   9.395  20.073  0.00  0.00    +0.000 A 
BRANCH   7  14
ATOM     13  C   UNL     1       1.226  12.456  19.392  0.00  0.00    +0.000 C 
ATOM     14  O   UNL     1       0.534  11.357  18.796  0.00  0.00    +0.000 OA
ENDBRANCH   7  14
BRANCH  12  15
ATOM     15  O   UNL     1       0.398   9.697  21.240  0.00  0.00    +0.000 OA
ATOM     16  C   UNL     1      -0.235   8.659  21.969  0.00  0.00    +0.000 C 
ENDBRANCH  12  15
ENDBRANCH   1  10
BRANCH   3  17
ATOM     17  C   UNL     1       2.507   3.017  21.144  0.00  0.00    +0.000 C 
ATOM     18  F   UNL     1       3.542   2.178  21.452  0.00  0.00    +0.000 F 
ATOM     19  F   UNL     1       2.194   3.646  22.310  0.00  0.00    +0.000 F 
ATOM     20  F   UNL     1       1.456   2.203  20.849  0.00  0.00    +0.000 F 
ENDBRANCH   3  17
BRANCH   5  21
ATOM     21  S   UNL     1       4.694   3.759  16.568  0.00  0.00    +0.000 S 
BRANCH  21  22
ATOM     22  C   UNL     1       5.479   5.279  15.967  0.00  0.00    +0.000 C 
BRANCH  22  23
ATOM     23  C   UNL     1       6.760   5.565  16.730  0.00  0.00    +0.000 C 
ATOM     24  O   UNL     1       7.753   4.847  16.612  0.00  0.00    +0.000 OA
ATOM     25  N   UNL     1       6.772   6.716  17.495  0.00  0.00    +0.000 N 
ATOM     26  H   UNL     1       5.886   7.100  17.804  0.00  0.00    +0.000 HD
BRANCH  25  27
ATOM     27  C   UNL     1       7.937   6.995  18.303  0.00  0.00    +0.000 C 
BRANCH  27  28
ATOM     28  C   UNL     1       8.244   8.446  18.351  0.00  0.00    +0.000 A 
ATOM     29  C   UNL     1       7.895   9.498  17.526  0.00  0.00    +0.000 A 
ATOM     30  C   UNL     1       8.570  10.640  18.016  0.00  0.00    +0.000 A 
ATOM     31  C   UNL     1       9.281  10.218  19.117  0.00  0.00    +0.000 A 
ATOM     32  O   UNL     1       9.090   8.889  19.329  0.00  0.00    +0.000 OA
ENDBRANCH  27  28
ENDBRANCH  25  27
ENDBRANCH  22  23
ENDBRANCH  21  22
ENDBRANCH   5  21
TORSDOF 9
ENDMDL
MODEL 9
REMARK VINA RESULT:      -8.1      3.012      4.747
REMARK  Name = 
REMARK  11 active torsions:
REMARK  status: ('A' for Active; 'I' for Inactive)
REMARK    1  A    between atoms: C_1  and  O_2
REMARK    2  A    between atoms: O_2  and  C_3
REMARK    3  A    between atoms: C_6  and  C_7
REMARK    4  A    between atoms: C_9  and  C_10
REMARK    5  A    between atoms: C_15  and  S_16
REMARK    6  A    between atoms: S_16  and  C_17
REMARK    7  A    between atoms: C_17  and  C_18
REMARK    8  A    between atoms: N_20  and  C_21
REMARK    9  A    between atoms: C_21  and  C_22
REMARK   10  A    between atoms: C_29  and  O_30
REMARK   11  A    between atoms: O_30  and  C_31
REMARK                            x       y       z     vdW  Elec       q    Type
REMARK                         _______ _______ _______ _____ _____    ______ ____
ROOT
ATOM      1  C   UNL     1       2.660   6.158  19.298  0.00  0.00    +0.000 A 
ATOM      2  C   UNL     1       1.777   5.160  19.681  0.00  0.00    +0.000 A 
ATOM      3  C   UNL     1       2.253   3.866  19.740  0.00  0.00    +0.000 A 
ATOM      4  N   UNL     1       3.536   3.575  19.417  0.00  0.00    +0.000 NA
ATOM      5  C   UNL     1       4.326   4.591  19.038  0.00  0.00    +0.000 A 
ATOM      6  N   UNL     1       3.938   5.873  18.966  0.00  0.00    +0.000 NA
ENDROOT
BRANCH   1  10
ATOM      7  C   UNL     1       1.101  10.153  18.841  0.00  0.00    +0.000 A 
ATOM      8  C   UNL     1       1.895   9.577  17.839  0.00  0.00    +0.000 A 
ATOM      9  C   UNL     1       2.436   8.294  17.994  0.00  0.00    +0.000 A 
ATOM     10  C   UNL     1       2.227   7.563  19.170  0.00  0.00    +0.000 A 
ATOM     11  C   UNL     1       1.541   8.217  20.210  0.00  0.00    +0.000 A 
ATOM     12  C   UNL     1       0.973   9.493  20.066  0.00  0.00    +0.000 A 
BRANCH   7  14
ATOM     13  C   UNL     1       1.108  12.474  19.274  0.00  0.00    +0.000 C 
ATOM     14  O   UNL     1       0.480  11.356  18.643  0.00  0.00    +0.000 OA
ENDBRANCH   7  14
BRANCH  12  15
ATOM     15  O   UNL     1       0.323   9.886  21.204  0.00  0.00    +0.000 OA
ATOM     16  C   UNL     1       0.736   9.363  22.456  0.00  0.00    +0.000 C 
ENDBRANCH  12  15
ENDBRANCH   1  10
BRANCH   3  17
ATOM     17  C   UNL     1       1.319   2.744  20.171  0.00  0.00    +0.000 C 
ATOM     18  F   UNL     1       1.144   2.692  21.527  0.00  0.00    +0.000 F 
ATOM     19  F   UNL     1       0.066   2.859  19.651  0.00  0.00    +0.000 F 
ATOM     20  F   UNL     1       1.774   1.511  19.817  0.00  0.00    +0.000 F 
ENDBRANCH   3  17
BRANCH   5  21
ATOM     21  S   UNL     1       5.976   4.149  18.556  0.00  0.00    +0.000 S 
BRANCH  21  22
ATOM     22  C   UNL     1       6.720   5.800  18.477  0.00  0.00    +0.000 C 
BRANCH  22  23
ATOM     23  C   UNL     1       7.256   6.087  17.086  0.00  0.00    +0.000 C 
ATOM     24  O   UNL     1       7.787   7.162  16.810  0.00  0.00    +0.000 OA
ATOM     25  N   UNL     1       7.187   5.047  16.178  0.00  0.00    +0.000 N 
ATOM     26  H   UNL     1       6.500   4.317  16.331  0.00  0.00    +0.000 HD
BRANCH  25  27
ATOM     27  C   UNL     1       7.611   5.290  14.818  0.00  0.00    +0.000 C 
BRANCH  27  28
ATOM     28  C   UNL     1       6.794   4.530  13.839  0.00  0.00    +0.000 A 
ATOM     29  C   UNL     1       5.543   3.951  13.923  0.00  0.00    +0.000 A 
ATOM     30  C   UNL     1       5.328   3.269  12.702  0.00  0.00    +0.000 A 
ATOM     31  C   UNL     1       6.455   3.485  11.943  0.00  0.00    +0.000 A 
ATOM     32  O   UNL     1       7.351   4.249  12.623  0.00  0.00    +0.000 OA
ENDBRANCH  27  28
ENDBRANCH  25  27
ENDBRANCH  22  23
ENDBRANCH  21  22
ENDBRANCH   5  21
TORSDOF 9
ENDMDL
