MODEL 1
REMARK VINA RESULT:      -6.1      0.000      0.000
REMARK  Name = 
REMARK  5 active torsions:
REMARK  status: ('A' for Active; 'I' for Inactive)
REMARK    1  A    between atoms: C_1  and  N_2
REMARK    2  A    between atoms: N_2  and  C_3
REMARK    3  A    between atoms: C_4  and  C_6
REMARK    4  A    between atoms: C_6  and  N_7
REMARK    5  A    between atoms: C_8  and  C_10
REMARK                            x       y       z     vdW  Elec       q    Type
REMARK                         _______ _______ _______ _____ _____    ______ ____
ROOT
ATOM      1  N   UNL     1       5.462   3.987  17.349  0.00  0.00    +0.000 N 
ATOM      2  C   UNL     1       4.926   3.914  18.619  0.00  0.00    +0.000 C 
ATOM      3  O   UNL     1       5.596   4.224  19.600  0.00  0.00    +0.000 OA
ATOM      4  H   UNL     1       4.941   3.586  16.578  0.00  0.00    +0.000 HD
ENDROOT
BRANCH   2   5
ATOM      5  C   UNL     1       3.537   3.472  18.693  0.00  0.00    +0.000 A 
ATOM      6  S   UNL     1       3.076   1.901  18.147  0.00  0.00    +0.000 S 
ATOM      7  C   UNL     1       1.434   2.158  18.532  0.00  0.00    +0.000 A 
ATOM      8  C   UNL     1       1.219   3.407  19.066  0.00  0.00    +0.000 A 
ATOM      9  C   UNL     1       2.426   4.153  19.153  0.00  0.00    +0.000 A 
ATOM     10 BR   UNL     1       2.374   5.917  19.841  0.00  0.00    +0.000 Br
ENDBRANCH   2   5
BRANCH   1  11
ATOM     11  C   UNL     1       6.846   4.350  17.109  0.00  0.00    +0.000 C 
BRANCH  11  15
ATOM     12  C   UNL     1       7.673   8.077  17.516  0.00  0.00    +0.000 C 
ATOM     13  N   UNL     1       7.556   6.652  17.776  0.00  0.00    +0.000 N 
ATOM     14  C   UNL     1       8.087   6.131  19.025  0.00  0.00    +0.000 C 
ATOM     15  C   UNL     1       6.987   5.846  16.792  0.00  0.00    +0.000 C 
ATOM     16  O   UNL     1       6.545   6.314  15.738  0.00  0.00    +0.000 OA
ENDBRANCH  11  15
ENDBRANCH   1  11
TORSDOF 3
ENDMDL
MODEL 2
REMARK VINA RESULT:      -5.9      2.268      2.622
REMARK  Name = 
REMARK  5 active torsions:
REMARK  status: ('A' for Active; 'I' for Inactive)
REMARK    1  A    between atoms: C_1  and  N_2
REMARK    2  A    between atoms: N_2  and  C_3
REMARK    3  A    between atoms: C_4  and  C_6
REMARK    4  A    between atoms: C_6  and  N_7
REMARK    5  A    between atoms: C_8  and  C_10
REMARK                            x       y       z     vdW  Elec       q    Type
REMARK                         _______ _______ _______ _____ _____    ______ ____
ROOT
ATOM      1  N   UNL     1       4.364   5.877  18.159  0.00  0.00    +0.000 N 
ATOM      2  C   UNL     1       4.444   4.960  19.187  0.00  0.00    +0.000 C 
ATOM      3  O   UNL     1       5.520   4.718  19.727  0.00  0.00    +0.000 OA
ATOM      4  H   UNL     1       3.498   5.946  17.636  0.00  0.00    +0.000 HD
ENDROOT
BRANCH   2   5
ATOM      5  C   UNL     1       3.183   4.338  19.578  0.00  0.00    +0.000 A 
ATOM      6  S   UNL     1       2.063   5.170  20.594  0.00  0.00    +0.000 S 
ATOM      7  C   UNL     1       0.960   3.868  20.586  0.00  0.00    +0.000 A 
ATOM      8  C   UNL     1       1.417   2.811  19.833  0.00  0.00    +0.000 A 
ATOM      9  C   UNL     1       2.689   3.087  19.262  0.00  0.00    +0.000 A 
ATOM     10 BR   UNL     1       3.529   1.765  18.196  0.00  0.00    +0.000 Br
ENDBRANCH   2   5
BRANCH   1  11
ATOM     11  C   UNL     1       5.534   6.537  17.613  0.00  0.00    +0.000 C 
BRANCH  11  15
ATOM     12  C   UNL     1       6.965   4.837  14.482  0.00  0.00    +0.000 C 
ATOM     13  N   UNL     1       6.714   5.189  15.869  0.00  0.00    +0.000 N 
ATOM     14  C   UNL     1       7.435   4.471  16.907  0.00  0.00    +0.000 C 
ATOM     15  C   UNL     1       5.754   6.163  16.139  0.00  0.00    +0.000 C 
ATOM     16  O   UNL     1       5.153   6.757  15.240  0.00  0.00    +0.000 OA
ENDBRANCH  11  15
ENDBRANCH   1  11
TORSDOF 3
ENDMDL
MODEL 3
REMARK VINA RESULT:      -5.8      2.862      5.705
REMARK  Name = 
REMARK  5 active torsions:
REMARK  status: ('A' for Active; 'I' for Inactive)
REMARK    1  A    between atoms: C_1  and  N_2
REMARK    2  A    between atoms: N_2  and  C_3
REMARK    3  A    between atoms: C_4  and  C_6
REMARK    4  A    between atoms: C_6  and  N_7
REMARK    5  A    between atoms: C_8  and  C_10
REMARK                            x       y       z     vdW  Elec       q    Type
REMARK                         _______ _______ _______ _____ _____    ______ ____
ROOT
ATOM      1  N   UNL     1       5.304   3.313  19.405  0.00  0.00    +0.000 N 
ATOM      2  C   UNL     1       5.004   4.660  19.385  0.00  0.00    +0.000 C 
ATOM      3  O   UNL     1       3.937   5.070  19.833  0.00  0.00    +0.000 OA
ATOM      4  H   UNL     1       6.120   2.989  18.898  0.00  0.00    +0.000 HD
ENDROOT
BRANCH   2   5
ATOM      5  C   UNL     1       6.036   5.528  18.827  0.00  0.00    +0.000 A 
ATOM      6  S   UNL     1       7.591   5.645  19.567  0.00  0.00    +0.000 S 
ATOM      7  C   UNL     1       8.147   6.773  18.413  0.00  0.00    +0.000 A 
ATOM      8  C   UNL     1       7.184   7.068  17.476  0.00  0.00    +0.000 A 
ATOM      9  C   UNL     1       5.980   6.354  17.720  0.00  0.00    +0.000 A 
ATOM     10 BR   UNL     1       4.501   6.616  16.566  0.00  0.00    +0.000 Br
ENDBRANCH   2   5
BRANCH   1  11
ATOM     11  C   UNL     1       4.361   2.313  19.872  0.00  0.00    +0.000 C 
BRANCH  11  15
ATOM     12  C   UNL     1       0.694   2.260  18.738  0.00  0.00    +0.000 C 
ATOM     13  N   UNL     1       1.880   2.360  19.571  0.00  0.00    +0.000 N 
ATOM     14  C   UNL     1       1.710   2.638  20.987  0.00  0.00    +0.000 C 
ATOM     15  C   UNL     1       3.127   2.237  18.960  0.00  0.00    +0.000 C 
ATOM     16  O   UNL     1       3.245   2.004  17.754  0.00  0.00    +0.000 OA
ENDBRANCH  11  15
ENDBRANCH   1  11
TORSDOF 3
ENDMDL
MODEL 4
REMARK VINA RESULT:      -5.7      2.425      2.887
REMARK  Name = 
REMARK  5 active torsions:
REMARK  status: ('A' for Active; 'I' for Inactive)
REMARK    1  A    between atoms: C_1  and  N_2
REMARK    2  A    between atoms: N_2  and  C_3
REMARK    3  A    between atoms: C_4  and  C_6
REMARK    4  A    between atoms: C_6  and  N_7
REMARK    5  A    between atoms: C_8  and  C_10
REMARK                            x       y       z     vdW  Elec       q    Type
REMARK                         _______ _______ _______ _____ _____    ______ ____
ROOT
ATOM      1  N   UNL     1       5.259   4.845  18.848  0.00  0.00    +0.000 N 
ATOM      2  C   UNL     1       3.960   5.289  18.993  0.00  0.00    +0.000 C 
ATOM      3  O   UNL     1       3.636   6.410  18.614  0.00  0.00    +0.000 OA
ATOM      4  H   UNL     1       5.530   3.979  19.301  0.00  0.00    +0.000 HD
ENDROOT
BRANCH   2   5
ATOM      5  C   UNL     1       3.031   4.337  19.594  0.00  0.00    +0.000 A 
ATOM      6  S   UNL     1       2.076   4.776  20.963  0.00  0.00    +0.000 S 
ATOM      7  C   UNL     1       1.339   3.239  21.046  0.00  0.00    +0.000 A 
ATOM      8  C   UNL     1       1.797   2.394  20.062  0.00  0.00    +0.000 A 
ATOM      9  C   UNL     1       2.765   3.028  19.238  0.00  0.00    +0.000 A 
ATOM     10 BR   UNL     1       3.556   2.050  17.821  0.00  0.00    +0.000 Br
ENDBRANCH   2   5
BRANCH   1  11
ATOM     11  C   UNL     1       6.315   5.689  18.323  0.00  0.00    +0.000 C 
BRANCH  11  15
ATOM     12  C   UNL     1       7.016   4.664  14.690  0.00  0.00    +0.000 C 
ATOM     13  N   UNL     1       6.415   5.285  15.858  0.00  0.00    +0.000 N 
ATOM     14  C   UNL     1       5.273   6.164  15.664  0.00  0.00    +0.000 C 
ATOM     15  C   UNL     1       6.994   5.048  17.104  0.00  0.00    +0.000 C 
ATOM     16  O   UNL     1       7.965   4.298  17.242  0.00  0.00    +0.000 OA
ENDBRANCH  11  15
ENDBRANCH   1  11
TORSDOF 3
ENDMDL
MODEL 5
REMARK VINA RESULT:      -5.7      2.967      5.716
REMARK  Name = 
REMARK  5 active torsions:
REMARK  status: ('A' for Active; 'I' for Inactive)
REMARK    1  A    between atoms: C_1  and  N_2
REMARK    2  A    between atoms: N_2  and  C_3
REMARK    3  A    between atoms: C_4  and  C_6
REMARK    4  A    between atoms: C_6  and  N_7
REMARK    5  A    between atoms: C_8  and  C_10
REMARK                            x       y       z     vdW  Elec       q    Type
REMARK                         _______ _______ _______ _____ _____    ______ ____
ROOT
ATOM      1  N   UNL     1       4.344   2.575  17.560  0.00  0.00    +0.000 N 
ATOM      2  C   UNL     1       4.251   3.868  17.086  0.00  0.00    +0.000 C 
ATOM      3  O   UNL     1       3.255   4.549  17.314  0.00  0.00    +0.000 OA
ATOM      4  H   UNL     1       5.105   1.991  17.233  0.00  0.00    +0.000 HD
ENDROOT
BRANCH   2   5
ATOM      5  C   UNL     1       5.406   4.349  16.334  0.00  0.00    +0.000 A 
ATOM      6  S   UNL     1       5.511   4.118  14.627  0.00  0.00    +0.000 S 
ATOM      7  C   UNL     1       7.032   4.887  14.532  0.00  0.00    +0.000 A 
ATOM      8  C   UNL     1       7.469   5.316  15.764  0.00  0.00    +0.000 A 
ATOM      9  C   UNL     1       6.536   5.004  16.789  0.00  0.00    +0.000 A 
ATOM     10 BR   UNL     1       6.933   5.482  18.578  0.00  0.00    +0.000 Br
ENDBRANCH   2   5
BRANCH   1  11
ATOM     11  C   UNL     1       3.258   1.929  18.273  0.00  0.00    +0.000 C 
BRANCH  11  15
ATOM     12  C   UNL     1       2.090   3.183  21.709  0.00  0.00    +0.000 C 
ATOM     13  N   UNL     1       2.095   2.802  20.307  0.00  0.00    +0.000 N 
ATOM     14  C   UNL     1       0.859   2.924  19.552  0.00  0.00    +0.000 C 
ATOM     15  C   UNL     1       3.273   2.290  19.766  0.00  0.00    +0.000 C 
ATOM     16  O   UNL     1       4.310   2.195  20.429  0.00  0.00    +0.000 OA
ENDBRANCH  11  15
ENDBRANCH   1  11
TORSDOF 3
ENDMDL
MODEL 6
REMARK VINA RESULT:      -5.7      1.310      1.331
REMARK  Name = 
REMARK  5 active torsions:
REMARK  status: ('A' for Active; 'I' for Inactive)
REMARK    1  A    between atoms: C_1  and  N_2
REMARK    2  A    between atoms: N_2  and  C_3
REMARK    3  A    between atoms: C_4  and  C_6
REMARK    4  A    between atoms: C_6  and  N_7
REMARK    5  A    between atoms: C_8  and  C_10
REMARK                            x       y       z     vdW  Elec       q    Type
REMARK                         _______ _______ _______ _____ _____    ______ ____
ROOT
ATOM      1  N   UNL     1       5.381   4.148  18.204  0.00  0.00    +0.000 N 
ATOM      2  C   UNL     1       4.099   3.947  17.734  0.00  0.00    +0.000 C 
ATOM      3  O   UNL     1       3.885   3.821  16.532  0.00  0.00    +0.000 OA
ATOM      4  H   UNL     1       5.508   4.396  19.179  0.00  0.00    +0.000 HD
ENDROOT
BRANCH   2   5
ATOM      5  C   UNL     1       3.057   3.876  18.754  0.00  0.00    +0.000 A 
ATOM      6  S   UNL     1       2.497   2.353  19.344  0.00  0.00    +0.000 S 
ATOM      7  C   UNL     1       1.375   3.082  20.402  0.00  0.00    +0.000 A 
ATOM      8  C   UNL     1       1.409   4.455  20.323  0.00  0.00    +0.000 A 
ATOM      9  C   UNL     1       2.371   4.901  19.377  0.00  0.00    +0.000 A 
ATOM     10 BR   UNL     1       2.584   6.760  19.081  0.00  0.00    +0.000 Br
ENDBRANCH   2   5
BRANCH   1  11
ATOM     11  C   UNL     1       6.519   4.302  17.317  0.00  0.00    +0.000 C 
BRANCH  11  15
ATOM     12  C   UNL     1       7.684   7.947  17.631  0.00  0.00    +0.000 C 
ATOM     13  N   UNL     1       7.462   6.539  17.914  0.00  0.00    +0.000 N 
ATOM     14  C   UNL     1       8.019   5.982  19.136  0.00  0.00    +0.000 C 
ATOM     15  C   UNL     1       6.768   5.779  16.974  0.00  0.00    +0.000 C 
ATOM     16  O   UNL     1       6.307   6.275  15.943  0.00  0.00    +0.000 OA
ENDBRANCH  11  15
ENDBRANCH   1  11
TORSDOF 3
ENDMDL
MODEL 7
REMARK VINA RESULT:      -5.6      2.807      5.918
REMARK  Name = 
REMARK  5 active torsions:
REMARK  status: ('A' for Active; 'I' for Inactive)
REMARK    1  A    between atoms: C_1  and  N_2
REMARK    2  A    between atoms: N_2  and  C_3
REMARK    3  A    between atoms: C_4  and  C_6
REMARK    4  A    between atoms: C_6  and  N_7
REMARK    5  A    between atoms: C_8  and  C_10
REMARK                            x       y       z     vdW  Elec       q    Type
REMARK                         _______ _______ _______ _____ _____    ______ ____
ROOT
ATOM      1  N   UNL     1       5.039   3.272  18.716  0.00  0.00    +0.000 N 
ATOM      2  C   UNL     1       4.756   4.604  18.492  0.00  0.00    +0.000 C 
ATOM      3  O   UNL     1       3.596   5.005  18.483  0.00  0.00    +0.000 OA
ATOM      4  H   UNL     1       5.987   2.945  18.571  0.00  0.00    +0.000 HD
ENDROOT
BRANCH   2   5
ATOM      5  C   UNL     1       5.914   5.470  18.293  0.00  0.00    +0.000 A 
ATOM      6  S   UNL     1       7.156   5.577  19.487  0.00  0.00    +0.000 S 
ATOM      7  C   UNL     1       8.051   6.707  18.574  0.00  0.00    +0.000 A 
ATOM      8  C   UNL     1       7.435   7.010  17.382  0.00  0.00    +0.000 A 
ATOM      9  C   UNL     1       6.213   6.301  17.230  0.00  0.00    +0.000 A 
ATOM     10 BR   UNL     1       5.175   6.574  15.669  0.00  0.00    +0.000 Br
ENDBRANCH   2   5
BRANCH   1  11
ATOM     11  C   UNL     1       3.999   2.272  18.873  0.00  0.00    +0.000 C 
BRANCH  11  15
ATOM     12  C   UNL     1       1.370   2.653  21.645  0.00  0.00    +0.000 C 
ATOM     13  N   UNL     1       1.991   2.556  20.335  0.00  0.00    +0.000 N 
ATOM     14  C   UNL     1       1.141   2.640  19.158  0.00  0.00    +0.000 C 
ATOM     15  C   UNL     1       3.366   2.336  20.271  0.00  0.00    +0.000 C 
ATOM     16  O   UNL     1       4.065   2.266  21.286  0.00  0.00    +0.000 OA
ENDBRANCH  11  15
ENDBRANCH   1  11
TORSDOF 3
ENDMDL
MODEL 8
REMARK VINA RESULT:      -5.6      2.996      5.741
REMARK  Name = 
REMARK  5 active torsions:
REMARK  status: ('A' for Active; 'I' for Inactive)
REMARK    1  A    between atoms: C_1  and  N_2
REMARK    2  A    between atoms: N_2  and  C_3
REMARK    3  A    between atoms: C_4  and  C_6
REMARK    4  A    between atoms: C_6  and  N_7
REMARK    5  A    between atoms: C_8  and  C_10
REMARK                            x       y       z     vdW  Elec       q    Type
REMARK                         _______ _______ _______ _____ _____    ______ ____
ROOT
ATOM      1  N   UNL     1       2.967   4.257  17.432  0.00  0.00    +0.000 N 
ATOM      2  C   UNL     1       3.869   5.301  17.468  0.00  0.00    +0.000 C 
ATOM      3  O   UNL     1       3.582   6.357  18.026  0.00  0.00    +0.000 OA
ATOM      4  H   UNL     1       3.170   3.459  16.842  0.00  0.00    +0.000 HD
ENDROOT
BRANCH   2   5
ATOM      5  C   UNL     1       5.155   5.046  16.828  0.00  0.00    +0.000 A 
ATOM      6  S   UNL     1       5.243   4.602  15.162  0.00  0.00    +0.000 S 
ATOM      7  C   UNL     1       6.945   4.484  15.198  0.00  0.00    +0.000 A 
ATOM      8  C   UNL     1       7.455   4.772  16.442  0.00  0.00    +0.000 A 
ATOM      9  C   UNL     1       6.426   5.090  17.369  0.00  0.00    +0.000 A 
ATOM     10 BR   UNL     1       6.890   5.504  19.158  0.00  0.00    +0.000 Br
ENDBRANCH   2   5
BRANCH   1  11
ATOM     11  C   UNL     1       1.624   4.371  17.971  0.00  0.00    +0.000 C 
BRANCH  11  15
ATOM     12  C   UNL     1       1.263   2.873  21.487  0.00  0.00    +0.000 C 
ATOM     13  N   UNL     1       1.456   3.822  20.404  0.00  0.00    +0.000 N 
ATOM     14  C   UNL     1       1.663   5.221  20.738  0.00  0.00    +0.000 C 
ATOM     15  C   UNL     1       1.382   3.351  19.094  0.00  0.00    +0.000 C 
ATOM     16  O   UNL     1       1.202   2.158  18.837  0.00  0.00    +0.000 OA
ENDBRANCH  11  15
ENDBRANCH   1  11
TORSDOF 3
ENDMDL
MODEL 9
REMARK VINA RESULT:      -5.5      1.773      1.924
REMARK  Name = 
REMARK  5 active torsions:
REMARK  status: ('A' for Active; 'I' for Inactive)
REMARK    1  A    between atoms: C_1  and  N_2
REMARK    2  A    between atoms: N_2  and  C_3
REMARK    3  A    between atoms: C_4  and  C_6
REMARK    4  A    between atoms: C_6  and  N_7
REMARK    5  A    between atoms: C_8  and  C_10
REMARK                            x       y       z     vdW  Elec       q    Type
REMARK                         _______ _______ _______ _____ _____    ______ ____
ROOT
ATOM      1  N   UNL     1       4.345   4.117  17.540  0.00  0.00    +0.000 N 
ATOM      2  C   UNL     1       3.010   3.769  17.533  0.00  0.00    +0.000 C 
ATOM      3  O   UNL     1       2.423   3.562  16.475  0.00  0.00    +0.000 OA
ATOM      4  H   UNL     1       4.762   4.424  18.411  0.00  0.00    +0.000 HD
ENDROOT
BRANCH   2   5
ATOM      5  C   UNL     1       2.381   3.649  18.844  0.00  0.00    +0.000 A 
ATOM      6  S   UNL     1       1.837   2.120  19.430  0.00  0.00    +0.000 S 
ATOM      7  C   UNL     1       1.265   2.789  20.892  0.00  0.00    +0.000 A 
ATOM      8  C   UNL     1       1.474   4.148  20.952  0.00  0.00    +0.000 A 
ATOM      9  C   UNL     1       2.110   4.632  19.778  0.00  0.00    +0.000 A 
ATOM     10 BR   UNL     1       2.483   6.483  19.625  0.00  0.00    +0.000 Br
ENDBRANCH   2   5
BRANCH   1  11
ATOM     11  C   UNL     1       5.099   4.334  16.320  0.00  0.00    +0.000 C 
BRANCH  11  15
ATOM     12  C   UNL     1       7.542   7.184  17.126  0.00  0.00    +0.000 C 
ATOM     13  N   UNL     1       6.909   5.877  17.090  0.00  0.00    +0.000 N 
ATOM     14  C   UNL     1       7.530   4.787  17.826  0.00  0.00    +0.000 C 
ATOM     15  C   UNL     1       5.765   5.719  16.310  0.00  0.00    +0.000 C 
ATOM     16  O   UNL     1       5.258   6.660  15.693  0.00  0.00    +0.000 OA
ENDBRANCH  11  15
ENDBRANCH   1  11
TORSDOF 3
ENDMDL
