MODEL 1
REMARK VINA RESULT:      -7.0      0.000      0.000
REMARK  Name = 
REMARK  4 active torsions:
REMARK  status: ('A' for Active; 'I' for Inactive)
REMARK    1  A    between atoms: C_1  and  C_2
REMARK    2  A    between atoms: C_2  and  O_3
REMARK    3  A    between atoms: O_3  and  C_4
REMARK    4  A    between atoms: C_4  and  C_5
REMARK                            x       y       z     vdW  Elec       q    Type
REMARK                         _______ _______ _______ _____ _____    ______ ____
ROOT
ATOM      1  C   UNL     1       4.808   4.856  17.452  0.00  0.00    +0.000 C 
ATOM      2  S   UNL     1       3.829   6.429  17.402  0.00  0.00    +0.000 S 
ATOM      3  C   UNL     1       2.909   6.287  18.907  0.00  0.00    +0.000 A 
ATOM      4  C   UNL     1       2.526   7.490  19.519  0.00  0.00    +0.000 A 
ATOM      5  C   UNL     1       1.686   7.484  20.625  0.00  0.00    +0.000 A 
ATOM      6  C   UNL     1       1.207   6.276  21.110  0.00  0.00    +0.000 A 
ATOM      7  C   UNL     1       1.591   5.071  20.506  0.00  0.00    +0.000 A 
ATOM      8  C   UNL     1       2.468   5.055  19.406  0.00  0.00    +0.000 A 
ATOM      9  N   UNL     1       2.882   3.849  18.792  0.00  0.00    +0.000 N 
ATOM     10  C   UNL     1       3.876   3.703  17.893  0.00  0.00    +0.000 A 
ATOM     11  N   UNL     1       4.046   2.472  17.512  0.00  0.00    +0.000 NA
ATOM     12  O   UNL     1       3.066   1.718  18.205  0.00  0.00    +0.000 OA
ATOM     13  C   UNL     1       2.373   2.606  18.990  0.00  0.00    +0.000 A 
ATOM     14  O   UNL     1       1.442   2.256  19.701  0.00  0.00    +0.000 OA
ENDROOT
BRANCH   1  15
ATOM     15  C   UNL     1       5.451   4.566  16.068  0.00  0.00    +0.000 A 
ATOM     16  C   UNL     1       6.822   4.807  15.843  0.00  0.00    +0.000 A 
ATOM     17  C   UNL     1       7.390   4.651  14.572  0.00  0.00    +0.000 A 
ATOM     18  C   UNL     1       6.605   4.222  13.508  0.00  0.00    +0.000 A 
ATOM     19 BR   UNL     1       7.347   4.070  11.778  0.00  0.00    +0.000 Br
ATOM     20  C   UNL     1       5.268   3.907  13.712  0.00  0.00    +0.000 A 
ATOM     21  C   UNL     1       4.705   4.057  14.982  0.00  0.00    +0.000 A 
ENDBRANCH   1  15
BRANCH   1  22
ATOM     22  O   UNL     1       5.800   4.898  18.513  0.00  0.00    +0.000 OA
BRANCH  22  24
ATOM     23  C   UNL     1       7.889   5.839  19.221  0.00  0.00    +0.000 C 
ATOM     24  C   UNL     1       6.507   6.131  18.666  0.00  0.00    +0.000 C 
ENDBRANCH  22  24
ENDBRANCH   1  22
TORSDOF 3
ENDMDL
MODEL 2
REMARK VINA RESULT:      -6.9      1.035      1.092
REMARK  Name = 
REMARK  4 active torsions:
REMARK  status: ('A' for Active; 'I' for Inactive)
REMARK    1  A    between atoms: C_1  and  C_2
REMARK    2  A    between atoms: C_2  and  O_3
REMARK    3  A    between atoms: O_3  and  C_4
REMARK    4  A    between atoms: C_4  and  C_5
REMARK                            x       y       z     vdW  Elec       q    Type
REMARK                         _______ _______ _______ _____ _____    ______ ____
ROOT
ATOM      1  C   UNL     1       4.762   5.743  17.649  0.00  0.00    +0.000 C 
ATOM      2  S   UNL     1       3.475   7.014  17.246  0.00  0.00    +0.000 S 
ATOM      3  C   UNL     1       2.676   7.176  18.816  0.00  0.00    +0.000 A 
ATOM      4  C   UNL     1       2.079   8.417  19.086  0.00  0.00    +0.000 A 
ATOM      5  C   UNL     1       1.310   8.597  20.230  0.00  0.00    +0.000 A 
ATOM      6  C   UNL     1       1.118   7.531  21.096  0.00  0.00    +0.000 A 
ATOM      7  C   UNL     1       1.717   6.292  20.833  0.00  0.00    +0.000 A 
ATOM      8  C   UNL     1       2.525   6.099  19.699  0.00  0.00    +0.000 A 
ATOM      9  N   UNL     1       3.153   4.861  19.425  0.00  0.00    +0.000 N 
ATOM     10  C   UNL     1       4.113   4.631  18.507  0.00  0.00    +0.000 A 
ATOM     11  N   UNL     1       4.518   3.396  18.487  0.00  0.00    +0.000 NA
ATOM     12  O   UNL     1       3.751   2.726  19.472  0.00  0.00    +0.000 OA
ATOM     13  C   UNL     1       2.925   3.669  20.032  0.00  0.00    +0.000 A 
ATOM     14  O   UNL     1       2.122   3.389  20.910  0.00  0.00    +0.000 OA
ENDROOT
BRANCH   1  15
ATOM     15  C   UNL     1       5.387   5.164  16.350  0.00  0.00    +0.000 A 
ATOM     16  C   UNL     1       6.661   5.581  15.912  0.00  0.00    +0.000 A 
ATOM     17  C   UNL     1       7.188   5.148  14.689  0.00  0.00    +0.000 A 
ATOM     18  C   UNL     1       6.466   4.265  13.895  0.00  0.00    +0.000 A 
ATOM     19 BR   UNL     1       7.141   3.725  12.215  0.00  0.00    +0.000 Br
ATOM     20  C   UNL     1       5.241   3.779  14.330  0.00  0.00    +0.000 A 
ATOM     21  C   UNL     1       4.720   4.207  15.555  0.00  0.00    +0.000 A 
ENDBRANCH   1  15
BRANCH   1  22
ATOM     22  O   UNL     1       5.772   6.293  18.538  0.00  0.00    +0.000 OA
BRANCH  22  24
ATOM     23  C   UNL     1       7.980   5.784  19.321  0.00  0.00    +0.000 C 
ATOM     24  C   UNL     1       6.528   5.346  19.297  0.00  0.00    +0.000 C 
ENDBRANCH  22  24
ENDBRANCH   1  22
TORSDOF 3
ENDMDL
MODEL 3
REMARK VINA RESULT:      -6.7      6.788      9.237
REMARK  Name = 
REMARK  4 active torsions:
REMARK  status: ('A' for Active; 'I' for Inactive)
REMARK    1  A    between atoms: C_1  and  C_2
REMARK    2  A    between atoms: C_2  and  O_3
REMARK    3  A    between atoms: O_3  and  C_4
REMARK    4  A    between atoms: C_4  and  C_5
REMARK                            x       y       z     vdW  Elec       q    Type
REMARK                         _______ _______ _______ _____ _____    ______ ____
ROOT
ATOM      1  C   UNL     1       0.162  10.997  19.094  0.00  0.00    +0.000 C 
ATOM      2  S   UNL     1      -0.753  11.293  20.678  0.00  0.00    +0.000 S 
ATOM      3  C   UNL     1      -1.130  13.015  20.519  0.00  0.00    +0.000 A 
ATOM      4  C   UNL     1      -2.281  13.465  21.182  0.00  0.00    +0.000 A 
ATOM      5  C   UNL     1      -2.585  14.820  21.232  0.00  0.00    +0.000 A 
ATOM      6  C   UNL     1      -1.725  15.732  20.638  0.00  0.00    +0.000 A 
ATOM      7  C   UNL     1      -0.576  15.287  19.971  0.00  0.00    +0.000 A 
ATOM      8  C   UNL     1      -0.270  13.918  19.881  0.00  0.00    +0.000 A 
ATOM      9  N   UNL     1       0.876  13.447  19.196  0.00  0.00    +0.000 N 
ATOM     10  C   UNL     1       1.144  12.169  18.859  0.00  0.00    +0.000 A 
ATOM     11  N   UNL     1       2.266  12.033  18.218  0.00  0.00    +0.000 NA
ATOM     12  O   UNL     1       2.815  13.336  18.126  0.00  0.00    +0.000 OA
ATOM     13  C   UNL     1       1.922  14.181  18.737  0.00  0.00    +0.000 A 
ATOM     14  O   UNL     1       2.126  15.382  18.835  0.00  0.00    +0.000 OA
ENDROOT
BRANCH   1  15
ATOM     15  C   UNL     1       0.907   9.635  19.137  0.00  0.00    +0.000 A 
ATOM     16  C   UNL     1       1.035   8.919  20.345  0.00  0.00    +0.000 A 
ATOM     17  C   UNL     1       1.794   7.744  20.418  0.00  0.00    +0.000 A 
ATOM     18  C   UNL     1       2.415   7.246  19.278  0.00  0.00    +0.000 A 
ATOM     19 BR   UNL     1       3.494   5.699  19.380  0.00  0.00    +0.000 Br
ATOM     20  C   UNL     1       2.250   7.888  18.058  0.00  0.00    +0.000 A 
ATOM     21  C   UNL     1       1.485   9.056  17.986  0.00  0.00    +0.000 A 
ENDBRANCH   1  15
BRANCH   1  22
ATOM     22  O   UNL     1      -0.735  11.090  17.954  0.00  0.00    +0.000 OA
BRANCH  22  24
ATOM     23  C   UNL     1      -2.355   9.896  16.649  0.00  0.00    +0.000 C 
ATOM     24  C   UNL     1      -1.947  10.337  18.044  0.00  0.00    +0.000 C 
ENDBRANCH  22  24
ENDBRANCH   1  22
TORSDOF 3
ENDMDL
MODEL 4
REMARK VINA RESULT:      -6.6      6.454      8.929
REMARK  Name = 
REMARK  4 active torsions:
REMARK  status: ('A' for Active; 'I' for Inactive)
REMARK    1  A    between atoms: C_1  and  C_2
REMARK    2  A    between atoms: C_2  and  O_3
REMARK    3  A    between atoms: O_3  and  C_4
REMARK    4  A    between atoms: C_4  and  C_5
REMARK                            x       y       z     vdW  Elec       q    Type
REMARK                         _______ _______ _______ _____ _____    ______ ____
ROOT
ATOM      1  C   UNL     1       0.320  10.788  19.901  0.00  0.00    +0.000 C 
ATOM      2  S   UNL     1      -0.391  10.421  21.573  0.00  0.00    +0.000 S 
ATOM      3  C   UNL     1      -0.837  12.051  22.100  0.00  0.00    +0.000 A 
ATOM      4  C   UNL     1      -1.907  12.142  23.003  0.00  0.00    +0.000 A 
ATOM      5  C   UNL     1      -2.243  13.360  23.581  0.00  0.00    +0.000 A 
ATOM      6  C   UNL     1      -1.494  14.488  23.275  0.00  0.00    +0.000 A 
ATOM      7  C   UNL     1      -0.428  14.402  22.369  0.00  0.00    +0.000 A 
ATOM      8  C   UNL     1      -0.095  13.185  21.749  0.00  0.00    +0.000 A 
ATOM      9  N   UNL     1       0.967  13.081  20.818  0.00  0.00    +0.000 N 
ATOM     10  C   UNL     1       1.227  12.036  20.008  0.00  0.00    +0.000 A 
ATOM     11  N   UNL     1       2.260  12.226  19.243  0.00  0.00    +0.000 NA
ATOM     12  O   UNL     1       2.753  13.512  19.578  0.00  0.00    +0.000 OA
ATOM     13  C   UNL     1       1.921  14.008  20.550  0.00  0.00    +0.000 A 
ATOM     14  O   UNL     1       2.100  15.104  21.061  0.00  0.00    +0.000 OA
ENDROOT
BRANCH   1  15
ATOM     15  C   UNL     1       1.105   9.562  19.358  0.00  0.00    +0.000 A 
ATOM     16  C   UNL     1       1.406   8.468  20.195  0.00  0.00    +0.000 A 
ATOM     17  C   UNL     1       2.204   7.407  19.748  0.00  0.00    +0.000 A 
ATOM     18  C   UNL     1       2.690   7.405  18.445  0.00  0.00    +0.000 A 
ATOM     19 BR   UNL     1       3.819   6.011  17.853  0.00  0.00    +0.000 Br
ATOM     20  C   UNL     1       2.352   8.431  17.574  0.00  0.00    +0.000 A 
ATOM     21  C   UNL     1       1.550   9.485  18.020  0.00  0.00    +0.000 A 
ENDBRANCH   1  15
BRANCH   1  22
ATOM     22  O   UNL     1      -0.720  11.218  18.980  0.00  0.00    +0.000 OA
BRANCH  22  24
ATOM     23  C   UNL     1      -2.031  10.105  17.309  0.00  0.00    +0.000 C 
ATOM     24  C   UNL     1      -1.812  10.314  18.796  0.00  0.00    +0.000 C 
ENDBRANCH  22  24
ENDBRANCH   1  22
TORSDOF 3
ENDMDL
MODEL 5
REMARK VINA RESULT:      -6.6      6.815      9.263
REMARK  Name = 
REMARK  4 active torsions:
REMARK  status: ('A' for Active; 'I' for Inactive)
REMARK    1  A    between atoms: C_1  and  C_2
REMARK    2  A    between atoms: C_2  and  O_3
REMARK    3  A    between atoms: O_3  and  C_4
REMARK    4  A    between atoms: C_4  and  C_5
REMARK                            x       y       z     vdW  Elec       q    Type
REMARK                         _______ _______ _______ _____ _____    ______ ____
ROOT
ATOM      1  C   UNL     1       0.152  10.969  19.133  0.00  0.00    +0.000 C 
ATOM      2  S   UNL     1      -0.807  11.214  20.699  0.00  0.00    +0.000 S 
ATOM      3  C   UNL     1      -1.297  12.905  20.520  0.00  0.00    +0.000 A 
ATOM      4  C   UNL     1      -2.487  13.281  21.160  0.00  0.00    +0.000 A 
ATOM      5  C   UNL     1      -2.882  14.612  21.193  0.00  0.00    +0.000 A 
ATOM      6  C   UNL     1      -2.075  15.577  20.607  0.00  0.00    +0.000 A 
ATOM      7  C   UNL     1      -0.888  15.206  19.962  0.00  0.00    +0.000 A 
ATOM      8  C   UNL     1      -0.489  13.860  19.888  0.00  0.00    +0.000 A 
ATOM      9  N   UNL     1       0.698  13.462  19.227  0.00  0.00    +0.000 N 
ATOM     10  C   UNL     1       1.056  12.203  18.905  0.00  0.00    +0.000 A 
ATOM     11  N   UNL     1       2.196  12.138  18.283  0.00  0.00    +0.000 NA
ATOM     12  O   UNL     1       2.658  13.475  18.190  0.00  0.00    +0.000 OA
ATOM     13  C   UNL     1       1.699  14.261  18.780  0.00  0.00    +0.000 A 
ATOM     14  O   UNL     1       1.821  15.474  18.871  0.00  0.00    +0.000 OA
ENDROOT
BRANCH   1  15
ATOM     15  C   UNL     1       0.986   9.660  19.199  0.00  0.00    +0.000 A 
ATOM     16  C   UNL     1       1.615   9.145  18.047  0.00  0.00    +0.000 A 
ATOM     17  C   UNL     1       2.280   7.912  18.071  0.00  0.00    +0.000 A 
ATOM     18  C   UNL     1       2.353   7.185  19.254  0.00  0.00    +0.000 A 
ATOM     19 BR   UNL     1       3.191   5.492  19.279  0.00  0.00    +0.000 Br
ATOM     20  C   UNL     1       1.806   7.698  20.422  0.00  0.00    +0.000 A 
ATOM     21  C   UNL     1       1.151   8.932  20.397  0.00  0.00    +0.000 A 
ENDBRANCH   1  15
BRANCH   1  22
ATOM     22  O   UNL     1      -0.729  10.993  17.978  0.00  0.00    +0.000 OA
BRANCH  22  24
ATOM     23  C   UNL     1      -2.427   9.931  16.659  0.00  0.00    +0.000 C 
ATOM     24  C   UNL     1      -1.899  10.175  18.060  0.00  0.00    +0.000 C 
ENDBRANCH  22  24
ENDBRANCH   1  22
TORSDOF 3
ENDMDL
MODEL 6
REMARK VINA RESULT:      -6.6      0.909      1.347
REMARK  Name = 
REMARK  4 active torsions:
REMARK  status: ('A' for Active; 'I' for Inactive)
REMARK    1  A    between atoms: C_1  and  C_2
REMARK    2  A    between atoms: C_2  and  O_3
REMARK    3  A    between atoms: O_3  and  C_4
REMARK    4  A    between atoms: C_4  and  C_5
REMARK                            x       y       z     vdW  Elec       q    Type
REMARK                         _______ _______ _______ _____ _____    ______ ____
ROOT
ATOM      1  C   UNL     1       4.754   5.750  17.497  0.00  0.00    +0.000 C 
ATOM      2  S   UNL     1       3.461   7.051  17.232  0.00  0.00    +0.000 S 
ATOM      3  C   UNL     1       2.690   7.073  18.824  0.00  0.00    +0.000 A 
ATOM      4  C   UNL     1       2.099   8.284  19.214  0.00  0.00    +0.000 A 
ATOM      5  C   UNL     1       1.352   8.362  20.383  0.00  0.00    +0.000 A 
ATOM      6  C   UNL     1       1.174   7.223  21.155  0.00  0.00    +0.000 A 
ATOM      7  C   UNL     1       1.767   6.013  20.772  0.00  0.00    +0.000 A 
ATOM      8  C   UNL     1       2.555   5.922  19.611  0.00  0.00    +0.000 A 
ATOM      9  N   UNL     1       3.177   4.713  19.216  0.00  0.00    +0.000 N 
ATOM     10  C   UNL     1       4.120   4.567  18.264  0.00  0.00    +0.000 A 
ATOM     11  N   UNL     1       4.524   3.339  18.128  0.00  0.00    +0.000 NA
ATOM     12  O   UNL     1       3.774   2.583  19.063  0.00  0.00    +0.000 OA
ATOM     13  C   UNL     1       2.959   3.472  19.719  0.00  0.00    +0.000 A 
ATOM     14  O   UNL     1       2.172   3.114  20.583  0.00  0.00    +0.000 OA
ENDROOT
BRANCH   1  15
ATOM     15  C   UNL     1       5.355   5.290  16.141  0.00  0.00    +0.000 A 
ATOM     16  C   UNL     1       4.571   4.583  15.206  0.00  0.00    +0.000 A 
ATOM     17  C   UNL     1       5.129   4.070  14.028  0.00  0.00    +0.000 A 
ATOM     18  C   UNL     1       6.474   4.279  13.747  0.00  0.00    +0.000 A 
ATOM     19 BR   UNL     1       7.250   3.536  12.193  0.00  0.00    +0.000 Br
ATOM     20  C   UNL     1       7.257   5.032  14.612  0.00  0.00    +0.000 A 
ATOM     21  C   UNL     1       6.696   5.549  15.783  0.00  0.00    +0.000 A 
ENDBRANCH   1  15
BRANCH   1  22
ATOM     22  O   UNL     1       5.780   6.221  18.413  0.00  0.00    +0.000 OA
BRANCH  22  24
ATOM     23  C   UNL     1       7.946   5.739  19.324  0.00  0.00    +0.000 C 
ATOM     24  C   UNL     1       6.545   5.210  19.075  0.00  0.00    +0.000 C 
ENDBRANCH  22  24
ENDBRANCH   1  22
TORSDOF 3
ENDMDL
MODEL 7
REMARK VINA RESULT:      -6.5      6.555      9.056
REMARK  Name = 
REMARK  4 active torsions:
REMARK  status: ('A' for Active; 'I' for Inactive)
REMARK    1  A    between atoms: C_1  and  C_2
REMARK    2  A    between atoms: C_2  and  O_3
REMARK    3  A    between atoms: O_3  and  C_4
REMARK    4  A    between atoms: C_4  and  C_5
REMARK                            x       y       z     vdW  Elec       q    Type
REMARK                         _______ _______ _______ _____ _____    ______ ____
ROOT
ATOM      1  C   UNL     1       0.229  10.803  20.125  0.00  0.00    +0.000 C 
ATOM      2  S   UNL     1      -0.594  10.331  21.717  0.00  0.00    +0.000 S 
ATOM      3  C   UNL     1      -1.141  11.916  22.283  0.00  0.00    +0.000 A 
ATOM      4  C   UNL     1      -2.280  11.926  23.102  0.00  0.00    +0.000 A 
ATOM      5  C   UNL     1      -2.705  13.102  23.707  0.00  0.00    +0.000 A 
ATOM      6  C   UNL     1      -1.980  14.269  23.513  0.00  0.00    +0.000 A 
ATOM      7  C   UNL     1      -0.844  14.264  22.691  0.00  0.00    +0.000 A 
ATOM      8  C   UNL     1      -0.418  13.091  22.043  0.00  0.00    +0.000 A 
ATOM      9  N   UNL     1       0.715  13.070  21.196  0.00  0.00    +0.000 N 
ATOM     10  C   UNL     1       1.077  12.075  20.361  0.00  0.00    +0.000 A 
ATOM     11  N   UNL     1       2.158  12.338  19.689  0.00  0.00    +0.000 NA
ATOM     12  O   UNL     1       2.574  13.622  20.121  0.00  0.00    +0.000 OA
ATOM     13  C   UNL     1       1.651  14.041  21.047  0.00  0.00    +0.000 A 
ATOM     14  O   UNL     1       1.749  15.116  21.619  0.00  0.00    +0.000 OA
ENDROOT
BRANCH   1  15
ATOM     15  C   UNL     1       1.100   9.633  19.590  0.00  0.00    +0.000 A 
ATOM     16  C   UNL     1       1.585   9.640  18.266  0.00  0.00    +0.000 A 
ATOM     17  C   UNL     1       2.280   8.544  17.739  0.00  0.00    +0.000 A 
ATOM     18  C   UNL     1       2.530   7.432  18.535  0.00  0.00    +0.000 A 
ATOM     19 BR   UNL     1       3.409   5.923  17.815  0.00  0.00    +0.000 Br
ATOM     20  C   UNL     1       2.128   7.423  19.864  0.00  0.00    +0.000 A 
ATOM     21  C   UNL     1       1.442   8.521  20.390  0.00  0.00    +0.000 A 
ENDBRANCH   1  15
BRANCH   1  22
ATOM     22  O   UNL     1      -0.752  11.241  19.146  0.00  0.00    +0.000 OA
BRANCH  22  24
ATOM     23  C   UNL     1      -2.083  10.579  17.265  0.00  0.00    +0.000 C 
ATOM     24  C   UNL     1      -1.672  10.248  18.689  0.00  0.00    +0.000 C 
ENDBRANCH  22  24
ENDBRANCH   1  22
TORSDOF 3
ENDMDL
MODEL 8
REMARK VINA RESULT:      -6.4      7.552     10.468
REMARK  Name = 
REMARK  4 active torsions:
REMARK  status: ('A' for Active; 'I' for Inactive)
REMARK    1  A    between atoms: C_1  and  C_2
REMARK    2  A    between atoms: C_2  and  O_3
REMARK    3  A    between atoms: O_3  and  C_4
REMARK    4  A    between atoms: C_4  and  C_5
REMARK                            x       y       z     vdW  Elec       q    Type
REMARK                         _______ _______ _______ _____ _____    ______ ____
ROOT
ATOM      1  C   UNL     1      -0.768  12.087  19.719  0.00  0.00    +0.000 C 
ATOM      2  S   UNL     1       0.701  11.782  18.631  0.00  0.00    +0.000 S 
ATOM      3  C   UNL     1       1.088  10.112  19.067  0.00  0.00    +0.000 A 
ATOM      4  C   UNL     1       1.719   9.340  18.080  0.00  0.00    +0.000 A 
ATOM      5  C   UNL     1       2.186   8.064  18.372  0.00  0.00    +0.000 A 
ATOM      6  C   UNL     1       2.044   7.564  19.658  0.00  0.00    +0.000 A 
ATOM      7  C   UNL     1       1.409   8.330  20.646  0.00  0.00    +0.000 A 
ATOM      8  C   UNL     1       0.899   9.609  20.361  0.00  0.00    +0.000 A 
ATOM      9  N   UNL     1       0.239  10.391  21.339  0.00  0.00    +0.000 N 
ATOM     10  C   UNL     1      -0.474  11.514  21.125  0.00  0.00    +0.000 A 
ATOM     11  N   UNL     1      -0.984  12.013  22.212  0.00  0.00    +0.000 NA
ATOM     12  O   UNL     1      -0.564  11.156  23.259  0.00  0.00    +0.000 OA
ATOM     13  C   UNL     1       0.184  10.163  22.676  0.00  0.00    +0.000 A 
ATOM     14  O   UNL     1       0.706   9.273  23.332  0.00  0.00    +0.000 OA
ENDROOT
BRANCH   1  15
ATOM     15  C   UNL     1      -1.098  13.604  19.783  0.00  0.00    +0.000 A 
ATOM     16  C   UNL     1      -0.299  14.547  19.104  0.00  0.00    +0.000 A 
ATOM     17  C   UNL     1      -0.522  15.923  19.241  0.00  0.00    +0.000 A 
ATOM     18  C   UNL     1      -1.567  16.382  20.034  0.00  0.00    +0.000 A 
ATOM     19 BR   UNL     1      -1.836  18.236  20.275  0.00  0.00    +0.000 Br
ATOM     20  C   UNL     1      -2.417  15.478  20.658  0.00  0.00    +0.000 A 
ATOM     21  C   UNL     1      -2.196  14.106  20.514  0.00  0.00    +0.000 A 
ENDBRANCH   1  15
BRANCH   1  22
ATOM     22  O   UNL     1      -1.909  11.302  19.278  0.00  0.00    +0.000 OA
BRANCH  22  24
ATOM     23  C   UNL     1      -2.865  10.018  17.493  0.00  0.00    +0.000 C 
ATOM     24  C   UNL     1      -2.182  11.318  17.875  0.00  0.00    +0.000 C 
ENDBRANCH  22  24
ENDBRANCH   1  22
TORSDOF 3
ENDMDL
MODEL 9
REMARK VINA RESULT:      -6.4      7.643     10.671
REMARK  Name = 
REMARK  4 active torsions:
REMARK  status: ('A' for Active; 'I' for Inactive)
REMARK    1  A    between atoms: C_1  and  C_2
REMARK    2  A    between atoms: C_2  and  O_3
REMARK    3  A    between atoms: O_3  and  C_4
REMARK    4  A    between atoms: C_4  and  C_5
REMARK                            x       y       z     vdW  Elec       q    Type
REMARK                         _______ _______ _______ _____ _____    ______ ____
ROOT
ATOM      1  C   UNL     1      -0.917  12.182  19.941  0.00  0.00    +0.000 C 
ATOM      2  S   UNL     1       0.523  12.057  18.782  0.00  0.00    +0.000 S 
ATOM      3  C   UNL     1       0.988  10.366  19.022  0.00  0.00    +0.000 A 
ATOM      4  C   UNL     1       1.613   9.731  17.938  0.00  0.00    +0.000 A 
ATOM      5  C   UNL     1       2.138   8.452  18.075  0.00  0.00    +0.000 A 
ATOM      6  C   UNL     1       2.059   7.811  19.303  0.00  0.00    +0.000 A 
ATOM      7  C   UNL     1       1.431   8.439  20.387  0.00  0.00    +0.000 A 
ATOM      8  C   UNL     1       0.864   9.720  20.259  0.00  0.00    +0.000 A 
ATOM      9  N   UNL     1       0.210  10.364  21.336  0.00  0.00    +0.000 N 
ATOM     10  C   UNL     1      -0.552  11.474  21.267  0.00  0.00    +0.000 A 
ATOM     11  N   UNL     1      -1.042  11.831  22.417  0.00  0.00    +0.000 NA
ATOM     12  O   UNL     1      -0.553  10.885  23.352  0.00  0.00    +0.000 OA
ATOM     13  C   UNL     1       0.211   9.992  22.641  0.00  0.00    +0.000 A 
ATOM     14  O   UNL     1       0.788   9.059  23.180  0.00  0.00    +0.000 OA
ENDROOT
BRANCH   1  15
ATOM     15  C   UNL     1      -1.301  13.668  20.180  0.00  0.00    +0.000 A 
ATOM     16  C   UNL     1      -2.547  14.010  20.746  0.00  0.00    +0.000 A 
ATOM     17  C   UNL     1      -2.948  15.347  20.868  0.00  0.00    +0.000 A 
ATOM     18  C   UNL     1      -2.099  16.368  20.454  0.00  0.00    +0.000 A 
ATOM     19 BR   UNL     1      -2.658  18.170  20.554  0.00  0.00    +0.000 Br
ATOM     20  C   UNL     1      -0.838  16.067  19.958  0.00  0.00    +0.000 A 
ATOM     21  C   UNL     1      -0.437  14.733  19.845  0.00  0.00    +0.000 A 
ENDBRANCH   1  15
BRANCH   1  22
ATOM     22  O   UNL     1      -2.042  11.402  19.454  0.00  0.00    +0.000 OA
BRANCH  22  24
ATOM     23  C   UNL     1      -2.446  10.038  17.523  0.00  0.00    +0.000 C 
ATOM     24  C   UNL     1      -2.282  11.454  18.045  0.00  0.00    +0.000 C 
ENDBRANCH  22  24
ENDBRANCH   1  22
TORSDOF 3
ENDMDL
