MODEL 1
REMARK VINA RESULT:      -8.5      0.000      0.000
REMARK  Name = 
REMARK  7 active torsions:
REMARK  status: ('A' for Active; 'I' for Inactive)
REMARK    1  A    between atoms: C_1  and  N_2
REMARK    2  A    between atoms: N_5  and  C_6
REMARK    3  A    between atoms: C_6  and  C_7
REMARK    4  A    between atoms: C_9  and  N_10
REMARK    5  A    between atoms: N_10  and  C_11
REMARK    6  A    between atoms: C_23  and  O_24
REMARK    7  A    between atoms: C_29  and  O_30
REMARK                            x       y       z     vdW  Elec       q    Type
REMARK                         _______ _______ _______ _____ _____    ______ ____
ROOT
ATOM      1  N   UNL     1       0.991  10.337  18.254  0.00  0.00    +0.000 N 
ATOM      2  H   UNL     1       1.857  10.815  18.021  0.00  0.00    +0.000 HD
ENDROOT
BRANCH   1   3
ATOM      3  C   UNL     1       0.045  11.260  18.827  0.00  0.00    +0.000 A 
ATOM      4  C   UNL     1      -1.353  11.131  18.566  0.00  0.00    +0.000 A 
ATOM      5  C   UNL     1      -1.942  10.133  17.742  0.00  0.00    +0.000 A 
ATOM      6  C   UNL     1      -3.309  10.096  17.489  0.00  0.00    +0.000 A 
ATOM      7  C   UNL     1      -4.115  11.086  18.025  0.00  0.00    +0.000 A 
ATOM      8 CL   UNL     1      -5.786  11.127  17.632  0.00  0.00    +0.000 Cl
ATOM      9  C   UNL     1      -3.568  12.060  18.852  0.00  0.00    +0.000 A 
ATOM     10  C   UNL     1      -2.208  12.089  19.143  0.00  0.00    +0.000 A 
ATOM     11  N   UNL     1      -1.776  13.053  19.967  0.00  0.00    +0.000 NA
ATOM     12  C   UNL     1      -0.471  13.192  20.195  0.00  0.00    +0.000 A 
ATOM     13  C   UNL     1      -0.078  14.211  21.062  0.00  0.00    +0.000 A 
ATOM     14  C   UNL     1       1.261  14.479  21.348  0.00  0.00    +0.000 A 
ATOM     15  C   UNL     1       2.231  13.729  20.716  0.00  0.00    +0.000 A 
ATOM     16  C   UNL     1       1.878  12.707  19.840  0.00  0.00    +0.000 A 
ATOM     17  C   UNL     1       0.516  12.372  19.604  0.00  0.00    +0.000 A 
BRANCH  15  18
ATOM     18  O   UNL     1       3.558  13.947  20.938  0.00  0.00    +0.000 OA
ATOM     19  H   UNL     1       3.713  14.905  21.000  0.00  0.00    +0.000 HD
ENDBRANCH  15  18
ENDBRANCH   1   3
BRANCH   1  22
ATOM     20  C   UNL     1       2.707   7.033  18.474  0.00  0.00    +0.000 A 
ATOM     21  C   UNL     1       2.165   8.229  17.970  0.00  0.00    +0.000 A 
ATOM     22  C   UNL     1       1.394   9.077  18.780  0.00  0.00    +0.000 A 
ATOM     23  C   UNL     1       1.157   8.713  20.110  0.00  0.00    +0.000 A 
ATOM     24  C   UNL     1       1.721   7.551  20.636  0.00  0.00    +0.000 A 
ATOM     25  C   UNL     1       2.520   6.744  19.830  0.00  0.00    +0.000 A 
BRANCH  25  26
ATOM     26  O   UNL     1       3.154   5.666  20.381  0.00  0.00    +0.000 OA
ATOM     27  H   UNL     1       4.009   5.963  20.735  0.00  0.00    +0.000 HD
ENDBRANCH  25  26
BRANCH  20  28
ATOM     28  C   UNL     1       3.424   6.061  17.557  0.00  0.00    +0.000 C 
BRANCH  28  33
ATOM     29  C   UNL     1       5.977   3.987  14.085  0.00  0.00    +0.000 C 
ATOM     30  N   UNL     1       6.068   4.593  15.409  0.00  0.00    +0.000 NA
ATOM     31  C   UNL     1       5.283   3.825  16.396  0.00  0.00    +0.000 C 
ATOM     32  C   UNL     1       5.284   4.482  17.796  0.00  0.00    +0.000 C 
ATOM     33  N   UNL     1       4.867   5.901  17.826  0.00  0.00    +0.000 NA
ATOM     34  C   UNL     1       5.663   6.626  16.804  0.00  0.00    +0.000 C 
ATOM     35  C   UNL     1       5.626   5.997  15.388  0.00  0.00    +0.000 C 
ENDBRANCH  28  33
ENDBRANCH  20  28
ENDBRANCH   1  22
TORSDOF 6
ENDMDL
MODEL 2
REMARK VINA RESULT:      -8.5      3.675      9.710
REMARK  Name = 
REMARK  7 active torsions:
REMARK  status: ('A' for Active; 'I' for Inactive)
REMARK    1  A    between atoms: C_1  and  N_2
REMARK    2  A    between atoms: N_5  and  C_6
REMARK    3  A    between atoms: C_6  and  C_7
REMARK    4  A    between atoms: C_9  and  N_10
REMARK    5  A    between atoms: N_10  and  C_11
REMARK    6  A    between atoms: C_23  and  O_24
REMARK    7  A    between atoms: C_29  and  O_30
REMARK                            x       y       z     vdW  Elec       q    Type
REMARK                         _______ _______ _______ _____ _____    ______ ____
ROOT
ATOM      1  N   UNL     1       3.544   6.595  19.221  0.00  0.00    +0.000 N 
ATOM      2  H   UNL     1       4.411   7.114  19.335  0.00  0.00    +0.000 HD
ENDROOT
BRANCH   1   3
ATOM      3  C   UNL     1       3.784   5.368  18.505  0.00  0.00    +0.000 A 
ATOM      4  C   UNL     1       4.700   5.326  17.410  0.00  0.00    +0.000 A 
ATOM      5  C   UNL     1       5.436   6.438  16.918  0.00  0.00    +0.000 A 
ATOM      6  C   UNL     1       6.275   6.339  15.813  0.00  0.00    +0.000 A 
ATOM      7  C   UNL     1       6.363   5.128  15.149  0.00  0.00    +0.000 A 
ATOM      8 CL   UNL     1       7.303   5.011  13.716  0.00  0.00    +0.000 Cl
ATOM      9  C   UNL     1       5.672   4.018  15.623  0.00  0.00    +0.000 A 
ATOM     10  C   UNL     1       4.857   4.094  16.748  0.00  0.00    +0.000 A 
ATOM     11  N   UNL     1       4.247   2.969  17.141  0.00  0.00    +0.000 NA
ATOM     12  C   UNL     1       3.375   3.007  18.148  0.00  0.00    +0.000 A 
ATOM     13  C   UNL     1       2.771   1.804  18.516  0.00  0.00    +0.000 A 
ATOM     14  C   UNL     1       1.813   1.725  19.527  0.00  0.00    +0.000 A 
ATOM     15  C   UNL     1       1.422   2.890  20.157  0.00  0.00    +0.000 A 
ATOM     16  C   UNL     1       1.999   4.108  19.812  0.00  0.00    +0.000 A 
ATOM     17  C   UNL     1       3.034   4.190  18.841  0.00  0.00    +0.000 A 
BRANCH  15  18
ATOM     18  O   UNL     1       0.482   2.886  21.142  0.00  0.00    +0.000 OA
ATOM     19  H   UNL     1       0.910   3.111  21.986  0.00  0.00    +0.000 HD
ENDBRANCH  15  18
ENDBRANCH   1   3
BRANCH   1  22
ATOM     20  C   UNL     1       0.858   9.115  19.807  0.00  0.00    +0.000 A 
ATOM     21  C   UNL     1       1.757   8.049  19.991  0.00  0.00    +0.000 A 
ATOM     22  C   UNL     1       2.557   7.580  18.938  0.00  0.00    +0.000 A 
ATOM     23  C   UNL     1       2.444   8.184  17.681  0.00  0.00    +0.000 A 
ATOM     24  C   UNL     1       1.588   9.268  17.492  0.00  0.00    +0.000 A 
ATOM     25  C   UNL     1       0.834   9.749  18.560  0.00  0.00    +0.000 A 
BRANCH  25  26
ATOM     26  O   UNL     1       0.078  10.875  18.393  0.00  0.00    +0.000 OA
ATOM     27  H   UNL     1       0.660  11.590  18.087  0.00  0.00    +0.000 HD
ENDBRANCH  25  26
BRANCH  20  28
ATOM     28  C   UNL     1      -0.095   9.524  20.913  0.00  0.00    +0.000 C 
BRANCH  28  33
ATOM     29  C   UNL     1      -2.614  13.251  22.538  0.00  0.00    +0.000 C 
ATOM     30  N   UNL     1      -1.382  12.493  22.726  0.00  0.00    +0.000 NA
ATOM     31  C   UNL     1      -0.529  12.564  21.524  0.00  0.00    +0.000 C 
ATOM     32  C   UNL     1       0.750  11.704  21.650  0.00  0.00    +0.000 C 
ATOM     33  N   UNL     1       0.523  10.288  22.015  0.00  0.00    +0.000 NA
ATOM     34  C   UNL     1      -0.356  10.267  23.211  0.00  0.00    +0.000 C 
ATOM     35  C   UNL     1      -1.662  11.089  23.071  0.00  0.00    +0.000 C 
ENDBRANCH  28  33
ENDBRANCH  20  28
ENDBRANCH   1  22
TORSDOF 6
ENDMDL
MODEL 3
REMARK VINA RESULT:      -8.4      2.380      3.913
REMARK  Name = 
REMARK  7 active torsions:
REMARK  status: ('A' for Active; 'I' for Inactive)
REMARK    1  A    between atoms: C_1  and  N_2
REMARK    2  A    between atoms: N_5  and  C_6
REMARK    3  A    between atoms: C_6  and  C_7
REMARK    4  A    between atoms: C_9  and  N_10
REMARK    5  A    between atoms: N_10  and  C_11
REMARK    6  A    between atoms: C_23  and  O_24
REMARK    7  A    between atoms: C_29  and  O_30
REMARK                            x       y       z     vdW  Elec       q    Type
REMARK                         _______ _______ _______ _____ _____    ______ ____
ROOT
ATOM      1  N   UNL     1       0.455  10.672  18.832  0.00  0.00    +0.000 N 
ATOM      2  H   UNL     1       1.185  11.324  19.108  0.00  0.00    +0.000 HD
ENDROOT
BRANCH   1   3
ATOM      3  C   UNL     1      -0.845  11.251  19.051  0.00  0.00    +0.000 A 
ATOM      4  C   UNL     1      -1.128  11.985  20.243  0.00  0.00    +0.000 A 
ATOM      5  C   UNL     1      -0.207  12.208  21.303  0.00  0.00    +0.000 A 
ATOM      6  C   UNL     1      -0.565  12.890  22.461  0.00  0.00    +0.000 A 
ATOM      7  C   UNL     1      -1.870  13.330  22.601  0.00  0.00    +0.000 A 
ATOM      8 CL   UNL     1      -2.363  14.072  24.069  0.00  0.00    +0.000 Cl
ATOM      9  C   UNL     1      -2.784  13.145  21.571  0.00  0.00    +0.000 A 
ATOM     10  C   UNL     1      -2.431  12.496  20.392  0.00  0.00    +0.000 A 
ATOM     11  N   UNL     1      -3.374  12.383  19.447  0.00  0.00    +0.000 NA
ATOM     12  C   UNL     1      -3.122  11.680  18.343  0.00  0.00    +0.000 A 
ATOM     13  C   UNL     1      -4.140  11.597  17.393  0.00  0.00    +0.000 A 
ATOM     14  C   UNL     1      -4.009  10.858  16.216  0.00  0.00    +0.000 A 
ATOM     15  C   UNL     1      -2.841  10.152  16.009  0.00  0.00    +0.000 A 
ATOM     16  C   UNL     1      -1.807  10.206  16.938  0.00  0.00    +0.000 A 
ATOM     17  C   UNL     1      -1.897  11.021  18.100  0.00  0.00    +0.000 A 
BRANCH  15  18
ATOM     18  O   UNL     1      -2.653   9.398  14.890  0.00  0.00    +0.000 OA
ATOM     19  H   UNL     1      -1.699   9.338  14.708  0.00  0.00    +0.000 HD
ENDBRANCH  15  18
ENDBRANCH   1   3
BRANCH   1  22
ATOM     20  C   UNL     1       2.288   7.424  18.788  0.00  0.00    +0.000 A 
ATOM     21  C   UNL     1       1.691   8.630  18.379  0.00  0.00    +0.000 A 
ATOM     22  C   UNL     1       0.916   9.396  19.263  0.00  0.00    +0.000 A 
ATOM     23  C   UNL     1       0.730   8.939  20.572  0.00  0.00    +0.000 A 
ATOM     24  C   UNL     1       1.349   7.766  21.005  0.00  0.00    +0.000 A 
ATOM     25  C   UNL     1       2.150   7.042  20.127  0.00  0.00    +0.000 A 
BRANCH  25  26
ATOM     26  O   UNL     1       2.836   5.953  20.588  0.00  0.00    +0.000 OA
ATOM     27  H   UNL     1       3.764   6.211  20.719  0.00  0.00    +0.000 HD
ENDBRANCH  25  26
BRANCH  20  28
ATOM     28  C   UNL     1       3.010   6.540  17.790  0.00  0.00    +0.000 C 
BRANCH  28  33
ATOM     29  C   UNL     1       5.541   4.317  14.395  0.00  0.00    +0.000 C 
ATOM     30  N   UNL     1       5.618   4.884  15.737  0.00  0.00    +0.000 NA
ATOM     31  C   UNL     1       4.720   4.170  16.664  0.00  0.00    +0.000 C 
ATOM     32  C   UNL     1       4.708   4.795  18.079  0.00  0.00    +0.000 C 
ATOM     33  N   UNL     1       4.417   6.246  18.125  0.00  0.00    +0.000 NA
ATOM     34  C   UNL     1       5.326   6.916  17.161  0.00  0.00    +0.000 C 
ATOM     35  C   UNL     1       5.305   6.323  15.729  0.00  0.00    +0.000 C 
ENDBRANCH  28  33
ENDBRANCH  20  28
ENDBRANCH   1  22
TORSDOF 6
ENDMDL
MODEL 4
REMARK VINA RESULT:      -8.0      0.830      1.266
REMARK  Name = 
REMARK  7 active torsions:
REMARK  status: ('A' for Active; 'I' for Inactive)
REMARK    1  A    between atoms: C_1  and  N_2
REMARK    2  A    between atoms: N_5  and  C_6
REMARK    3  A    between atoms: C_6  and  C_7
REMARK    4  A    between atoms: C_9  and  N_10
REMARK    5  A    between atoms: N_10  and  C_11
REMARK    6  A    between atoms: C_23  and  O_24
REMARK    7  A    between atoms: C_29  and  O_30
REMARK                            x       y       z     vdW  Elec       q    Type
REMARK                         _______ _______ _______ _____ _____    ______ ____
ROOT
ATOM      1  N   UNL     1       0.979  10.290  18.038  0.00  0.00    +0.000 N 
ATOM      2  H   UNL     1       1.812  10.789  17.738  0.00  0.00    +0.000 HD
ENDROOT
BRANCH   1   3
ATOM      3  C   UNL     1       0.046  11.197  18.658  0.00  0.00    +0.000 A 
ATOM      4  C   UNL     1      -1.360  11.056  18.449  0.00  0.00    +0.000 A 
ATOM      5  C   UNL     1      -1.969  10.062  17.636  0.00  0.00    +0.000 A 
ATOM      6  C   UNL     1      -3.345  10.013  17.434  0.00  0.00    +0.000 A 
ATOM      7  C   UNL     1      -4.139  10.989  18.012  0.00  0.00    +0.000 A 
ATOM      8 CL   UNL     1      -5.825  11.016  17.684  0.00  0.00    +0.000 Cl
ATOM      9  C   UNL     1      -3.571  11.958  18.830  0.00  0.00    +0.000 A 
ATOM     10  C   UNL     1      -2.202  11.998  19.069  0.00  0.00    +0.000 A 
ATOM     11  N   UNL     1      -1.749  12.957  19.888  0.00  0.00    +0.000 NA
ATOM     12  C   UNL     1      -0.437  13.106  20.068  0.00  0.00    +0.000 A 
ATOM     13  C   UNL     1      -0.022  14.120  20.932  0.00  0.00    +0.000 A 
ATOM     14  C   UNL     1       1.325  14.398  21.170  0.00  0.00    +0.000 A 
ATOM     15  C   UNL     1       2.278  13.666  20.492  0.00  0.00    +0.000 A 
ATOM     16  C   UNL     1       1.901  12.651  19.618  0.00  0.00    +0.000 A 
ATOM     17  C   UNL     1       0.535  12.304  19.430  0.00  0.00    +0.000 A 
BRANCH  15  18
ATOM     18  O   UNL     1       3.610  13.895  20.666  0.00  0.00    +0.000 OA
ATOM     19  H   UNL     1       3.789  13.998  21.617  0.00  0.00    +0.000 HD
ENDBRANCH  15  18
ENDBRANCH   1   3
BRANCH   1  22
ATOM     20  C   UNL     1       2.891   7.095  18.246  0.00  0.00    +0.000 A 
ATOM     21  C   UNL     1       2.280   8.259  17.747  0.00  0.00    +0.000 A 
ATOM     22  C   UNL     1       1.455   9.054  18.558  0.00  0.00    +0.000 A 
ATOM     23  C   UNL     1       1.234   8.667  19.885  0.00  0.00    +0.000 A 
ATOM     24  C   UNL     1       1.866   7.538  20.406  0.00  0.00    +0.000 A 
ATOM     25  C   UNL     1       2.716   6.787  19.599  0.00  0.00    +0.000 A 
BRANCH  25  26
ATOM     26  O   UNL     1       3.411   5.745  20.146  0.00  0.00    +0.000 OA
ATOM     27  H   UNL     1       4.357   5.882  19.966  0.00  0.00    +0.000 HD
ENDBRANCH  25  26
BRANCH  20  28
ATOM     28  C   UNL     1       3.669   6.174  17.326  0.00  0.00    +0.000 C 
BRANCH  28  33
ATOM     29  C   UNL     1       8.061   4.334  17.769  0.00  0.00    +0.000 C 
ATOM     30  N   UNL     1       7.282   5.365  17.092  0.00  0.00    +0.000 NA
ATOM     31  C   UNL     1       6.709   6.317  18.063  0.00  0.00    +0.000 C 
ATOM     32  C   UNL     1       5.804   7.377  17.393  0.00  0.00    +0.000 C 
ATOM     33  N   UNL     1       4.727   6.835  16.536  0.00  0.00    +0.000 NA
ATOM     34  C   UNL     1       5.345   5.867  15.595  0.00  0.00    +0.000 C 
ATOM     35  C   UNL     1       6.214   4.774  16.267  0.00  0.00    +0.000 C 
ENDBRANCH  28  33
ENDBRANCH  20  28
ENDBRANCH   1  22
TORSDOF 6
ENDMDL
MODEL 5
REMARK VINA RESULT:      -7.9      1.628      1.927
REMARK  Name = 
REMARK  7 active torsions:
REMARK  status: ('A' for Active; 'I' for Inactive)
REMARK    1  A    between atoms: C_1  and  N_2
REMARK    2  A    between atoms: N_5  and  C_6
REMARK    3  A    between atoms: C_6  and  C_7
REMARK    4  A    between atoms: C_9  and  N_10
REMARK    5  A    between atoms: N_10  and  C_11
REMARK    6  A    between atoms: C_23  and  O_24
REMARK    7  A    between atoms: C_29  and  O_30
REMARK                            x       y       z     vdW  Elec       q    Type
REMARK                         _______ _______ _______ _____ _____    ______ ____
ROOT
ATOM      1  N   UNL     1       0.621  10.538  19.432  0.00  0.00    +0.000 N 
ATOM      2  H   UNL     1       1.180  11.109  20.059  0.00  0.00    +0.000 HD
ENDROOT
BRANCH   1   3
ATOM      3  C   UNL     1      -0.720  11.056  19.341  0.00  0.00    +0.000 A 
ATOM      4  C   UNL     1      -1.559  10.726  18.233  0.00  0.00    +0.000 A 
ATOM      5  C   UNL     1      -1.181   9.897  17.141  0.00  0.00    +0.000 A 
ATOM      6  C   UNL     1      -2.032   9.657  16.067  0.00  0.00    +0.000 A 
ATOM      7  C   UNL     1      -3.269  10.277  16.044  0.00  0.00    +0.000 A 
ATOM      8 CL   UNL     1      -4.290  10.086  14.675  0.00  0.00    +0.000 Cl
ATOM      9  C   UNL     1      -3.673  11.073  17.110  0.00  0.00    +0.000 A 
ATOM     10  C   UNL     1      -2.847  11.293  18.207  0.00  0.00    +0.000 A 
ATOM     11  N   UNL     1      -3.329  12.058  19.195  0.00  0.00    +0.000 NA
ATOM     12  C   UNL     1      -2.543  12.388  20.220  0.00  0.00    +0.000 A 
ATOM     13  C   UNL     1      -3.099  13.186  21.220  0.00  0.00    +0.000 A 
ATOM     14  C   UNL     1      -2.364  13.628  22.321  0.00  0.00    +0.000 A 
ATOM     15  C   UNL     1      -1.027  13.294  22.398  0.00  0.00    +0.000 A 
ATOM     16  C   UNL     1      -0.437  12.504  21.415  0.00  0.00    +0.000 A 
ATOM     17  C   UNL     1      -1.195  11.981  20.332  0.00  0.00    +0.000 A 
BRANCH  15  18
ATOM     18  O   UNL     1      -0.248  13.704  23.437  0.00  0.00    +0.000 OA
ATOM     19  H   UNL     1      -0.748  14.349  23.969  0.00  0.00    +0.000 HD
ENDBRANCH  15  18
ENDBRANCH   1   3
BRANCH   1  22
ATOM     20  C   UNL     1       2.324   7.244  19.027  0.00  0.00    +0.000 A 
ATOM     21  C   UNL     1       1.794   8.519  18.759  0.00  0.00    +0.000 A 
ATOM     22  C   UNL     1       1.011   9.197  19.706  0.00  0.00    +0.000 A 
ATOM     23  C   UNL     1       0.748   8.579  20.934  0.00  0.00    +0.000 A 
ATOM     24  C   UNL     1       1.300   7.333  21.231  0.00  0.00    +0.000 A 
ATOM     25  C   UNL     1       2.111   6.696  20.296  0.00  0.00    +0.000 A 
BRANCH  25  26
ATOM     26  O   UNL     1       2.732   5.526  20.634  0.00  0.00    +0.000 OA
ATOM     27  H   UNL     1       3.016   5.589  21.562  0.00  0.00    +0.000 HD
ENDBRANCH  25  26
BRANCH  20  28
ATOM     28  C   UNL     1       3.055   6.468  17.948  0.00  0.00    +0.000 C 
BRANCH  28  33
ATOM     29  C   UNL     1       5.542   4.348  14.457  0.00  0.00    +0.000 C 
ATOM     30  N   UNL     1       5.626   4.840  15.827  0.00  0.00    +0.000 NA
ATOM     31  C   UNL     1       4.697   4.107  16.709  0.00  0.00    +0.000 C 
ATOM     32  C   UNL     1       4.692   4.655  18.155  0.00  0.00    +0.000 C 
ATOM     33  N   UNL     1       4.449   6.110  18.277  0.00  0.00    +0.000 NA
ATOM     34  C   UNL     1       5.387   6.802  17.357  0.00  0.00    +0.000 C 
ATOM     35  C   UNL     1       5.360   6.287  15.895  0.00  0.00    +0.000 C 
ENDBRANCH  28  33
ENDBRANCH  20  28
ENDBRANCH   1  22
TORSDOF 6
ENDMDL
MODEL 6
REMARK VINA RESULT:      -7.8      2.388      4.072
REMARK  Name = 
REMARK  7 active torsions:
REMARK  status: ('A' for Active; 'I' for Inactive)
REMARK    1  A    between atoms: C_1  and  N_2
REMARK    2  A    between atoms: N_5  and  C_6
REMARK    3  A    between atoms: C_6  and  C_7
REMARK    4  A    between atoms: C_9  and  N_10
REMARK    5  A    between atoms: N_10  and  C_11
REMARK    6  A    between atoms: C_23  and  O_24
REMARK    7  A    between atoms: C_29  and  O_30
REMARK                            x       y       z     vdW  Elec       q    Type
REMARK                         _______ _______ _______ _____ _____    ______ ____
ROOT
ATOM      1  N   UNL     1       1.216  10.569  18.320  0.00  0.00    +0.000 N 
ATOM      2  H   UNL     1       2.124  10.990  18.144  0.00  0.00    +0.000 HD
ENDROOT
BRANCH   1   3
ATOM      3  C   UNL     1       0.309  11.541  18.874  0.00  0.00    +0.000 A 
ATOM      4  C   UNL     1       0.795  12.627  19.665  0.00  0.00    +0.000 A 
ATOM      5  C   UNL     1       2.160  12.855  19.989  0.00  0.00    +0.000 A 
ATOM      6  C   UNL     1       2.559  13.906  20.809  0.00  0.00    +0.000 A 
ATOM      7  C   UNL     1       1.591  14.730  21.356  0.00  0.00    +0.000 A 
ATOM      8 CL   UNL     1       2.051  15.962  22.461  0.00  0.00    +0.000 Cl
ATOM      9  C   UNL     1       0.251  14.543  21.037  0.00  0.00    +0.000 A 
ATOM     10  C   UNL     1      -0.159  13.518  20.191  0.00  0.00    +0.000 A 
ATOM     11  N   UNL     1      -1.469  13.429  19.925  0.00  0.00    +0.000 NA
ATOM     12  C   UNL     1      -1.929  12.405  19.206  0.00  0.00    +0.000 A 
ATOM     13  C   UNL     1      -3.302  12.364  18.959  0.00  0.00    +0.000 A 
ATOM     14  C   UNL     1      -3.906  11.322  18.254  0.00  0.00    +0.000 A 
ATOM     15  C   UNL     1      -3.116  10.276  17.821  0.00  0.00    +0.000 A 
ATOM     16  C   UNL     1      -1.745  10.281  18.054  0.00  0.00    +0.000 A 
ATOM     17  C   UNL     1      -1.106  11.375  18.700  0.00  0.00    +0.000 A 
BRANCH  15  18
ATOM     18  O   UNL     1      -3.643   9.221  17.139  0.00  0.00    +0.000 OA
ATOM     19  H   UNL     1      -3.941   8.551  17.779  0.00  0.00    +0.000 HD
ENDBRANCH  15  18
ENDBRANCH   1   3
BRANCH   1  22
ATOM     20  C   UNL     1       2.711   7.158  18.538  0.00  0.00    +0.000 A 
ATOM     21  C   UNL     1       2.279   8.402  18.042  0.00  0.00    +0.000 A 
ATOM     22  C   UNL     1       1.503   9.270  18.826  0.00  0.00    +0.000 A 
ATOM     23  C   UNL     1       1.147   8.878  20.121  0.00  0.00    +0.000 A 
ATOM     24  C   UNL     1       1.601   7.666  20.642  0.00  0.00    +0.000 A 
ATOM     25  C   UNL     1       2.407   6.837  19.866  0.00  0.00    +0.000 A 
BRANCH  25  26
ATOM     26  O   UNL     1       2.933   5.704  20.420  0.00  0.00    +0.000 OA
ATOM     27  H   UNL     1       3.831   5.582  20.069  0.00  0.00    +0.000 HD
ENDBRANCH  25  26
BRANCH  20  28
ATOM     28  C   UNL     1       3.433   6.174  17.639  0.00  0.00    +0.000 C 
BRANCH  28  33
ATOM     29  C   UNL     1       6.318   4.039  14.478  0.00  0.00    +0.000 C 
ATOM     30  N   UNL     1       6.196   4.438  15.876  0.00  0.00    +0.000 NA
ATOM     31  C   UNL     1       5.066   3.746  16.525  0.00  0.00    +0.000 C 
ATOM     32  C   UNL     1       4.849   4.204  17.987  0.00  0.00    +0.000 C 
ATOM     33  N   UNL     1       4.711   5.665  18.175  0.00  0.00    +0.000 NA
ATOM     34  C   UNL     1       5.853   6.318  17.486  0.00  0.00    +0.000 C 
ATOM     35  C   UNL     1       6.044   5.897  16.006  0.00  0.00    +0.000 C 
ENDBRANCH  28  33
ENDBRANCH  20  28
ENDBRANCH   1  22
TORSDOF 6
ENDMDL
MODEL 7
REMARK VINA RESULT:      -7.7      4.055      7.623
REMARK  Name = 
REMARK  7 active torsions:
REMARK  status: ('A' for Active; 'I' for Inactive)
REMARK    1  A    between atoms: C_1  and  N_2
REMARK    2  A    between atoms: N_5  and  C_6
REMARK    3  A    between atoms: C_6  and  C_7
REMARK    4  A    between atoms: C_9  and  N_10
REMARK    5  A    between atoms: N_10  and  C_11
REMARK    6  A    between atoms: C_23  and  O_24
REMARK    7  A    between atoms: C_29  and  O_30
REMARK                            x       y       z     vdW  Elec       q    Type
REMARK                         _______ _______ _______ _____ _____    ______ ____
ROOT
ATOM      1  N   UNL     1       0.555  11.380  18.488  0.00  0.00    +0.000 N 
ATOM      2  H   UNL     1      -0.356  11.302  18.044  0.00  0.00    +0.000 HD
ENDROOT
BRANCH   1   3
ATOM      3  C   UNL     1       0.758  10.297  19.415  0.00  0.00    +0.000 A 
ATOM      4  C   UNL     1       1.538   9.157  19.050  0.00  0.00    +0.000 A 
ATOM      5  C   UNL     1       2.163   8.966  17.788  0.00  0.00    +0.000 A 
ATOM      6  C   UNL     1       2.867   7.806  17.480  0.00  0.00    +0.000 A 
ATOM      7  C   UNL     1       2.926   6.792  18.420  0.00  0.00    +0.000 A 
ATOM      8 CL   UNL     1       3.692   5.307  18.021  0.00  0.00    +0.000 Cl
ATOM      9  C   UNL     1       2.344   6.963  19.671  0.00  0.00    +0.000 A 
ATOM     10  C   UNL     1       1.667   8.132  20.005  0.00  0.00    +0.000 A 
ATOM     11  N   UNL     1       1.156   8.213  21.240  0.00  0.00    +0.000 NA
ATOM     12  C   UNL     1       0.409   9.264  21.578  0.00  0.00    +0.000 A 
ATOM     13  C   UNL     1      -0.096   9.297  22.878  0.00  0.00    +0.000 A 
ATOM     14  C   UNL     1      -0.923  10.324  23.336  0.00  0.00    +0.000 A 
ATOM     15  C   UNL     1      -1.283  11.322  22.453  0.00  0.00    +0.000 A 
ATOM     16  C   UNL     1      -0.803  11.318  21.147  0.00  0.00    +0.000 A 
ATOM     17  C   UNL     1       0.104  10.322  20.693  0.00  0.00    +0.000 A 
BRANCH  15  18
ATOM     18  O   UNL     1      -2.099  12.346  22.829  0.00  0.00    +0.000 OA
ATOM     19  H   UNL     1      -1.851  12.631  23.726  0.00  0.00    +0.000 HD
ENDBRANCH  15  18
ENDBRANCH   1   3
BRANCH   1  22
ATOM     20  C   UNL     1       2.274  14.613  19.201  0.00  0.00    +0.000 A 
ATOM     21  C   UNL     1       2.007  13.238  19.076  0.00  0.00    +0.000 A 
ATOM     22  C   UNL     1       0.728  12.771  18.735  0.00  0.00    +0.000 A 
ATOM     23  C   UNL     1      -0.298  13.699  18.527  0.00  0.00    +0.000 A 
ATOM     24  C   UNL     1      -0.041  15.068  18.606  0.00  0.00    +0.000 A 
ATOM     25  C   UNL     1       1.245  15.513  18.903  0.00  0.00    +0.000 A 
BRANCH  25  26
ATOM     26  O   UNL     1       1.513  16.854  18.876  0.00  0.00    +0.000 OA
ATOM     27  H   UNL     1       1.540  17.177  19.792  0.00  0.00    +0.000 HD
ENDBRANCH  25  26
BRANCH  20  28
ATOM     28  C   UNL     1       3.621  15.098  19.700  0.00  0.00    +0.000 C 
BRANCH  28  33
ATOM     29  C   UNL     1       8.240  14.284  18.765  0.00  0.00    +0.000 C 
ATOM     30  N   UNL     1       7.128  15.189  18.494  0.00  0.00    +0.000 NA
ATOM     31  C   UNL     1       6.663  15.839  19.734  0.00  0.00    +0.000 C 
ATOM     32  C   UNL     1       5.428  16.743  19.506  0.00  0.00    +0.000 C 
ATOM     33  N   UNL     1       4.285  16.088  18.830  0.00  0.00    +0.000 NA
ATOM     34  C   UNL     1       4.805  15.429  17.605  0.00  0.00    +0.000 C 
ATOM     35  C   UNL     1       6.012  14.485  17.838  0.00  0.00    +0.000 C 
ENDBRANCH  28  33
ENDBRANCH  20  28
ENDBRANCH   1  22
TORSDOF 6
ENDMDL
MODEL 8
REMARK VINA RESULT:      -7.7      1.521      1.820
REMARK  Name = 
REMARK  7 active torsions:
REMARK  status: ('A' for Active; 'I' for Inactive)
REMARK    1  A    between atoms: C_1  and  N_2
REMARK    2  A    between atoms: N_5  and  C_6
REMARK    3  A    between atoms: C_6  and  C_7
REMARK    4  A    between atoms: C_9  and  N_10
REMARK    5  A    between atoms: N_10  and  C_11
REMARK    6  A    between atoms: C_23  and  O_24
REMARK    7  A    between atoms: C_29  and  O_30
REMARK                            x       y       z     vdW  Elec       q    Type
REMARK                         _______ _______ _______ _____ _____    ______ ____
ROOT
ATOM      1  N   UNL     1       1.010  10.810  17.977  0.00  0.00    +0.000 N 
ATOM      2  H   UNL     1       1.760  10.963  17.310  0.00  0.00    +0.000 HD
ENDROOT
BRANCH   1   3
ATOM      3  C   UNL     1       0.648  12.046  18.621  0.00  0.00    +0.000 A 
ATOM      4  C   UNL     1      -0.667  12.243  19.142  0.00  0.00    +0.000 A 
ATOM      5  C   UNL     1      -1.722  11.293  19.077  0.00  0.00    +0.000 A 
ATOM      6  C   UNL     1      -2.997  11.570  19.559  0.00  0.00    +0.000 A 
ATOM      7  C   UNL     1      -3.255  12.825  20.082  0.00  0.00    +0.000 A 
ATOM      8 CL   UNL     1      -4.849  13.227  20.579  0.00  0.00    +0.000 Cl
ATOM      9  C   UNL     1      -2.235  13.765  20.179  0.00  0.00    +0.000 A 
ATOM     10  C   UNL     1      -0.947  13.490  19.733  0.00  0.00    +0.000 A 
ATOM     11  N   UNL     1      -0.026  14.450  19.886  0.00  0.00    +0.000 NA
ATOM     12  C   UNL     1       1.196  14.280  19.383  0.00  0.00    +0.000 A 
ATOM     13  C   UNL     1       2.115  15.312  19.573  0.00  0.00    +0.000 A 
ATOM     14  C   UNL     1       3.412  15.266  19.059  0.00  0.00    +0.000 A 
ATOM     15  C   UNL     1       3.781  14.174  18.300  0.00  0.00    +0.000 A 
ATOM     16  C   UNL     1       2.889  13.128  18.085  0.00  0.00    +0.000 A 
ATOM     17  C   UNL     1       1.593  13.126  18.671  0.00  0.00    +0.000 A 
BRANCH  15  18
ATOM     18  O   UNL     1       5.026  14.072  17.756  0.00  0.00    +0.000 OA
ATOM     19  H   UNL     1       4.939  13.942  16.796  0.00  0.00    +0.000 HD
ENDBRANCH  15  18
ENDBRANCH   1   3
BRANCH   1  22
ATOM     20  C   UNL     1       2.511   7.432  18.484  0.00  0.00    +0.000 A 
ATOM     21  C   UNL     1       2.057   8.619  17.880  0.00  0.00    +0.000 A 
ATOM     22  C   UNL     1       1.319   9.569  18.603  0.00  0.00    +0.000 A 
ATOM     23  C   UNL     1       1.025   9.317  19.948  0.00  0.00    +0.000 A 
ATOM     24  C   UNL     1       1.502   8.165  20.572  0.00  0.00    +0.000 A 
ATOM     25  C   UNL     1       2.270   7.255  19.850  0.00  0.00    +0.000 A 
BRANCH  25  26
ATOM     26  O   UNL     1       2.821   6.183  20.495  0.00  0.00    +0.000 OA
ATOM     27  H   UNL     1       3.787   6.234  20.400  0.00  0.00    +0.000 HD
ENDBRANCH  25  26
BRANCH  20  28
ATOM     28  C   UNL     1       3.189   6.356  17.660  0.00  0.00    +0.000 C 
BRANCH  28  33
ATOM     29  C   UNL     1       5.975   4.010  14.560  0.00  0.00    +0.000 C 
ATOM     30  N   UNL     1       5.905   4.517  15.926  0.00  0.00    +0.000 NA
ATOM     31  C   UNL     1       4.812   3.866  16.675  0.00  0.00    +0.000 C 
ATOM     32  C   UNL     1       4.648   4.436  18.103  0.00  0.00    +0.000 C 
ATOM     33  N   UNL     1       4.495   5.906  18.181  0.00  0.00    +0.000 NA
ATOM     34  C   UNL     1       5.598   6.515  17.395  0.00  0.00    +0.000 C 
ATOM     35  C   UNL     1       5.736   5.980  15.947  0.00  0.00    +0.000 C 
ENDBRANCH  28  33
ENDBRANCH  20  28
ENDBRANCH   1  22
TORSDOF 6
ENDMDL
MODEL 9
REMARK VINA RESULT:      -7.6      4.044      8.941
REMARK  Name = 
REMARK  7 active torsions:
REMARK  status: ('A' for Active; 'I' for Inactive)
REMARK    1  A    between atoms: C_1  and  N_2
REMARK    2  A    between atoms: N_5  and  C_6
REMARK    3  A    between atoms: C_6  and  C_7
REMARK    4  A    between atoms: C_9  and  N_10
REMARK    5  A    between atoms: N_10  and  C_11
REMARK    6  A    between atoms: C_23  and  O_24
REMARK    7  A    between atoms: C_29  and  O_30
REMARK                            x       y       z     vdW  Elec       q    Type
REMARK                         _______ _______ _______ _____ _____    ______ ____
ROOT
ATOM      1  N   UNL     1       0.687  11.531  18.559  0.00  0.00    +0.000 N 
ATOM      2  H   UNL     1      -0.280  11.834  18.488  0.00  0.00    +0.000 HD
ENDROOT
BRANCH   1   3
ATOM      3  C   UNL     1       0.801  10.416  19.464  0.00  0.00    +0.000 A 
ATOM      4  C   UNL     1       1.542   9.250  19.100  0.00  0.00    +0.000 A 
ATOM      5  C   UNL     1       2.211   9.062  17.861  0.00  0.00    +0.000 A 
ATOM      6  C   UNL     1       2.874   7.879  17.551  0.00  0.00    +0.000 A 
ATOM      7  C   UNL     1       2.846   6.839  18.464  0.00  0.00    +0.000 A 
ATOM      8 CL   UNL     1       3.559   5.331  18.057  0.00  0.00    +0.000 Cl
ATOM      9  C   UNL     1       2.219   7.006  19.693  0.00  0.00    +0.000 A 
ATOM     10  C   UNL     1       1.582   8.195  20.031  0.00  0.00    +0.000 A 
ATOM     11  N   UNL     1       1.023   8.270  21.246  0.00  0.00    +0.000 NA
ATOM     12  C   UNL     1       0.311   9.345  21.581  0.00  0.00    +0.000 A 
ATOM     13  C   UNL     1      -0.248   9.369  22.859  0.00  0.00    +0.000 A 
ATOM     14  C   UNL     1      -1.045  10.422  23.310  0.00  0.00    +0.000 A 
ATOM     15  C   UNL     1      -1.320  11.457  22.441  0.00  0.00    +0.000 A 
ATOM     16  C   UNL     1      -0.786  11.465  21.156  0.00  0.00    +0.000 A 
ATOM     17  C   UNL     1       0.094  10.439  20.714  0.00  0.00    +0.000 A 
BRANCH  15  18
ATOM     18  O   UNL     1      -2.104  12.509  22.811  0.00  0.00    +0.000 OA
ATOM     19  H   UNL     1      -1.531  13.266  23.027  0.00  0.00    +0.000 HD
ENDBRANCH  15  18
ENDBRANCH   1   3
BRANCH   1  22
ATOM     20  C   UNL     1       1.719  15.005  19.442  0.00  0.00    +0.000 A 
ATOM     21  C   UNL     1       0.954  13.836  19.279  0.00  0.00    +0.000 A 
ATOM     22  C   UNL     1       1.451  12.732  18.570  0.00  0.00    +0.000 A 
ATOM     23  C   UNL     1       2.731  12.808  18.008  0.00  0.00    +0.000 A 
ATOM     24  C   UNL     1       3.518  13.944  18.195  0.00  0.00    +0.000 A 
ATOM     25  C   UNL     1       3.025  15.012  18.939  0.00  0.00    +0.000 A 
BRANCH  25  26
ATOM     26  O   UNL     1       3.841  16.077  19.206  0.00  0.00    +0.000 OA
ATOM     27  H   UNL     1       4.659  15.740  19.607  0.00  0.00    +0.000 HD
ENDBRANCH  25  26
BRANCH  20  28
ATOM     28  C   UNL     1       1.122  16.237  20.093  0.00  0.00    +0.000 C 
BRANCH  28  33
ATOM     29  C   UNL     1      -2.890  18.530  18.860  0.00  0.00    +0.000 C 
ATOM     30  N   UNL     1      -1.434  18.592  18.795  0.00  0.00    +0.000 NA
ATOM     31  C   UNL     1      -0.892  17.454  18.027  0.00  0.00    +0.000 C 
ATOM     32  C   UNL     1       0.654  17.434  18.005  0.00  0.00    +0.000 C 
ATOM     33  N   UNL     1       1.304  17.490  19.334  0.00  0.00    +0.000 NA
ATOM     34  C   UNL     1       0.710  18.631  20.077  0.00  0.00    +0.000 C 
ATOM     35  C   UNL     1      -0.839  18.628  20.141  0.00  0.00    +0.000 C 
ENDBRANCH  28  33
ENDBRANCH  20  28
ENDBRANCH   1  22
TORSDOF 6
ENDMDL
