MODEL 1
REMARK VINA RESULT:      -6.9      0.000      0.000
REMARK  Name = 
REMARK  8 active torsions:
REMARK  status: ('A' for Active; 'I' for Inactive)
REMARK    1  A    between atoms: C_1  and  N_2
REMARK    2  A    between atoms: N_2  and  C_3
REMARK    3  A    between atoms: C_3  and  C_4
REMARK    4  A    between atoms: C_4  and  C_5
REMARK    5  A    between atoms: C_5  and  O_6
REMARK    6  A    between atoms: C_9  and  C_11
REMARK    7  A    between atoms: C_13  and  C_14
REMARK    8  A    between atoms: C_15  and  C_16
REMARK                            x       y       z     vdW  Elec       q    Type
REMARK                         _______ _______ _______ _____ _____    ______ ____
ROOT
ATOM      1  C   UNL     1       3.498   5.510  18.479  0.00  0.00    +0.000 A 
ATOM      2  C   UNL     1       4.872   5.283  18.394  0.00  0.00    +0.000 A 
ATOM      3  N   UNL     1       5.019   3.911  18.431  0.00  0.00    +0.000 N 
ATOM      4  C   UNL     1       3.806   3.273  18.500  0.00  0.00    +0.000 A 
ATOM      5  C   UNL     1       3.511   1.905  18.540  0.00  0.00    +0.000 A 
ATOM      6  F   UNL     1       4.497   0.996  18.524  0.00  0.00    +0.000 F 
ATOM      7  C   UNL     1       2.189   1.495  18.584  0.00  0.00    +0.000 A 
ATOM      8  C   UNL     1       1.186   2.447  18.578  0.00  0.00    +0.000 A 
ATOM      9  F   UNL     1      -0.095   2.054  18.606  0.00  0.00    +0.000 F 
ATOM     10  C   UNL     1       1.472   3.811  18.531  0.00  0.00    +0.000 A 
ATOM     11  C   UNL     1       2.815   4.254  18.513  0.00  0.00    +0.000 A 
ATOM     12  H   UNL     1       5.903   3.423  18.370  0.00  0.00    +0.000 HD
ENDROOT
BRANCH   2  13
ATOM     13  C   UNL     1       6.045   6.170  18.275  0.00  0.00    +0.000 A 
ATOM     14  C   UNL     1       6.037   7.259  17.383  0.00  0.00    +0.000 A 
ATOM     15  C   UNL     1       7.131   8.129  17.297  0.00  0.00    +0.000 A 
ATOM     16  C   UNL     1       8.251   7.904  18.084  0.00  0.00    +0.000 A 
ATOM     17  F   UNL     1       9.297   8.736  18.004  0.00  0.00    +0.000 F 
ATOM     18  C   UNL     1       8.293   6.833  18.963  0.00  0.00    +0.000 A 
ATOM     19  C   UNL     1       7.188   5.983  19.066  0.00  0.00    +0.000 A 
ENDBRANCH   2  13
BRANCH   1  22
ATOM     20  C   UNL     1       1.132   8.116  18.825  0.00  0.00    +0.000 C 
ATOM     21  C   UNL     1       1.574   7.169  17.676  0.00  0.00    +0.000 C 
ATOM     22  C   UNL     1       2.848   6.885  18.488  0.00  0.00    +0.000 C 
ATOM     23  C   UNL     1       2.018   7.226  19.750  0.00  0.00    +0.000 C 
BRANCH  20  26
ATOM     24  C   UNL     1       1.120  11.935  19.202  0.00  0.00    +0.000 C 
ATOM     25  N   UNL     1       0.627  10.568  19.195  0.00  0.00    +0.000 N 
ATOM     26  C   UNL     1       1.502   9.614  18.644  0.00  0.00    +0.000 C 
ATOM     27  O   UNL     1       2.516   9.971  18.027  0.00  0.00    +0.000 OA
BRANCH  25  28
ATOM     28  C   UNL     1      -0.475  10.185  20.082  0.00  0.00    +0.000 C 
BRANCH  28  29
ATOM     29  C   UNL     1      -0.213  10.332  21.571  0.00  0.00    +0.000 C 
ATOM     30  C   UNL     1      -0.344   9.052  22.384  0.00  0.00    +0.000 C 
ATOM     31  C   UNL     1       1.009   9.663  22.181  0.00  0.00    +0.000 C 
BRANCH  29  32
ATOM     32  C   UNL     1      -0.747  11.591  22.211  0.00  0.00    +0.000 C 
BRANCH  32  33
ATOM     33  O   UNL     1      -1.718  12.170  21.353  0.00  0.00    +0.000 OA
ATOM     34  H   UNL     1      -2.583  12.022  21.773  0.00  0.00    +0.000 HD
ENDBRANCH  32  33
ENDBRANCH  29  32
ENDBRANCH  28  29
ENDBRANCH  25  28
ENDBRANCH  20  26
ENDBRANCH   1  22
TORSDOF 7
ENDMDL
MODEL 2
REMARK VINA RESULT:      -6.8      7.359     10.186
REMARK  Name = 
REMARK  8 active torsions:
REMARK  status: ('A' for Active; 'I' for Inactive)
REMARK    1  A    between atoms: C_1  and  N_2
REMARK    2  A    between atoms: N_2  and  C_3
REMARK    3  A    between atoms: C_3  and  C_4
REMARK    4  A    between atoms: C_4  and  C_5
REMARK    5  A    between atoms: C_5  and  O_6
REMARK    6  A    between atoms: C_9  and  C_11
REMARK    7  A    between atoms: C_13  and  C_14
REMARK    8  A    between atoms: C_15  and  C_16
REMARK                            x       y       z     vdW  Elec       q    Type
REMARK                         _______ _______ _______ _____ _____    ______ ____
ROOT
ATOM      1  C   UNL     1      -2.029  12.473  19.498  0.00  0.00    +0.000 A 
ATOM      2  C   UNL     1      -3.073  12.722  20.390  0.00  0.00    +0.000 A 
ATOM      3  N   UNL     1      -4.220  12.332  19.728  0.00  0.00    +0.000 N 
ATOM      4  C   UNL     1      -3.940  11.822  18.485  0.00  0.00    +0.000 A 
ATOM      5  C   UNL     1      -4.802  11.306  17.510  0.00  0.00    +0.000 A 
ATOM      6  F   UNL     1      -6.126  11.271  17.723  0.00  0.00    +0.000 F 
ATOM      7  C   UNL     1      -4.276  10.819  16.326  0.00  0.00    +0.000 A 
ATOM      8  C   UNL     1      -2.907  10.844  16.134  0.00  0.00    +0.000 A 
ATOM      9  F   UNL     1      -2.392  10.361  14.995  0.00  0.00    +0.000 F 
ATOM     10  C   UNL     1      -2.041  11.350  17.104  0.00  0.00    +0.000 A 
ATOM     11  C   UNL     1      -2.558  11.877  18.310  0.00  0.00    +0.000 A 
ATOM     12  H   UNL     1      -5.153  12.371  20.118  0.00  0.00    +0.000 HD
ENDROOT
BRANCH   2  13
ATOM     13  C   UNL     1      -3.134  13.260  21.762  0.00  0.00    +0.000 A 
ATOM     14  C   UNL     1      -2.921  14.630  22.008  0.00  0.00    +0.000 A 
ATOM     15  C   UNL     1      -3.020  15.153  23.304  0.00  0.00    +0.000 A 
ATOM     16  C   UNL     1      -3.309  14.309  24.366  0.00  0.00    +0.000 A 
ATOM     17  F   UNL     1      -3.405  14.809  25.604  0.00  0.00    +0.000 F 
ATOM     18  C   UNL     1      -3.511  12.954  24.156  0.00  0.00    +0.000 A 
ATOM     19  C   UNL     1      -3.439  12.440  22.858  0.00  0.00    +0.000 A 
ENDBRANCH   2  13
BRANCH   1  22
ATOM     20  C   UNL     1       1.422  13.117  19.071  0.00  0.00    +0.000 C 
ATOM     21  C   UNL     1       0.546  11.845  19.238  0.00  0.00    +0.000 C 
ATOM     22  C   UNL     1      -0.563  12.759  19.783  0.00  0.00    +0.000 C 
ATOM     23  C   UNL     1       0.075  13.893  18.942  0.00  0.00    +0.000 C 
BRANCH  20  26
ATOM     24  C   UNL     1       4.324  14.580  21.113  0.00  0.00    +0.000 C 
ATOM     25  N   UNL     1       3.580  14.093  19.963  0.00  0.00    +0.000 N 
ATOM     26  C   UNL     1       2.367  13.444  20.260  0.00  0.00    +0.000 C 
ATOM     27  O   UNL     1       2.085  13.139  21.428  0.00  0.00    +0.000 OA
BRANCH  25  28
ATOM     28  C   UNL     1       3.863  14.630  18.629  0.00  0.00    +0.000 C 
BRANCH  28  29
ATOM     29  C   UNL     1       3.811  16.143  18.495  0.00  0.00    +0.000 C 
ATOM     30  C   UNL     1       2.905  16.666  17.391  0.00  0.00    +0.000 C 
ATOM     31  C   UNL     1       2.518  16.874  18.823  0.00  0.00    +0.000 C 
BRANCH  29  32
ATOM     32  C   UNL     1       5.122  16.864  18.687  0.00  0.00    +0.000 C 
BRANCH  32  33
ATOM     33  O   UNL     1       4.984  17.803  19.743  0.00  0.00    +0.000 OA
ATOM     34  H   UNL     1       4.481  18.554  19.384  0.00  0.00    +0.000 HD
ENDBRANCH  32  33
ENDBRANCH  29  32
ENDBRANCH  28  29
ENDBRANCH  25  28
ENDBRANCH  20  26
ENDBRANCH   1  22
TORSDOF 7
ENDMDL
MODEL 3
REMARK VINA RESULT:      -6.7      0.788      1.029
REMARK  Name = 
REMARK  8 active torsions:
REMARK  status: ('A' for Active; 'I' for Inactive)
REMARK    1  A    between atoms: C_1  and  N_2
REMARK    2  A    between atoms: N_2  and  C_3
REMARK    3  A    between atoms: C_3  and  C_4
REMARK    4  A    between atoms: C_4  and  C_5
REMARK    5  A    between atoms: C_5  and  O_6
REMARK    6  A    between atoms: C_9  and  C_11
REMARK    7  A    between atoms: C_13  and  C_14
REMARK    8  A    between atoms: C_15  and  C_16
REMARK                            x       y       z     vdW  Elec       q    Type
REMARK                         _______ _______ _______ _____ _____    ______ ____
ROOT
ATOM      1  C   UNL     1       3.494   5.554  18.458  0.00  0.00    +0.000 A 
ATOM      2  C   UNL     1       4.866   5.300  18.434  0.00  0.00    +0.000 A 
ATOM      3  N   UNL     1       4.987   3.929  18.534  0.00  0.00    +0.000 N 
ATOM      4  C   UNL     1       3.761   3.315  18.585  0.00  0.00    +0.000 A 
ATOM      5  C   UNL     1       3.440   1.955  18.672  0.00  0.00    +0.000 A 
ATOM      6  F   UNL     1       4.410   1.030  18.731  0.00  0.00    +0.000 F 
ATOM      7  C   UNL     1       2.111   1.568  18.683  0.00  0.00    +0.000 A 
ATOM      8  C   UNL     1       1.126   2.535  18.600  0.00  0.00    +0.000 A 
ATOM      9  F   UNL     1      -0.163   2.165  18.597  0.00  0.00    +0.000 F 
ATOM     10  C   UNL     1       1.437   3.892  18.506  0.00  0.00    +0.000 A 
ATOM     11  C   UNL     1       2.789   4.311  18.520  0.00  0.00    +0.000 A 
ATOM     12  H   UNL     1       5.864   3.425  18.528  0.00  0.00    +0.000 HD
ENDROOT
BRANCH   2  13
ATOM     13  C   UNL     1       6.059   6.162  18.321  0.00  0.00    +0.000 A 
ATOM     14  C   UNL     1       6.088   7.235  17.410  0.00  0.00    +0.000 A 
ATOM     15  C   UNL     1       7.201   8.082  17.330  0.00  0.00    +0.000 A 
ATOM     16  C   UNL     1       8.302   7.850  18.142  0.00  0.00    +0.000 A 
ATOM     17  F   UNL     1       9.365   8.660  18.067  0.00  0.00    +0.000 F 
ATOM     18  C   UNL     1       8.306   6.794  19.039  0.00  0.00    +0.000 A 
ATOM     19  C   UNL     1       7.183   5.967  19.137  0.00  0.00    +0.000 A 
ENDBRANCH   2  13
BRANCH   1  22
ATOM     20  C   UNL     1       1.235   8.252  18.802  0.00  0.00    +0.000 C 
ATOM     21  C   UNL     1       1.495   7.158  17.732  0.00  0.00    +0.000 C 
ATOM     22  C   UNL     1       2.869   6.938  18.384  0.00  0.00    +0.000 C 
ATOM     23  C   UNL     1       2.235   7.458  19.698  0.00  0.00    +0.000 C 
BRANCH  20  26
ATOM     24  C   UNL     1       1.615  12.070  18.879  0.00  0.00    +0.000 C 
ATOM     25  N   UNL     1       1.077  10.752  19.168  0.00  0.00    +0.000 N 
ATOM     26  C   UNL     1       1.593   9.705  18.382  0.00  0.00    +0.000 C 
ATOM     27  O   UNL     1       2.291   9.948  17.387  0.00  0.00    +0.000 OA
BRANCH  25  28
ATOM     28  C   UNL     1       0.406  10.501  20.447  0.00  0.00    +0.000 C 
BRANCH  28  29
ATOM     29  C   UNL     1      -0.702  11.470  20.820  0.00  0.00    +0.000 C 
ATOM     30  C   UNL     1      -1.138  11.429  22.277  0.00  0.00    +0.000 C 
ATOM     31  C   UNL     1      -0.394  12.624  21.763  0.00  0.00    +0.000 C 
BRANCH  29  32
ATOM     32  C   UNL     1      -1.797  11.643  19.796  0.00  0.00    +0.000 C 
BRANCH  32  33
ATOM     33  O   UNL     1      -1.704  12.943  19.233  0.00  0.00    +0.000 OA
ATOM     34  H   UNL     1      -0.802  13.259  19.409  0.00  0.00    +0.000 HD
ENDBRANCH  32  33
ENDBRANCH  29  32
ENDBRANCH  28  29
ENDBRANCH  25  28
ENDBRANCH  20  26
ENDBRANCH   1  22
TORSDOF 7
ENDMDL
MODEL 4
REMARK VINA RESULT:      -6.5      2.421      2.843
REMARK  Name = 
REMARK  8 active torsions:
REMARK  status: ('A' for Active; 'I' for Inactive)
REMARK    1  A    between atoms: C_1  and  N_2
REMARK    2  A    between atoms: N_2  and  C_3
REMARK    3  A    between atoms: C_3  and  C_4
REMARK    4  A    between atoms: C_4  and  C_5
REMARK    5  A    between atoms: C_5  and  O_6
REMARK    6  A    between atoms: C_9  and  C_11
REMARK    7  A    between atoms: C_13  and  C_14
REMARK    8  A    between atoms: C_15  and  C_16
REMARK                            x       y       z     vdW  Elec       q    Type
REMARK                         _______ _______ _______ _____ _____    ______ ____
ROOT
ATOM      1  C   UNL     1       3.856   4.927  18.701  0.00  0.00    +0.000 A 
ATOM      2  C   UNL     1       4.845   4.277  17.961  0.00  0.00    +0.000 A 
ATOM      3  N   UNL     1       5.043   3.069  18.599  0.00  0.00    +0.000 N 
ATOM      4  C   UNL     1       4.205   2.920  19.675  0.00  0.00    +0.000 A 
ATOM      5  C   UNL     1       4.072   1.851  20.570  0.00  0.00    +0.000 A 
ATOM      6  F   UNL     1       4.846   0.762  20.447  0.00  0.00    +0.000 F 
ATOM      7  C   UNL     1       3.125   1.920  21.577  0.00  0.00    +0.000 A 
ATOM      8  C   UNL     1       2.323   3.042  21.673  0.00  0.00    +0.000 A 
ATOM      9  F   UNL     1       1.395   3.108  22.639  0.00  0.00    +0.000 F 
ATOM     10  C   UNL     1       2.444   4.108  20.782  0.00  0.00    +0.000 A 
ATOM     11  C   UNL     1       3.423   4.070  19.761  0.00  0.00    +0.000 A 
ATOM     12  H   UNL     1       5.691   2.355  18.293  0.00  0.00    +0.000 HD
ENDROOT
BRANCH   2  13
ATOM     13  C   UNL     1       5.608   4.631  16.750  0.00  0.00    +0.000 A 
ATOM     14  C   UNL     1       6.746   5.457  16.832  0.00  0.00    +0.000 A 
ATOM     15  C   UNL     1       7.499   5.762  15.691  0.00  0.00    +0.000 A 
ATOM     16  C   UNL     1       7.110   5.263  14.456  0.00  0.00    +0.000 A 
ATOM     17  F   UNL     1       7.830   5.551  13.366  0.00  0.00    +0.000 F 
ATOM     18  C   UNL     1       5.988   4.457  14.343  0.00  0.00    +0.000 A 
ATOM     19  C   UNL     1       5.254   4.132  15.488  0.00  0.00    +0.000 A 
ENDBRANCH   2  13
BRANCH   1  22
ATOM     20  C   UNL     1       1.734   7.751  18.521  0.00  0.00    +0.000 C 
ATOM     21  C   UNL     1       1.972   6.489  17.648  0.00  0.00    +0.000 C 
ATOM     22  C   UNL     1       3.309   6.311  18.385  0.00  0.00    +0.000 C 
ATOM     23  C   UNL     1       2.659   7.062  19.572  0.00  0.00    +0.000 C 
BRANCH  20  26
ATOM     24  C   UNL     1       2.134  11.516  17.896  0.00  0.00    +0.000 C 
ATOM     25  N   UNL     1       1.535  10.267  18.335  0.00  0.00    +0.000 N 
ATOM     26  C   UNL     1       2.184   9.099  17.894  0.00  0.00    +0.000 C 
ATOM     27  O   UNL     1       3.066   9.158  17.025  0.00  0.00    +0.000 OA
BRANCH  25  28
ATOM     28  C   UNL     1       0.623  10.258  19.483  0.00  0.00    +0.000 C 
BRANCH  28  29
ATOM     29  C   UNL     1      -0.512  11.266  19.440  0.00  0.00    +0.000 C 
ATOM     30  C   UNL     1      -1.199  11.528  20.772  0.00  0.00    +0.000 C 
ATOM     31  C   UNL     1      -0.351  12.598  20.157  0.00  0.00    +0.000 C 
BRANCH  29  32
ATOM     32  C   UNL     1      -1.404  11.199  18.226  0.00  0.00    +0.000 C 
BRANCH  32  33
ATOM     33  O   UNL     1      -1.332  12.434  17.528  0.00  0.00    +0.000 OA
ATOM     34  H   UNL     1      -2.241  12.774  17.470  0.00  0.00    +0.000 HD
ENDBRANCH  32  33
ENDBRANCH  29  32
ENDBRANCH  28  29
ENDBRANCH  25  28
ENDBRANCH  20  26
ENDBRANCH   1  22
TORSDOF 7
ENDMDL
MODEL 5
REMARK VINA RESULT:      -6.4      7.631     10.231
REMARK  Name = 
REMARK  8 active torsions:
REMARK  status: ('A' for Active; 'I' for Inactive)
REMARK    1  A    between atoms: C_1  and  N_2
REMARK    2  A    between atoms: N_2  and  C_3
REMARK    3  A    between atoms: C_3  and  C_4
REMARK    4  A    between atoms: C_4  and  C_5
REMARK    5  A    between atoms: C_5  and  O_6
REMARK    6  A    between atoms: C_9  and  C_11
REMARK    7  A    between atoms: C_13  and  C_14
REMARK    8  A    between atoms: C_15  and  C_16
REMARK                            x       y       z     vdW  Elec       q    Type
REMARK                         _______ _______ _______ _____ _____    ______ ____
ROOT
ATOM      1  C   UNL     1      -2.161  12.487  19.460  0.00  0.00    +0.000 A 
ATOM      2  C   UNL     1      -3.227  12.723  20.328  0.00  0.00    +0.000 A 
ATOM      3  N   UNL     1      -4.352  12.300  19.649  0.00  0.00    +0.000 N 
ATOM      4  C   UNL     1      -4.037  11.782  18.418  0.00  0.00    +0.000 A 
ATOM      5  C   UNL     1      -4.868  11.236  17.433  0.00  0.00    +0.000 A 
ATOM      6  F   UNL     1      -6.195  11.175  17.621  0.00  0.00    +0.000 F 
ATOM      7  C   UNL     1      -4.309  10.747  16.265  0.00  0.00    +0.000 A 
ATOM      8  C   UNL     1      -2.937  10.799  16.100  0.00  0.00    +0.000 A 
ATOM      9  F   UNL     1      -2.389  10.314  14.977  0.00  0.00    +0.000 F 
ATOM     10  C   UNL     1      -2.101  11.335  17.080  0.00  0.00    +0.000 A 
ATOM     11  C   UNL     1      -2.653  11.865  18.270  0.00  0.00    +0.000 A 
ATOM     12  H   UNL     1      -5.293  12.323  20.020  0.00  0.00    +0.000 HD
ENDROOT
BRANCH   2  13
ATOM     13  C   UNL     1      -3.326  13.276  21.693  0.00  0.00    +0.000 A 
ATOM     14  C   UNL     1      -3.344  12.425  22.815  0.00  0.00    +0.000 A 
ATOM     15  C   UNL     1      -3.395  12.947  24.114  0.00  0.00    +0.000 A 
ATOM     16  C   UNL     1      -3.451  14.320  24.301  0.00  0.00    +0.000 A 
ATOM     17  F   UNL     1      -3.497  14.819  25.543  0.00  0.00    +0.000 F 
ATOM     18  C   UNL     1      -3.447  15.182  23.216  0.00  0.00    +0.000 A 
ATOM     19  C   UNL     1      -3.368  14.659  21.921  0.00  0.00    +0.000 A 
ENDBRANCH   2  13
BRANCH   1  22
ATOM     20  C   UNL     1       1.083  13.888  19.320  0.00  0.00    +0.000 C 
ATOM     21  C   UNL     1       0.389  12.643  18.705  0.00  0.00    +0.000 C 
ATOM     22  C   UNL     1      -0.707  12.807  19.770  0.00  0.00    +0.000 C 
ATOM     23  C   UNL     1      -0.342  14.312  19.791  0.00  0.00    +0.000 C 
BRANCH  20  26
ATOM     24  C   UNL     1       4.105  14.316  21.647  0.00  0.00    +0.000 C 
ATOM     25  N   UNL     1       3.240  14.502  20.495  0.00  0.00    +0.000 N 
ATOM     26  C   UNL     1       2.171  13.592  20.390  0.00  0.00    +0.000 C 
ATOM     27  O   UNL     1       2.122  12.591  21.119  0.00  0.00    +0.000 OA
BRANCH  25  28
ATOM     28  C   UNL     1       3.236  15.784  19.784  0.00  0.00    +0.000 C 
BRANCH  28  29
ATOM     29  C   UNL     1       3.936  15.799  18.435  0.00  0.00    +0.000 C 
ATOM     30  C   UNL     1       5.436  16.044  18.484  0.00  0.00    +0.000 C 
ATOM     31  C   UNL     1       4.922  14.692  18.096  0.00  0.00    +0.000 C 
BRANCH  29  32
ATOM     32  C   UNL     1       3.182  16.468  17.312  0.00  0.00    +0.000 C 
BRANCH  32  33
ATOM     33  O   UNL     1       2.460  17.575  17.833  0.00  0.00    +0.000 OA
ATOM     34  H   UNL     1       1.526  17.430  17.605  0.00  0.00    +0.000 HD
ENDBRANCH  32  33
ENDBRANCH  29  32
ENDBRANCH  28  29
ENDBRANCH  25  28
ENDBRANCH  20  26
ENDBRANCH   1  22
TORSDOF 7
ENDMDL
MODEL 6
REMARK VINA RESULT:      -6.4      0.821      1.135
REMARK  Name = 
REMARK  8 active torsions:
REMARK  status: ('A' for Active; 'I' for Inactive)
REMARK    1  A    between atoms: C_1  and  N_2
REMARK    2  A    between atoms: N_2  and  C_3
REMARK    3  A    between atoms: C_3  and  C_4
REMARK    4  A    between atoms: C_4  and  C_5
REMARK    5  A    between atoms: C_5  and  O_6
REMARK    6  A    between atoms: C_9  and  C_11
REMARK    7  A    between atoms: C_13  and  C_14
REMARK    8  A    between atoms: C_15  and  C_16
REMARK                            x       y       z     vdW  Elec       q    Type
REMARK                         _______ _______ _______ _____ _____    ______ ____
ROOT
ATOM      1  C   UNL     1       3.475   5.560  18.449  0.00  0.00    +0.000 A 
ATOM      2  C   UNL     1       4.850   5.329  18.404  0.00  0.00    +0.000 A 
ATOM      3  N   UNL     1       4.994   3.959  18.494  0.00  0.00    +0.000 N 
ATOM      4  C   UNL     1       3.779   3.325  18.557  0.00  0.00    +0.000 A 
ATOM      5  C   UNL     1       3.482   1.959  18.639  0.00  0.00    +0.000 A 
ATOM      6  F   UNL     1       4.467   1.050  18.677  0.00  0.00    +0.000 F 
ATOM      7  C   UNL     1       2.159   1.551  18.666  0.00  0.00    +0.000 A 
ATOM      8  C   UNL     1       1.158   2.503  18.602  0.00  0.00    +0.000 A 
ATOM      9  F   UNL     1      -0.125   2.112  18.614  0.00  0.00    +0.000 F 
ATOM     10  C   UNL     1       1.446   3.865  18.514  0.00  0.00    +0.000 A 
ATOM     11  C   UNL     1       2.790   4.306  18.512  0.00  0.00    +0.000 A 
ATOM     12  H   UNL     1       5.879   3.470  18.471  0.00  0.00    +0.000 HD
ENDROOT
BRANCH   2  13
ATOM     13  C   UNL     1       6.027   6.211  18.281  0.00  0.00    +0.000 A 
ATOM     14  C   UNL     1       6.009   7.319  17.413  0.00  0.00    +0.000 A 
ATOM     15  C   UNL     1       7.107   8.183  17.324  0.00  0.00    +0.000 A 
ATOM     16  C   UNL     1       8.241   7.935  18.085  0.00  0.00    +0.000 A 
ATOM     17  F   UNL     1       9.290   8.762  18.002  0.00  0.00    +0.000 F 
ATOM     18  C   UNL     1       8.292   6.845  18.939  0.00  0.00    +0.000 A 
ATOM     19  C   UNL     1       7.183   5.999  19.046  0.00  0.00    +0.000 A 
ENDBRANCH   2  13
BRANCH   1  22
ATOM     20  C   UNL     1       1.142   8.200  18.763  0.00  0.00    +0.000 C 
ATOM     21  C   UNL     1       1.491   7.156  17.667  0.00  0.00    +0.000 C 
ATOM     22  C   UNL     1       2.827   6.935  18.394  0.00  0.00    +0.000 C 
ATOM     23  C   UNL     1       2.102   7.386  19.685  0.00  0.00    +0.000 C 
BRANCH  20  26
ATOM     24  C   UNL     1       1.151  12.037  18.808  0.00  0.00    +0.000 C 
ATOM     25  N   UNL     1       0.661  10.677  18.956  0.00  0.00    +0.000 N 
ATOM     26  C   UNL     1       1.495   9.675  18.426  0.00  0.00    +0.000 C 
ATOM     27  O   UNL     1       2.460   9.972  17.707  0.00  0.00    +0.000 OA
BRANCH  25  28
ATOM     28  C   UNL     1      -0.371  10.377  19.952  0.00  0.00    +0.000 C 
BRANCH  28  29
ATOM     29  C   UNL     1      -0.039  10.748  21.387  0.00  0.00    +0.000 C 
ATOM     30  C   UNL     1      -0.210  12.220  21.734  0.00  0.00    +0.000 C 
ATOM     31  C   UNL     1      -1.154  11.211  22.313  0.00  0.00    +0.000 C 
BRANCH  29  32
ATOM     32  C   UNL     1       1.158  10.051  21.986  0.00  0.00    +0.000 C 
BRANCH  32  33
ATOM     33  O   UNL     1       0.842   9.639  23.307  0.00  0.00    +0.000 OA
ATOM     34  H   UNL     1       0.239   8.880  23.225  0.00  0.00    +0.000 HD
ENDBRANCH  32  33
ENDBRANCH  29  32
ENDBRANCH  28  29
ENDBRANCH  25  28
ENDBRANCH  20  26
ENDBRANCH   1  22
TORSDOF 7
ENDMDL
MODEL 7
REMARK VINA RESULT:      -6.4      4.794      9.713
REMARK  Name = 
REMARK  8 active torsions:
REMARK  status: ('A' for Active; 'I' for Inactive)
REMARK    1  A    between atoms: C_1  and  N_2
REMARK    2  A    between atoms: N_2  and  C_3
REMARK    3  A    between atoms: C_3  and  C_4
REMARK    4  A    between atoms: C_4  and  C_5
REMARK    5  A    between atoms: C_5  and  O_6
REMARK    6  A    between atoms: C_9  and  C_11
REMARK    7  A    between atoms: C_13  and  C_14
REMARK    8  A    between atoms: C_15  and  C_16
REMARK                            x       y       z     vdW  Elec       q    Type
REMARK                         _______ _______ _______ _____ _____    ______ ____
ROOT
ATOM      1  C   UNL     1      -1.611  11.499  19.498  0.00  0.00    +0.000 A 
ATOM      2  C   UNL     1      -2.721  11.652  18.666  0.00  0.00    +0.000 A 
ATOM      3  N   UNL     1      -3.604  12.442  19.375  0.00  0.00    +0.000 N 
ATOM      4  C   UNL     1      -3.085  12.817  20.589  0.00  0.00    +0.000 A 
ATOM      5  C   UNL     1      -3.640  13.619  21.594  0.00  0.00    +0.000 A 
ATOM      6  F   UNL     1      -4.866  14.142  21.447  0.00  0.00    +0.000 F 
ATOM      7  C   UNL     1      -2.906  13.882  22.738  0.00  0.00    +0.000 A 
ATOM      8  C   UNL     1      -1.635  13.352  22.861  0.00  0.00    +0.000 A 
ATOM      9  F   UNL     1      -0.915  13.614  23.961  0.00  0.00    +0.000 F 
ATOM     10  C   UNL     1      -1.073  12.557  21.862  0.00  0.00    +0.000 A 
ATOM     11  C   UNL     1      -1.815  12.254  20.696  0.00  0.00    +0.000 A 
ATOM     12  H   UNL     1      -4.504  12.751  19.034  0.00  0.00    +0.000 HD
ENDROOT
BRANCH   2  13
ATOM     13  C   UNL     1      -3.053  11.169  17.312  0.00  0.00    +0.000 A 
ATOM     14  C   UNL     1      -2.222  10.242  16.655  0.00  0.00    +0.000 A 
ATOM     15  C   UNL     1      -2.555   9.747  15.387  0.00  0.00    +0.000 A 
ATOM     16  C   UNL     1      -3.708  10.193  14.757  0.00  0.00    +0.000 A 
ATOM     17  F   UNL     1      -4.028   9.720  13.546  0.00  0.00    +0.000 F 
ATOM     18  C   UNL     1      -4.539  11.115  15.374  0.00  0.00    +0.000 A 
ATOM     19  C   UNL     1      -4.218  11.585  16.651  0.00  0.00    +0.000 A 
ENDBRANCH   2  13
BRANCH   1  22
ATOM     20  C   UNL     1       1.146   9.295  19.716  0.00  0.00    +0.000 C 
ATOM     21  C   UNL     1       0.917  10.810  19.973  0.00  0.00    +0.000 C 
ATOM     22  C   UNL     1      -0.373  10.690  19.147  0.00  0.00    +0.000 C 
ATOM     23  C   UNL     1      -0.404   9.200  19.569  0.00  0.00    +0.000 C 
BRANCH  20  26
ATOM     24  C   UNL     1       3.382   7.338  17.288  0.00  0.00    +0.000 C 
ATOM     25  N   UNL     1       2.745   7.730  18.534  0.00  0.00    +0.000 N 
ATOM     26  C   UNL     1       2.039   8.947  18.493  0.00  0.00    +0.000 C 
ATOM     27  O   UNL     1       2.148   9.707  17.521  0.00  0.00    +0.000 OA
BRANCH  25  28
ATOM     28  C   UNL     1       2.499   6.728  19.575  0.00  0.00    +0.000 C 
BRANCH  28  29
ATOM     29  C   UNL     1       2.587   5.276  19.137  0.00  0.00    +0.000 C 
ATOM     30  C   UNL     1       1.477   4.373  19.652  0.00  0.00    +0.000 C 
ATOM     31  C   UNL     1       1.531   4.718  18.195  0.00  0.00    +0.000 C 
BRANCH  29  32
ATOM     32  C   UNL     1       3.974   4.683  19.104  0.00  0.00    +0.000 C 
BRANCH  32  33
ATOM     33  O   UNL     1       4.829   5.456  19.934  0.00  0.00    +0.000 OA
ATOM     34  H   UNL     1       5.549   4.867  20.217  0.00  0.00    +0.000 HD
ENDBRANCH  32  33
ENDBRANCH  29  32
ENDBRANCH  28  29
ENDBRANCH  25  28
ENDBRANCH  20  26
ENDBRANCH   1  22
TORSDOF 7
ENDMDL
MODEL 8
REMARK VINA RESULT:      -6.4      6.640     11.014
REMARK  Name = 
REMARK  8 active torsions:
REMARK  status: ('A' for Active; 'I' for Inactive)
REMARK    1  A    between atoms: C_1  and  N_2
REMARK    2  A    between atoms: N_2  and  C_3
REMARK    3  A    between atoms: C_3  and  C_4
REMARK    4  A    between atoms: C_4  and  C_5
REMARK    5  A    between atoms: C_5  and  O_6
REMARK    6  A    between atoms: C_9  and  C_11
REMARK    7  A    between atoms: C_13  and  C_14
REMARK    8  A    between atoms: C_15  and  C_16
REMARK                            x       y       z     vdW  Elec       q    Type
REMARK                         _______ _______ _______ _____ _____    ______ ____
ROOT
ATOM      1  C   UNL     1      -3.002  13.563  22.877  0.00  0.00    +0.000 A 
ATOM      2  C   UNL     1      -1.718  13.050  23.071  0.00  0.00    +0.000 A 
ATOM      3  N   UNL     1      -1.114  13.908  23.967  0.00  0.00    +0.000 N 
ATOM      4  C   UNL     1      -1.966  14.907  24.367  0.00  0.00    +0.000 A 
ATOM      5  C   UNL     1      -1.757  15.960  25.266  0.00  0.00    +0.000 A 
ATOM      6  F   UNL     1      -0.572  16.108  25.876  0.00  0.00    +0.000 F 
ATOM      7  C   UNL     1      -2.791  16.841  25.532  0.00  0.00    +0.000 A 
ATOM      8  C   UNL     1      -4.012  16.658  24.910  0.00  0.00    +0.000 A 
ATOM      9  F   UNL     1      -5.020  17.501  25.176  0.00  0.00    +0.000 F 
ATOM     10  C   UNL     1      -4.230  15.608  24.018  0.00  0.00    +0.000 A 
ATOM     11  C   UNL     1      -3.180  14.710  23.711  0.00  0.00    +0.000 A 
ATOM     12  H   UNL     1      -0.175  13.799  24.327  0.00  0.00    +0.000 HD
ENDROOT
BRANCH   2  13
ATOM     13  C   UNL     1      -1.000  11.875  22.541  0.00  0.00    +0.000 A 
ATOM     14  C   UNL     1      -0.202  11.980  21.385  0.00  0.00    +0.000 A 
ATOM     15  C   UNL     1       0.516  10.878  20.903  0.00  0.00    +0.000 A 
ATOM     16  C   UNL     1       0.425   9.658  21.557  0.00  0.00    +0.000 A 
ATOM     17  F   UNL     1       1.112   8.606  21.097  0.00  0.00    +0.000 F 
ATOM     18  C   UNL     1      -0.362   9.522  22.690  0.00  0.00    +0.000 A 
ATOM     19  C   UNL     1      -1.056  10.631  23.185  0.00  0.00    +0.000 A 
ENDBRANCH   2  13
BRANCH   1  22
ATOM     20  C   UNL     1      -5.261  13.086  20.198  0.00  0.00    +0.000 C 
ATOM     21  C   UNL     1      -5.348  13.699  21.622  0.00  0.00    +0.000 C 
ATOM     22  C   UNL     1      -4.044  12.954  21.952  0.00  0.00    +0.000 C 
ATOM     23  C   UNL     1      -3.721  13.024  20.439  0.00  0.00    +0.000 C 
BRANCH  20  26
ATOM     24  C   UNL     1      -6.551   9.840  18.608  0.00  0.00    +0.000 C 
ATOM     25  N   UNL     1      -6.002  11.182  18.704  0.00  0.00    +0.000 N 
ATOM     26  C   UNL     1      -6.043  11.760  19.986  0.00  0.00    +0.000 C 
ATOM     27  O   UNL     1      -6.695  11.229  20.897  0.00  0.00    +0.000 OA
BRANCH  25  28
ATOM     28  C   UNL     1      -5.099  11.679  17.661  0.00  0.00    +0.000 C 
BRANCH  28  29
ATOM     29  C   UNL     1      -3.987  10.735  17.238  0.00  0.00    +0.000 C 
ATOM     30  C   UNL     1      -2.677  10.894  17.995  0.00  0.00    +0.000 C 
ATOM     31  C   UNL     1      -3.509   9.666  18.209  0.00  0.00    +0.000 C 
BRANCH  29  32
ATOM     32  C   UNL     1      -3.879  10.469  15.756  0.00  0.00    +0.000 C 
BRANCH  32  33
ATOM     33  O   UNL     1      -3.416  11.644  15.108  0.00  0.00    +0.000 OA
ATOM     34  H   UNL     1      -4.180  12.243  15.038  0.00  0.00    +0.000 HD
ENDBRANCH  32  33
ENDBRANCH  29  32
ENDBRANCH  28  29
ENDBRANCH  25  28
ENDBRANCH  20  26
ENDBRANCH   1  22
TORSDOF 7
ENDMDL
MODEL 9
REMARK VINA RESULT:      -6.4      7.228      9.275
REMARK  Name = 
REMARK  8 active torsions:
REMARK  status: ('A' for Active; 'I' for Inactive)
REMARK    1  A    between atoms: C_1  and  N_2
REMARK    2  A    between atoms: N_2  and  C_3
REMARK    3  A    between atoms: C_3  and  C_4
REMARK    4  A    between atoms: C_4  and  C_5
REMARK    5  A    between atoms: C_5  and  O_6
REMARK    6  A    between atoms: C_9  and  C_11
REMARK    7  A    between atoms: C_13  and  C_14
REMARK    8  A    between atoms: C_15  and  C_16
REMARK                            x       y       z     vdW  Elec       q    Type
REMARK                         _______ _______ _______ _____ _____    ______ ____
ROOT
ATOM      1  C   UNL     1      -2.189  12.720  19.654  0.00  0.00    +0.000 A 
ATOM      2  C   UNL     1      -1.198  12.690  18.672  0.00  0.00    +0.000 A 
ATOM      3  N   UNL     1      -1.787  12.091  17.576  0.00  0.00    +0.000 N 
ATOM      4  C   UNL     1      -3.101  11.778  17.814  0.00  0.00    +0.000 A 
ATOM      5  C   UNL     1      -4.050  11.183  16.974  0.00  0.00    +0.000 A 
ATOM      6  F   UNL     1      -3.718  10.815  15.728  0.00  0.00    +0.000 F 
ATOM      7  C   UNL     1      -5.341  10.988  17.436  0.00  0.00    +0.000 A 
ATOM      8  C   UNL     1      -5.668  11.395  18.716  0.00  0.00    +0.000 A 
ATOM      9  F   UNL     1      -6.921  11.221  19.162  0.00  0.00    +0.000 F 
ATOM     10  C   UNL     1      -4.731  11.995  19.557  0.00  0.00    +0.000 A 
ATOM     11  C   UNL     1      -3.399  12.179  19.115  0.00  0.00    +0.000 A 
ATOM     12  H   UNL     1      -1.329  11.937  16.688  0.00  0.00    +0.000 HD
ENDROOT
BRANCH   2  13
ATOM     13  C   UNL     1       0.203  13.151  18.625  0.00  0.00    +0.000 A 
ATOM     14  C   UNL     1       0.515  14.519  18.741  0.00  0.00    +0.000 A 
ATOM     15  C   UNL     1       1.845  14.957  18.740  0.00  0.00    +0.000 A 
ATOM     16  C   UNL     1       2.873  14.035  18.600  0.00  0.00    +0.000 A 
ATOM     17  F   UNL     1       4.144  14.453  18.601  0.00  0.00    +0.000 F 
ATOM     18  C   UNL     1       2.595  12.683  18.472  0.00  0.00    +0.000 A 
ATOM     19  C   UNL     1       1.267  12.246  18.501  0.00  0.00    +0.000 A 
ENDBRANCH   2  13
BRANCH   1  22
ATOM     20  C   UNL     1      -2.697  13.505  23.064  0.00  0.00    +0.000 C 
ATOM     21  C   UNL     1      -3.080  14.161  21.709  0.00  0.00    +0.000 C 
ATOM     22  C   UNL     1      -2.002  13.283  21.054  0.00  0.00    +0.000 C 
ATOM     23  C   UNL     1      -2.230  12.283  22.214  0.00  0.00    +0.000 C 
BRANCH  20  26
ATOM     24  C   UNL     1      -1.133  15.692  25.803  0.00  0.00    +0.000 C 
ATOM     25  N   UNL     1      -2.132  15.168  24.887  0.00  0.00    +0.000 N 
ATOM     26  C   UNL     1      -1.648  14.276  23.912  0.00  0.00    +0.000 C 
ATOM     27  O   UNL     1      -0.429  14.133  23.738  0.00  0.00    +0.000 OA
BRANCH  25  28
ATOM     28  C   UNL     1      -3.552  15.226  25.245  0.00  0.00    +0.000 C 
BRANCH  28  29
ATOM     29  C   UNL     1      -4.372  16.297  24.546  0.00  0.00    +0.000 C 
ATOM     30  C   UNL     1      -4.425  17.641  25.256  0.00  0.00    +0.000 C 
ATOM     31  C   UNL     1      -3.667  17.515  23.970  0.00  0.00    +0.000 C 
BRANCH  29  32
ATOM     32  C   UNL     1      -5.653  15.827  23.901  0.00  0.00    +0.000 C 
BRANCH  32  33
ATOM     33  O   UNL     1      -5.915  14.492  24.309  0.00  0.00    +0.000 OA
ATOM     34  H   UNL     1      -6.856  14.454  24.549  0.00  0.00    +0.000 HD
ENDBRANCH  32  33
ENDBRANCH  29  32
ENDBRANCH  28  29
ENDBRANCH  25  28
ENDBRANCH  20  26
ENDBRANCH   1  22
TORSDOF 7
ENDMDL
