MODEL 1
REMARK VINA RESULT:      -8.8      0.000      0.000
REMARK  Name = 
REMARK  3 active torsions:
REMARK  status: ('A' for Active; 'I' for Inactive)
REMARK    1  A    between atoms: C_2  and  C_22
REMARK    2  A    between atoms: N_3  and  C_4
REMARK    3  A    between atoms: C_7  and  C_8
REMARK                            x       y       z     vdW  Elec       q    Type
REMARK                         _______ _______ _______ _____ _____    ______ ____
ROOT
ATOM      1  C   UNL     1       0.182   9.679  20.675  0.00  0.00    +0.000 A 
ATOM      2  C   UNL     1       0.786   8.558  21.246  0.00  0.00    +0.000 A 
ATOM      3  C   UNL     1       1.603   7.728  20.485  0.00  0.00    +0.000 A 
ATOM      4  C   UNL     1       1.829   7.977  19.125  0.00  0.00    +0.000 A 
ATOM      5  C   UNL     1       1.198   9.095  18.553  0.00  0.00    +0.000 A 
ATOM      6  C   UNL     1       0.371   9.931  19.316  0.00  0.00    +0.000 A 
ENDROOT
BRANCH   4   7
ATOM      7  C   UNL     1       2.713   7.103  18.349  0.00  0.00    +0.000 A 
ATOM      8  C   UNL     1       2.573   5.724  18.338  0.00  0.00    +0.000 A 
ATOM      9  C   UNL     1       3.515   4.955  17.662  0.00  0.00    +0.000 A 
ATOM     10  C   UNL     1       4.582   5.561  17.021  0.00  0.00    +0.000 A 
ATOM     11  N   UNL     1       5.586   4.787  16.458  0.00  0.00    +0.000 N 
ATOM     12  C   UNL     1       6.920   5.372  16.321  0.00  0.00    +0.000 C 
ATOM     13  C   UNL     1       7.239   5.683  14.866  0.00  0.00    +0.000 C 
ATOM     14  C   UNL     1       7.011   4.456  13.990  0.00  0.00    +0.000 C 
ATOM     15  C   UNL     1       5.579   3.957  14.140  0.00  0.00    +0.000 C 
ATOM     16  C   UNL     1       5.242   3.657  15.599  0.00  0.00    +0.000 C 
ATOM     17  N   UNL     1       4.669   6.912  17.029  0.00  0.00    +0.000 NA
ATOM     18  N   UNL     1       3.726   7.690  17.680  0.00  0.00    +0.000 NA
ENDBRANCH   4   7
BRANCH   1  21
ATOM     19  O   UNL     1       0.908  12.315  21.647  0.00  0.00    +0.000 OA
ATOM     20  C   UNL     1      -0.176  11.792  21.887  0.00  0.00    +0.000 C 
ATOM     21  N   UNL     1      -0.615  10.571  21.419  0.00  0.00    +0.000 N 
ATOM     22  H   UNL     1      -1.598  10.353  21.502  0.00  0.00    +0.000 HD
BRANCH  20  23
ATOM     23  C   UNL     1      -1.095  12.547  22.767  0.00  0.00    +0.000 A 
ATOM     24  C   UNL     1      -0.977  13.942  22.959  0.00  0.00    +0.000 A 
ATOM     25  C   UNL     1      -2.044  14.665  23.507  0.00  0.00    +0.000 A 
ATOM     26  C   UNL     1      -3.199  13.968  23.788  0.00  0.00    +0.000 A 
ATOM     27  C   UNL     1      -3.277  12.600  23.656  0.00  0.00    +0.000 A 
ATOM     28  C   UNL     1      -2.233  11.851  23.192  0.00  0.00    +0.000 A 
ATOM     29  O   UNL     1      -4.535  12.129  23.891  0.00  0.00    +0.000 OA
ATOM     30  C   UNL     1      -5.255  13.369  23.808  0.00  0.00    +0.000 C 
ATOM     31  O   UNL     1      -4.412  14.510  24.095  0.00  0.00    +0.000 OA
ENDBRANCH  20  23
ENDBRANCH   1  21
TORSDOF 3
ENDMDL
MODEL 2
REMARK VINA RESULT:      -8.6      1.207      1.774
REMARK  Name = 
REMARK  3 active torsions:
REMARK  status: ('A' for Active; 'I' for Inactive)
REMARK    1  A    between atoms: C_2  and  C_22
REMARK    2  A    between atoms: N_3  and  C_4
REMARK    3  A    between atoms: C_7  and  C_8
REMARK                            x       y       z     vdW  Elec       q    Type
REMARK                         _______ _______ _______ _____ _____    ______ ____
ROOT
ATOM      1  C   UNL     1      -0.632  10.636  20.995  0.00  0.00    +0.000 A 
ATOM      2  C   UNL     1      -0.122  10.817  19.708  0.00  0.00    +0.000 A 
ATOM      3  C   UNL     1       0.778   9.904  19.168  0.00  0.00    +0.000 A 
ATOM      4  C   UNL     1       1.215   8.791  19.899  0.00  0.00    +0.000 A 
ATOM      5  C   UNL     1       0.714   8.631  21.203  0.00  0.00    +0.000 A 
ATOM      6  C   UNL     1      -0.190   9.550  21.752  0.00  0.00    +0.000 A 
ENDROOT
BRANCH   4   7
ATOM      7  C   UNL     1       2.146   7.830  19.301  0.00  0.00    +0.000 A 
ATOM      8  C   UNL     1       2.526   6.663  19.944  0.00  0.00    +0.000 A 
ATOM      9  C   UNL     1       3.493   5.854  19.359  0.00  0.00    +0.000 A 
ATOM     10  C   UNL     1       4.075   6.217  18.157  0.00  0.00    +0.000 A 
ATOM     11  N   UNL     1       5.129   5.477  17.641  0.00  0.00    +0.000 N 
ATOM     12  C   UNL     1       6.078   6.145  16.752  0.00  0.00    +0.000 C 
ATOM     13  C   UNL     1       5.903   5.686  15.312  0.00  0.00    +0.000 C 
ATOM     14  C   UNL     1       5.941   4.164  15.222  0.00  0.00    +0.000 C 
ATOM     15  C   UNL     1       4.874   3.554  16.123  0.00  0.00    +0.000 C 
ATOM     16  C   UNL     1       5.030   4.021  17.569  0.00  0.00    +0.000 C 
ATOM     17  N   UNL     1       3.657   7.351  17.544  0.00  0.00    +0.000 NA
ATOM     18  N   UNL     1       2.680   8.154  18.106  0.00  0.00    +0.000 NA
ENDBRANCH   4   7
BRANCH   1  21
ATOM     19  O   UNL     1      -0.182  12.653  23.033  0.00  0.00    +0.000 OA
ATOM     20  C   UNL     1      -1.293  12.412  22.568  0.00  0.00    +0.000 C 
ATOM     21  N   UNL     1      -1.579  11.510  21.564  0.00  0.00    +0.000 N 
ATOM     22  H   UNL     1      -2.485  11.562  21.119  0.00  0.00    +0.000 HD
BRANCH  20  23
ATOM     23  C   UNL     1      -2.429  13.160  23.147  0.00  0.00    +0.000 A 
ATOM     24  C   UNL     1      -2.693  14.508  22.814  0.00  0.00    +0.000 A 
ATOM     25  C   UNL     1      -3.943  15.068  23.102  0.00  0.00    +0.000 A 
ATOM     26  C   UNL     1      -4.891  14.239  23.660  0.00  0.00    +0.000 A 
ATOM     27  C   UNL     1      -4.601  12.948  24.038  0.00  0.00    +0.000 A 
ATOM     28  C   UNL     1      -3.371  12.388  23.839  0.00  0.00    +0.000 A 
ATOM     29  O   UNL     1      -5.705  12.277  24.475  0.00  0.00    +0.000 OA
ATOM     30  C   UNL     1      -6.717  13.164  23.974  0.00  0.00    +0.000 C 
ATOM     31  O   UNL     1      -6.220  14.512  23.795  0.00  0.00    +0.000 OA
ENDBRANCH  20  23
ENDBRANCH   1  21
TORSDOF 3
ENDMDL
MODEL 3
REMARK VINA RESULT:      -8.6      3.588     11.687
REMARK  Name = 
REMARK  3 active torsions:
REMARK  status: ('A' for Active; 'I' for Inactive)
REMARK    1  A    between atoms: C_2  and  C_22
REMARK    2  A    between atoms: N_3  and  C_4
REMARK    3  A    between atoms: C_7  and  C_8
REMARK                            x       y       z     vdW  Elec       q    Type
REMARK                         _______ _______ _______ _____ _____    ______ ____
ROOT
ATOM      1  C   UNL     1       1.662   8.292  19.781  0.00  0.00    +0.000 A 
ATOM      2  C   UNL     1       1.363   8.230  21.143  0.00  0.00    +0.000 A 
ATOM      3  C   UNL     1       0.494   9.150  21.721  0.00  0.00    +0.000 A 
ATOM      4  C   UNL     1      -0.089  10.176  20.965  0.00  0.00    +0.000 A 
ATOM      5  C   UNL     1       0.237  10.245  19.599  0.00  0.00    +0.000 A 
ATOM      6  C   UNL     1       1.115   9.322  19.014  0.00  0.00    +0.000 A 
ENDROOT
BRANCH   4   7
ATOM      7  C   UNL     1      -1.019  11.120  21.590  0.00  0.00    +0.000 A 
ATOM      8  C   UNL     1      -1.310  11.092  22.945  0.00  0.00    +0.000 A 
ATOM      9  C   UNL     1      -2.282  11.951  23.445  0.00  0.00    +0.000 A 
ATOM     10  C   UNL     1      -2.958  12.812  22.597  0.00  0.00    +0.000 A 
ATOM     11  N   UNL     1      -4.013  13.574  23.075  0.00  0.00    +0.000 N 
ATOM     12  C   UNL     1      -5.046  14.000  22.131  0.00  0.00    +0.000 C 
ATOM     13  C   UNL     1      -4.950  15.492  21.845  0.00  0.00    +0.000 C 
ATOM     14  C   UNL     1      -4.935  16.291  23.144  0.00  0.00    +0.000 C 
ATOM     15  C   UNL     1      -3.786  15.831  24.034  0.00  0.00    +0.000 C 
ATOM     16  C   UNL     1      -3.863  14.331  24.315  0.00  0.00    +0.000 C 
ATOM     17  N   UNL     1      -2.626  12.831  21.284  0.00  0.00    +0.000 NA
ATOM     18  N   UNL     1      -1.645  11.996  20.777  0.00  0.00    +0.000 NA
ENDBRANCH   4   7
BRANCH   1  21
ATOM     19  O   UNL     1       1.648   5.407  20.096  0.00  0.00    +0.000 OA
ATOM     20  C   UNL     1       2.461   5.997  19.389  0.00  0.00    +0.000 C 
ATOM     21  N   UNL     1       2.500   7.354  19.146  0.00  0.00    +0.000 N 
ATOM     22  H   UNL     1       3.069   7.687  18.381  0.00  0.00    +0.000 HD
BRANCH  20  23
ATOM     23  C   UNL     1       3.498   5.166  18.740  0.00  0.00    +0.000 A 
ATOM     24  C   UNL     1       3.349   4.662  17.428  0.00  0.00    +0.000 A 
ATOM     25  C   UNL     1       4.464   4.185  16.731  0.00  0.00    +0.000 A 
ATOM     26  C   UNL     1       5.688   4.282  17.357  0.00  0.00    +0.000 A 
ATOM     27  C   UNL     1       5.810   4.715  18.658  0.00  0.00    +0.000 A 
ATOM     28  C   UNL     1       4.735   5.122  19.396  0.00  0.00    +0.000 A 
ATOM     29  O   UNL     1       7.113   4.828  19.045  0.00  0.00    +0.000 OA
ATOM     30  C   UNL     1       7.734   4.779  17.751  0.00  0.00    +0.000 C 
ATOM     31  O   UNL     1       6.908   4.102  16.774  0.00  0.00    +0.000 OA
ENDBRANCH  20  23
ENDBRANCH   1  21
TORSDOF 3
ENDMDL
MODEL 4
REMARK VINA RESULT:      -8.6      3.571     11.784
REMARK  Name = 
REMARK  3 active torsions:
REMARK  status: ('A' for Active; 'I' for Inactive)
REMARK    1  A    between atoms: C_2  and  C_22
REMARK    2  A    between atoms: N_3  and  C_4
REMARK    3  A    between atoms: C_7  and  C_8
REMARK                            x       y       z     vdW  Elec       q    Type
REMARK                         _______ _______ _______ _____ _____    ______ ____
ROOT
ATOM      1  C   UNL     1       2.010   8.205  19.004  0.00  0.00    +0.000 A 
ATOM      2  C   UNL     1       1.349   9.244  18.346  0.00  0.00    +0.000 A 
ATOM      3  C   UNL     1       0.482  10.082  19.039  0.00  0.00    +0.000 A 
ATOM      4  C   UNL     1       0.228   9.901  20.405  0.00  0.00    +0.000 A 
ATOM      5  C   UNL     1       0.880   8.838  21.053  0.00  0.00    +0.000 A 
ATOM      6  C   UNL     1       1.752   7.989  20.358  0.00  0.00    +0.000 A 
ENDROOT
BRANCH   4   7
ATOM      7  C   UNL     1      -0.671  10.811  21.119  0.00  0.00    +0.000 A 
ATOM      8  C   UNL     1      -0.837  10.767  22.495  0.00  0.00    +0.000 A 
ATOM      9  C   UNL     1      -1.787  11.592  23.087  0.00  0.00    +0.000 A 
ATOM     10  C   UNL     1      -2.564  12.434  22.311  0.00  0.00    +0.000 A 
ATOM     11  N   UNL     1      -3.596  13.159  22.888  0.00  0.00    +0.000 N 
ATOM     12  C   UNL     1      -4.723  13.556  22.044  0.00  0.00    +0.000 C 
ATOM     13  C   UNL     1      -4.701  15.051  21.762  0.00  0.00    +0.000 C 
ATOM     14  C   UNL     1      -4.594  15.844  23.061  0.00  0.00    +0.000 C 
ATOM     15  C   UNL     1      -3.355  15.418  23.840  0.00  0.00    +0.000 C 
ATOM     16  C   UNL     1      -3.358  13.915  24.115  0.00  0.00    +0.000 C 
ATOM     17  N   UNL     1      -2.353  12.470  20.973  0.00  0.00    +0.000 NA
ATOM     18  N   UNL     1      -1.396  11.670  20.373  0.00  0.00    +0.000 NA
ENDBRANCH   4   7
BRANCH   1  21
ATOM     19  O   UNL     1       1.741   5.365  18.470  0.00  0.00    +0.000 OA
ATOM     20  C   UNL     1       2.748   6.005  18.181  0.00  0.00    +0.000 C 
ATOM     21  N   UNL     1       2.931   7.361  18.352  0.00  0.00    +0.000 N 
ATOM     22  H   UNL     1       3.706   7.803  17.877  0.00  0.00    +0.000 HD
BRANCH  20  23
ATOM     23  C   UNL     1       3.872   5.242  17.596  0.00  0.00    +0.000 A 
ATOM     24  C   UNL     1       3.810   3.844  17.397  0.00  0.00    +0.000 A 
ATOM     25  C   UNL     1       4.728   3.218  16.545  0.00  0.00    +0.000 A 
ATOM     26  C   UNL     1       5.631   4.025  15.889  0.00  0.00    +0.000 A 
ATOM     27  C   UNL     1       5.721   5.375  16.142  0.00  0.00    +0.000 A 
ATOM     28  C   UNL     1       4.891   6.011  17.020  0.00  0.00    +0.000 A 
ATOM     29  O   UNL     1       6.610   5.997  15.315  0.00  0.00    +0.000 OA
ATOM     30  C   UNL     1       6.751   4.967  14.325  0.00  0.00    +0.000 C 
ATOM     31  O   UNL     1       6.438   3.656  14.853  0.00  0.00    +0.000 OA
ENDBRANCH  20  23
ENDBRANCH   1  21
TORSDOF 3
ENDMDL
MODEL 5
REMARK VINA RESULT:      -8.6      3.553     11.705
REMARK  Name = 
REMARK  3 active torsions:
REMARK  status: ('A' for Active; 'I' for Inactive)
REMARK    1  A    between atoms: C_2  and  C_22
REMARK    2  A    between atoms: N_3  and  C_4
REMARK    3  A    between atoms: C_7  and  C_8
REMARK                            x       y       z     vdW  Elec       q    Type
REMARK                         _______ _______ _______ _____ _____    ______ ____
ROOT
ATOM      1  C   UNL     1       1.677   8.382  19.938  0.00  0.00    +0.000 A 
ATOM      2  C   UNL     1       1.087   9.457  19.270  0.00  0.00    +0.000 A 
ATOM      3  C   UNL     1       0.418  10.450  19.979  0.00  0.00    +0.000 A 
ATOM      4  C   UNL     1       0.298  10.395  21.374  0.00  0.00    +0.000 A 
ATOM      5  C   UNL     1       0.875   9.297  22.035  0.00  0.00    +0.000 A 
ATOM      6  C   UNL     1       1.546   8.293  21.325  0.00  0.00    +0.000 A 
ENDROOT
BRANCH   4   7
ATOM      7  C   UNL     1      -0.390  11.465  22.101  0.00  0.00    +0.000 A 
ATOM      8  C   UNL     1      -1.503  11.230  22.894  0.00  0.00    +0.000 A 
ATOM      9  C   UNL     1      -2.164  12.311  23.467  0.00  0.00    +0.000 A 
ATOM     10  C   UNL     1      -1.723  13.603  23.237  0.00  0.00    +0.000 A 
ATOM     11  N   UNL     1      -2.457  14.683  23.703  0.00  0.00    +0.000 N 
ATOM     12  C   UNL     1      -2.337  15.960  23.001  0.00  0.00    +0.000 C 
ATOM     13  C   UNL     1      -1.552  16.971  23.825  0.00  0.00    +0.000 C 
ATOM     14  C   UNL     1      -2.135  17.092  25.229  0.00  0.00    +0.000 C 
ATOM     15  C   UNL     1      -2.157  15.730  25.912  0.00  0.00    +0.000 C 
ATOM     16  C   UNL     1      -2.928  14.702  25.086  0.00  0.00    +0.000 C 
ATOM     17  N   UNL     1      -0.615  13.791  22.480  0.00  0.00    +0.000 NA
ATOM     18  N   UNL     1       0.064  12.722  21.921  0.00  0.00    +0.000 NA
ENDBRANCH   4   7
BRANCH   1  21
ATOM     19  O   UNL     1       1.648   5.527  20.455  0.00  0.00    +0.000 OA
ATOM     20  C   UNL     1       2.369   6.043  19.606  0.00  0.00    +0.000 C 
ATOM     21  N   UNL     1       2.402   7.379  19.265  0.00  0.00    +0.000 N 
ATOM     22  H   UNL     1       2.870   7.642  18.409  0.00  0.00    +0.000 HD
BRANCH  20  23
ATOM     23  C   UNL     1       3.293   5.141  18.886  0.00  0.00    +0.000 A 
ATOM     24  C   UNL     1       2.945   4.527  17.661  0.00  0.00    +0.000 A 
ATOM     25  C   UNL     1       3.941   3.971  16.849  0.00  0.00    +0.000 A 
ATOM     26  C   UNL     1       5.245   4.101  17.274  0.00  0.00    +0.000 A 
ATOM     27  C   UNL     1       5.564   4.643  18.498  0.00  0.00    +0.000 A 
ATOM     28  C   UNL     1       4.615   5.132  19.350  0.00  0.00    +0.000 A 
ATOM     29  O   UNL     1       6.911   4.766  18.673  0.00  0.00    +0.000 OA
ATOM     30  C   UNL     1       7.329   4.594  17.311  0.00  0.00    +0.000 C 
ATOM     31  O   UNL     1       6.362   3.848  16.533  0.00  0.00    +0.000 OA
ENDBRANCH  20  23
ENDBRANCH   1  21
TORSDOF 3
ENDMDL
MODEL 6
REMARK VINA RESULT:      -8.5      3.490     11.724
REMARK  Name = 
REMARK  3 active torsions:
REMARK  status: ('A' for Active; 'I' for Inactive)
REMARK    1  A    between atoms: C_2  and  C_22
REMARK    2  A    between atoms: N_3  and  C_4
REMARK    3  A    between atoms: C_7  and  C_8
REMARK                            x       y       z     vdW  Elec       q    Type
REMARK                         _______ _______ _______ _____ _____    ______ ____
ROOT
ATOM      1  C   UNL     1       1.805   8.343  19.408  0.00  0.00    +0.000 A 
ATOM      2  C   UNL     1       1.523   8.192  20.767  0.00  0.00    +0.000 A 
ATOM      3  C   UNL     1       0.648   9.062  21.410  0.00  0.00    +0.000 A 
ATOM      4  C   UNL     1       0.041  10.123  20.725  0.00  0.00    +0.000 A 
ATOM      5  C   UNL     1       0.349  10.280  19.363  0.00  0.00    +0.000 A 
ATOM      6  C   UNL     1       1.233   9.409  18.712  0.00  0.00    +0.000 A 
ENDROOT
BRANCH   4   7
ATOM      7  C   UNL     1      -0.896  11.012  21.417  0.00  0.00    +0.000 A 
ATOM      8  C   UNL     1      -1.118  10.941  22.783  0.00  0.00    +0.000 A 
ATOM      9  C   UNL     1      -2.099  11.747  23.350  0.00  0.00    +0.000 A 
ATOM     10  C   UNL     1      -2.851  12.597  22.558  0.00  0.00    +0.000 A 
ATOM     11  N   UNL     1      -3.912  13.303  23.104  0.00  0.00    +0.000 N 
ATOM     12  C   UNL     1      -5.007  13.706  22.222  0.00  0.00    +0.000 C 
ATOM     13  C   UNL     1      -4.987  15.206  21.968  0.00  0.00    +0.000 C 
ATOM     14  C   UNL     1      -4.941  15.976  23.284  0.00  0.00    +0.000 C 
ATOM     15  C   UNL     1      -3.732  15.545  24.107  0.00  0.00    +0.000 C 
ATOM     16  C   UNL     1      -3.733  14.037  24.354  0.00  0.00    +0.000 C 
ATOM     17  N   UNL     1      -2.585  12.660  21.231  0.00  0.00    +0.000 NA
ATOM     18  N   UNL     1      -1.597  11.878  20.657  0.00  0.00    +0.000 NA
ENDBRANCH   4   7
BRANCH   1  21
ATOM     19  O   UNL     1       1.954   5.456  19.670  0.00  0.00    +0.000 OA
ATOM     20  C   UNL     1       2.692   6.097  18.927  0.00  0.00    +0.000 C 
ATOM     21  N   UNL     1       2.649   7.458  18.708  0.00  0.00    +0.000 N 
ATOM     22  H   UNL     1       3.154   7.831  17.917  0.00  0.00    +0.000 HD
BRANCH  20  23
ATOM     23  C   UNL     1       3.729   5.331  18.203  0.00  0.00    +0.000 A 
ATOM     24  C   UNL     1       3.627   3.937  17.992  0.00  0.00    +0.000 A 
ATOM     25  C   UNL     1       4.429   3.314  17.028  0.00  0.00    +0.000 A 
ATOM     26  C   UNL     1       5.259   4.122  16.282  0.00  0.00    +0.000 A 
ATOM     27  C   UNL     1       5.396   5.467  16.542  0.00  0.00    +0.000 A 
ATOM     28  C   UNL     1       4.683   6.098  17.521  0.00  0.00    +0.000 A 
ATOM     29  O   UNL     1       6.189   6.092  15.625  0.00  0.00    +0.000 OA
ATOM     30  C   UNL     1       6.199   5.076  14.610  0.00  0.00    +0.000 C 
ATOM     31  O   UNL     1       5.933   3.761  15.153  0.00  0.00    +0.000 OA
ENDBRANCH  20  23
ENDBRANCH   1  21
TORSDOF 3
ENDMDL
MODEL 7
REMARK VINA RESULT:      -8.5      1.358      1.927
REMARK  Name = 
REMARK  3 active torsions:
REMARK  status: ('A' for Active; 'I' for Inactive)
REMARK    1  A    between atoms: C_2  and  C_22
REMARK    2  A    between atoms: N_3  and  C_4
REMARK    3  A    between atoms: C_7  and  C_8
REMARK                            x       y       z     vdW  Elec       q    Type
REMARK                         _______ _______ _______ _____ _____    ______ ____
ROOT
ATOM      1  C   UNL     1      -0.747  10.663  21.811  0.00  0.00    +0.000 A 
ATOM      2  C   UNL     1      -0.172   9.576  22.471  0.00  0.00    +0.000 A 
ATOM      3  C   UNL     1       0.660   8.693  21.789  0.00  0.00    +0.000 A 
ATOM      4  C   UNL     1       0.931   8.853  20.424  0.00  0.00    +0.000 A 
ATOM      5  C   UNL     1       0.329   9.938  19.763  0.00  0.00    +0.000 A 
ATOM      6  C   UNL     1      -0.513  10.827  20.445  0.00  0.00    +0.000 A 
ENDROOT
BRANCH   4   7
ATOM      7  C   UNL     1       1.829   7.924  19.733  0.00  0.00    +0.000 A 
ATOM      8  C   UNL     1       2.240   6.727  20.298  0.00  0.00    +0.000 A 
ATOM      9  C   UNL     1       3.177   5.950  19.625  0.00  0.00    +0.000 A 
ATOM     10  C   UNL     1       3.698   6.373  18.415  0.00  0.00    +0.000 A 
ATOM     11  N   UNL     1       4.723   5.661  17.811  0.00  0.00    +0.000 N 
ATOM     12  C   UNL     1       5.628   6.375  16.909  0.00  0.00    +0.000 C 
ATOM     13  C   UNL     1       5.380   5.987  15.459  0.00  0.00    +0.000 C 
ATOM     14  C   UNL     1       5.412   4.471  15.292  0.00  0.00    +0.000 C 
ATOM     15  C   UNL     1       4.391   3.815  16.215  0.00  0.00    +0.000 C 
ATOM     16  C   UNL     1       4.620   4.211  17.672  0.00  0.00    +0.000 C 
ATOM     17  N   UNL     1       3.251   7.535  17.881  0.00  0.00    +0.000 NA
ATOM     18  N   UNL     1       2.303   8.308  18.530  0.00  0.00    +0.000 NA
ENDBRANCH   4   7
BRANCH   1  21
ATOM     19  O   UNL     1      -0.012  13.336  22.672  0.00  0.00    +0.000 OA
ATOM     20  C   UNL     1      -1.116  12.844  22.893  0.00  0.00    +0.000 C 
ATOM     21  N   UNL     1      -1.558  11.607  22.472  0.00  0.00    +0.000 N 
ATOM     22  H   UNL     1      -2.547  11.410  22.524  0.00  0.00    +0.000 HD
BRANCH  20  23
ATOM     23  C   UNL     1      -2.056  13.660  23.691  0.00  0.00    +0.000 A 
ATOM     24  C   UNL     1      -1.663  14.863  24.320  0.00  0.00    +0.000 A 
ATOM     25  C   UNL     1      -2.633  15.769  24.766  0.00  0.00    +0.000 A 
ATOM     26  C   UNL     1      -3.951  15.455  24.514  0.00  0.00    +0.000 A 
ATOM     27  C   UNL     1      -4.322  14.251  23.958  0.00  0.00    +0.000 A 
ATOM     28  C   UNL     1      -3.408  13.311  23.576  0.00  0.00    +0.000 A 
ATOM     29  O   UNL     1      -5.661  14.189  23.706  0.00  0.00    +0.000 OA
ATOM     30  C   UNL     1      -5.973  15.586  23.819  0.00  0.00    +0.000 C 
ATOM     31  O   UNL     1      -5.018  16.294  24.646  0.00  0.00    +0.000 OA
ENDBRANCH  20  23
ENDBRANCH   1  21
TORSDOF 3
ENDMDL
MODEL 8
REMARK VINA RESULT:      -8.4      4.076     11.446
REMARK  Name = 
REMARK  3 active torsions:
REMARK  status: ('A' for Active; 'I' for Inactive)
REMARK    1  A    between atoms: C_2  and  C_22
REMARK    2  A    between atoms: N_3  and  C_4
REMARK    3  A    between atoms: C_7  and  C_8
REMARK                            x       y       z     vdW  Elec       q    Type
REMARK                         _______ _______ _______ _____ _____    ______ ____
ROOT
ATOM      1  C   UNL     1       1.808   8.555  18.885  0.00  0.00    +0.000 A 
ATOM      2  C   UNL     1       1.294   8.738  20.169  0.00  0.00    +0.000 A 
ATOM      3  C   UNL     1       0.217   9.592  20.386  0.00  0.00    +0.000 A 
ATOM      4  C   UNL     1      -0.370  10.306  19.334  0.00  0.00    +0.000 A 
ATOM      5  C   UNL     1       0.169  10.133  18.048  0.00  0.00    +0.000 A 
ATOM      6  C   UNL     1       1.256   9.277  17.825  0.00  0.00    +0.000 A 
ENDROOT
BRANCH   4   7
ATOM      7  C   UNL     1      -1.519  11.182  19.583  0.00  0.00    +0.000 A 
ATOM      8  C   UNL     1      -1.672  11.891  20.764  0.00  0.00    +0.000 A 
ATOM      9  C   UNL     1      -2.841  12.616  20.969  0.00  0.00    +0.000 A 
ATOM     10  C   UNL     1      -3.839  12.620  20.010  0.00  0.00    +0.000 A 
ATOM     11  N   UNL     1      -5.053  13.238  20.271  0.00  0.00    +0.000 N 
ATOM     12  C   UNL     1      -6.241  12.763  19.562  0.00  0.00    +0.000 C 
ATOM     13  C   UNL     1      -6.695  13.768  18.513  0.00  0.00    +0.000 C 
ATOM     14  C   UNL     1      -6.857  15.154  19.128  0.00  0.00    +0.000 C 
ATOM     15  C   UNL     1      -5.553  15.599  19.781  0.00  0.00    +0.000 C 
ATOM     16  C   UNL     1      -5.079  14.589  20.825  0.00  0.00    +0.000 C 
ATOM     17  N   UNL     1      -3.641  11.938  18.856  0.00  0.00    +0.000 NA
ATOM     18  N   UNL     1      -2.474  11.229  18.631  0.00  0.00    +0.000 NA
ENDBRANCH   4   7
BRANCH   1  21
ATOM     19  O   UNL     1       1.625   5.749  18.165  0.00  0.00    +0.000 OA
ATOM     20  C   UNL     1       2.696   6.328  18.324  0.00  0.00    +0.000 C 
ATOM     21  N   UNL     1       2.867   7.666  18.613  0.00  0.00    +0.000 N 
ATOM     22  H   UNL     1       3.788   8.065  18.500  0.00  0.00    +0.000 HD
BRANCH  20  23
ATOM     23  C   UNL     1       3.918   5.505  18.197  0.00  0.00    +0.000 A 
ATOM     24  C   UNL     1       4.331   4.954  16.962  0.00  0.00    +0.000 A 
ATOM     25  C   UNL     1       5.640   4.484  16.809  0.00  0.00    +0.000 A 
ATOM     26  C   UNL     1       6.494   4.635  17.880  0.00  0.00    +0.000 A 
ATOM     27  C   UNL     1       6.061   5.114  19.096  0.00  0.00    +0.000 A 
ATOM     28  C   UNL     1       4.773   5.515  19.306  0.00  0.00    +0.000 A 
ATOM     29  O   UNL     1       7.086   5.274  19.981  0.00  0.00    +0.000 OA
ATOM     30  C   UNL     1       8.187   5.200  19.063  0.00  0.00    +0.000 C 
ATOM     31  O   UNL     1       7.847   4.468  17.861  0.00  0.00    +0.000 OA
ENDBRANCH  20  23
ENDBRANCH   1  21
TORSDOF 3
ENDMDL
MODEL 9
REMARK VINA RESULT:      -8.4      0.977      1.614
REMARK  Name = 
REMARK  3 active torsions:
REMARK  status: ('A' for Active; 'I' for Inactive)
REMARK    1  A    between atoms: C_2  and  C_22
REMARK    2  A    between atoms: N_3  and  C_4
REMARK    3  A    between atoms: C_7  and  C_8
REMARK                            x       y       z     vdW  Elec       q    Type
REMARK                         _______ _______ _______ _____ _____    ______ ____
ROOT
ATOM      1  C   UNL     1       0.069  10.025  20.359  0.00  0.00    +0.000 A 
ATOM      2  C   UNL     1       0.680   8.960  21.024  0.00  0.00    +0.000 A 
ATOM      3  C   UNL     1       1.505   8.076  20.336  0.00  0.00    +0.000 A 
ATOM      4  C   UNL     1       1.734   8.211  18.961  0.00  0.00    +0.000 A 
ATOM      5  C   UNL     1       1.096   9.272  18.296  0.00  0.00    +0.000 A 
ATOM      6  C   UNL     1       0.261  10.163  18.983  0.00  0.00    +0.000 A 
ENDROOT
BRANCH   4   7
ATOM      7  C   UNL     1       2.626   7.281  18.263  0.00  0.00    +0.000 A 
ATOM      8  C   UNL     1       2.440   5.908  18.292  0.00  0.00    +0.000 A 
ATOM      9  C   UNL     1       3.388   5.086  17.694  0.00  0.00    +0.000 A 
ATOM     10  C   UNL     1       4.507   5.632  17.090  0.00  0.00    +0.000 A 
ATOM     11  N   UNL     1       5.512   4.807  16.608  0.00  0.00    +0.000 N 
ATOM     12  C   UNL     1       6.871   5.343  16.522  0.00  0.00    +0.000 C 
ATOM     13  C   UNL     1       7.275   5.591  15.077  0.00  0.00    +0.000 C 
ATOM     14  C   UNL     1       7.052   4.341  14.232  0.00  0.00    +0.000 C 
ATOM     15  C   UNL     1       5.597   3.895  14.322  0.00  0.00    +0.000 C 
ATOM     16  C   UNL     1       5.174   3.659  15.771  0.00  0.00    +0.000 C 
ATOM     17  N   UNL     1       4.640   6.980  17.056  0.00  0.00    +0.000 NA
ATOM     18  N   UNL     1       3.692   7.811  17.630  0.00  0.00    +0.000 NA
ENDBRANCH   4   7
BRANCH   1  21
ATOM     19  O   UNL     1       0.916  12.494  21.628  0.00  0.00    +0.000 OA
ATOM     20  C   UNL     1      -0.247  12.100  21.646  0.00  0.00    +0.000 C 
ATOM     21  N   UNL     1      -0.737  10.970  21.023  0.00  0.00    +0.000 N 
ATOM     22  H   UNL     1      -1.737  10.875  20.926  0.00  0.00    +0.000 HD
BRANCH  20  23
ATOM     23  C   UNL     1      -1.211  12.918  22.413  0.00  0.00    +0.000 A 
ATOM     24  C   UNL     1      -2.467  12.416  22.823  0.00  0.00    +0.000 A 
ATOM     25  C   UNL     1      -3.194  13.078  23.819  0.00  0.00    +0.000 A 
ATOM     26  C   UNL     1      -2.608  14.181  24.399  0.00  0.00    +0.000 A 
ATOM     27  C   UNL     1      -1.414  14.696  23.947  0.00  0.00    +0.000 A 
ATOM     28  C   UNL     1      -0.709  14.120  22.928  0.00  0.00    +0.000 A 
ATOM     29  O   UNL     1      -0.968  15.725  24.723  0.00  0.00    +0.000 OA
ATOM     30  C   UNL     1      -1.810  15.521  25.868  0.00  0.00    +0.000 C 
ATOM     31  O   UNL     1      -3.029  14.816  25.530  0.00  0.00    +0.000 OA
ENDBRANCH  20  23
ENDBRANCH   1  21
TORSDOF 3
ENDMDL
