MODEL 1
REMARK VINA RESULT:      -6.8      0.000      0.000
REMARK  Name = 
REMARK  10 active torsions:
REMARK  status: ('A' for Active; 'I' for Inactive)
REMARK    1  A    between atoms: C_1  and  O_2
REMARK    2  A    between atoms: O_2  and  C_3
REMARK    3  A    between atoms: C_8  and  O_9
REMARK    4  A    between atoms: O_9  and  C_10
REMARK    5  A    between atoms: C_10  and  C_11
REMARK    6  A    between atoms: C_10  and  C_12
REMARK    7  A    between atoms: C_13  and  C_14
REMARK    8  A    between atoms: N_21  and  C_22
REMARK    9  A    between atoms: C_25  and  N_26
REMARK   10  A    between atoms: C_27  and  C_28
REMARK                            x       y       z     vdW  Elec       q    Type
REMARK                         _______ _______ _______ _____ _____    ______ ____
ROOT
ATOM      1  C   UNL     1       1.959   7.226  20.170  0.00  0.00    +0.000 A 
ATOM      2  C   UNL     1       1.448   8.074  21.159  0.00  0.00    +0.000 A 
ATOM      3  C   UNL     1       0.985   9.357  20.851  0.00  0.00    +0.000 A 
ATOM      4  C   UNL     1       1.121   9.862  19.563  0.00  0.00    +0.000 A 
ATOM      5  C   UNL     1       1.678   9.035  18.575  0.00  0.00    +0.000 A 
ATOM      6  C   UNL     1       2.103   7.724  18.863  0.00  0.00    +0.000 A 
ATOM      7  C   UNL     1       0.639  11.275  19.284  0.00  0.00    +0.000 C 
ATOM      8  N   UNL     1      -0.610  11.581  20.031  0.00  0.00    +0.000 N 
ATOM      9  C   UNL     1      -0.659  11.221  21.386  0.00  0.00    +0.000 C 
ATOM     10  O   UNL     1      -1.428  11.731  22.205  0.00  0.00    +0.000 OA
ATOM     11  C   UNL     1       0.324  10.186  21.905  0.00  0.00    +0.000 C 
ENDROOT
BRANCH   7  12
ATOM     12  C   UNL     1       1.734  12.337  19.455  0.00  0.00    +0.000 A 
ATOM     13  C   UNL     1       2.452  12.771  18.321  0.00  0.00    +0.000 A 
ATOM     14  C   UNL     1       3.465  13.732  18.434  0.00  0.00    +0.000 A 
ATOM     15  C   UNL     1       3.785  14.263  19.678  0.00  0.00    +0.000 A 
ATOM     16 CL   UNL     1       5.026  15.446  19.820  0.00  0.00    +0.000 Cl
ATOM     17  C   UNL     1       3.096  13.845  20.812  0.00  0.00    +0.000 A 
ATOM     18  C   UNL     1       2.076  12.897  20.696  0.00  0.00    +0.000 A 
ENDBRANCH   7  12
BRANCH   8  19
ATOM     19  C   UNL     1      -1.493  12.684  19.535  0.00  0.00    +0.000 C 
ATOM     20  C   UNL     1      -1.537  12.825  17.995  0.00  0.00    +0.000 C 
ATOM     21  C   UNL     1      -2.199  11.615  17.321  0.00  0.00    +0.000 C 
ATOM     22  C   UNL     1      -3.593  11.282  17.876  0.00  0.00    +0.000 C 
ATOM     23  C   UNL     1      -3.665  11.354  19.405  0.00  0.00    +0.000 C 
ATOM     24  C   UNL     1      -2.980  12.599  19.965  0.00  0.00    +0.000 C 
BRANCH  22  25
ATOM     25  N   UNL     1      -4.609  12.145  17.284  0.00  0.00    +0.000 N 
ATOM     26  C   UNL     1      -5.953  11.932  17.496  0.00  0.00    +0.000 C 
ATOM     27  C   UNL     1      -6.853  12.903  16.785  0.00  0.00    +0.000 C 
ATOM     28  O   UNL     1      -6.400  11.029  18.195  0.00  0.00    +0.000 OA
ATOM     29  H   UNL     1      -4.323  12.855  16.623  0.00  0.00    +0.000 HD
ENDBRANCH  22  25
ENDBRANCH   8  19
BRANCH   1  31
ATOM     30  C   UNL     1       1.226   4.982  20.453  0.00  0.00    +0.000 C 
ATOM     31  O   UNL     1       2.294   5.924  20.437  0.00  0.00    +0.000 OA
ENDBRANCH   1  31
BRANCH   6  32
ATOM     32  O   UNL     1       2.546   7.047  17.754  0.00  0.00    +0.000 OA
BRANCH  32  33
ATOM     33  C   UNL     1       3.815   6.382  17.807  0.00  0.00    +0.000 C 
ATOM     34  C   UNL     1       3.619   4.914  17.440  0.00  0.00    +0.000 C 
ATOM     35  C   UNL     1       4.734   7.065  16.800  0.00  0.00    +0.000 C 
ENDBRANCH  32  33
ENDBRANCH   6  32
TORSDOF 6
ENDMDL
MODEL 2
REMARK VINA RESULT:      -6.5      3.261      6.907
REMARK  Name = 
REMARK  10 active torsions:
REMARK  status: ('A' for Active; 'I' for Inactive)
REMARK    1  A    between atoms: C_1  and  O_2
REMARK    2  A    between atoms: O_2  and  C_3
REMARK    3  A    between atoms: C_8  and  O_9
REMARK    4  A    between atoms: O_9  and  C_10
REMARK    5  A    between atoms: C_10  and  C_11
REMARK    6  A    between atoms: C_10  and  C_12
REMARK    7  A    between atoms: C_13  and  C_14
REMARK    8  A    between atoms: N_21  and  C_22
REMARK    9  A    between atoms: C_25  and  N_26
REMARK   10  A    between atoms: C_27  and  C_28
REMARK                            x       y       z     vdW  Elec       q    Type
REMARK                         _______ _______ _______ _____ _____    ______ ____
ROOT
ATOM      1  C   UNL     1      -4.403  11.793  17.956  0.00  0.00    +0.000 A 
ATOM      2  C   UNL     1      -4.180  11.907  19.333  0.00  0.00    +0.000 A 
ATOM      3  C   UNL     1      -2.885  11.970  19.859  0.00  0.00    +0.000 A 
ATOM      4  C   UNL     1      -1.782  11.813  19.028  0.00  0.00    +0.000 A 
ATOM      5  C   UNL     1      -1.998  11.649  17.651  0.00  0.00    +0.000 A 
ATOM      6  C   UNL     1      -3.296  11.634  17.104  0.00  0.00    +0.000 A 
ATOM      7  C   UNL     1      -0.396  11.851  19.649  0.00  0.00    +0.000 C 
ATOM      8  N   UNL     1      -0.317  12.857  20.742  0.00  0.00    +0.000 N 
ATOM      9  C   UNL     1      -1.361  12.878  21.679  0.00  0.00    +0.000 C 
ATOM     10  O   UNL     1      -1.258  13.360  22.810  0.00  0.00    +0.000 OA
ATOM     11  C   UNL     1      -2.683  12.225  21.317  0.00  0.00    +0.000 C 
ENDROOT
BRANCH   7  12
ATOM     12  C   UNL     1       0.129  10.465  20.049  0.00  0.00    +0.000 A 
ATOM     13  C   UNL     1       0.992   9.778  19.170  0.00  0.00    +0.000 A 
ATOM     14  C   UNL     1       1.488   8.508  19.492  0.00  0.00    +0.000 A 
ATOM     15  C   UNL     1       1.120   7.900  20.687  0.00  0.00    +0.000 A 
ATOM     16 CL   UNL     1       1.729   6.342  21.087  0.00  0.00    +0.000 Cl
ATOM     17  C   UNL     1       0.263   8.555  21.566  0.00  0.00    +0.000 A 
ATOM     18  C   UNL     1      -0.219   9.827  21.251  0.00  0.00    +0.000 A 
ENDBRANCH   7  12
BRANCH   8  19
ATOM     19  C   UNL     1       1.027  13.392  21.131  0.00  0.00    +0.000 C 
ATOM     20  C   UNL     1       2.141  13.140  20.088  0.00  0.00    +0.000 C 
ATOM     21  C   UNL     1       1.900  13.914  18.784  0.00  0.00    +0.000 C 
ATOM     22  C   UNL     1       1.679  15.421  18.990  0.00  0.00    +0.000 C 
ATOM     23  C   UNL     1       0.754  15.738  20.170  0.00  0.00    +0.000 C 
ATOM     24  C   UNL     1       1.087  14.914  21.412  0.00  0.00    +0.000 C 
BRANCH  22  25
ATOM     25  N   UNL     1       2.950  16.119  19.148  0.00  0.00    +0.000 N 
ATOM     26  C   UNL     1       3.880  16.168  18.134  0.00  0.00    +0.000 C 
ATOM     27  C   UNL     1       5.141  16.906  18.486  0.00  0.00    +0.000 C 
ATOM     28  O   UNL     1       3.718  15.653  17.033  0.00  0.00    +0.000 OA
ATOM     29  H   UNL     1       3.195  16.489  20.056  0.00  0.00    +0.000 HD
ENDBRANCH  22  25
ENDBRANCH   8  19
BRANCH   1  31
ATOM     30  C   UNL     1      -6.734  11.438  18.259  0.00  0.00    +0.000 C 
ATOM     31  O   UNL     1      -5.662  11.861  17.421  0.00  0.00    +0.000 OA
ENDBRANCH   1  31
BRANCH   6  32
ATOM     32  O   UNL     1      -3.301  11.542  15.735  0.00  0.00    +0.000 OA
BRANCH  32  33
ATOM     33  C   UNL     1      -2.773  10.362  15.116  0.00  0.00    +0.000 C 
ATOM     34  C   UNL     1      -2.854   9.205  16.108  0.00  0.00    +0.000 C 
ATOM     35  C   UNL     1      -3.625  10.068  13.885  0.00  0.00    +0.000 C 
ENDBRANCH  32  33
ENDBRANCH   6  32
TORSDOF 6
ENDMDL
MODEL 3
REMARK VINA RESULT:      -6.4      2.920      6.352
REMARK  Name = 
REMARK  10 active torsions:
REMARK  status: ('A' for Active; 'I' for Inactive)
REMARK    1  A    between atoms: C_1  and  O_2
REMARK    2  A    between atoms: O_2  and  C_3
REMARK    3  A    between atoms: C_8  and  O_9
REMARK    4  A    between atoms: O_9  and  C_10
REMARK    5  A    between atoms: C_10  and  C_11
REMARK    6  A    between atoms: C_10  and  C_12
REMARK    7  A    between atoms: C_13  and  C_14
REMARK    8  A    between atoms: N_21  and  C_22
REMARK    9  A    between atoms: C_25  and  N_26
REMARK   10  A    between atoms: C_27  and  C_28
REMARK                            x       y       z     vdW  Elec       q    Type
REMARK                         _______ _______ _______ _____ _____    ______ ____
ROOT
ATOM      1  C   UNL     1      -3.078  10.225  16.431  0.00  0.00    +0.000 A 
ATOM      2  C   UNL     1      -1.868   9.760  16.956  0.00  0.00    +0.000 A 
ATOM      3  C   UNL     1      -1.233  10.415  18.017  0.00  0.00    +0.000 A 
ATOM      4  C   UNL     1      -1.741  11.613  18.504  0.00  0.00    +0.000 A 
ATOM      5  C   UNL     1      -2.929  12.114  17.949  0.00  0.00    +0.000 A 
ATOM      6  C   UNL     1      -3.603  11.436  16.915  0.00  0.00    +0.000 A 
ATOM      7  C   UNL     1      -0.997  12.310  19.631  0.00  0.00    +0.000 C 
ATOM      8  N   UNL     1      -0.445  11.330  20.605  0.00  0.00    +0.000 N 
ATOM      9  C   UNL     1       0.224  10.211  20.089  0.00  0.00    +0.000 C 
ATOM     10  O   UNL     1       1.040   9.542  20.730  0.00  0.00    +0.000 OA
ATOM     11  C   UNL     1      -0.014   9.818  18.641  0.00  0.00    +0.000 C 
ENDROOT
BRANCH   7  12
ATOM     12  C   UNL     1       0.034  13.335  19.137  0.00  0.00    +0.000 A 
ATOM     13  C   UNL     1      -0.360  14.679  18.974  0.00  0.00    +0.000 A 
ATOM     14  C   UNL     1       0.547  15.645  18.519  0.00  0.00    +0.000 A 
ATOM     15  C   UNL     1       1.852  15.283  18.207  0.00  0.00    +0.000 A 
ATOM     16 CL   UNL     1       2.968  16.467  17.649  0.00  0.00    +0.000 Cl
ATOM     17  C   UNL     1       2.260  13.961  18.351  0.00  0.00    +0.000 A 
ATOM     18  C   UNL     1       1.360  13.001  18.820  0.00  0.00    +0.000 A 
ENDBRANCH   7  12
BRANCH   8  19
ATOM     19  C   UNL     1      -0.128  11.797  21.992  0.00  0.00    +0.000 C 
ATOM     20  C   UNL     1      -0.113  13.334  22.162  0.00  0.00    +0.000 C 
ATOM     21  C   UNL     1      -1.506  13.952  21.973  0.00  0.00    +0.000 C 
ATOM     22  C   UNL     1      -2.591  13.317  22.858  0.00  0.00    +0.000 C 
ATOM     23  C   UNL     1      -2.507  11.788  22.910  0.00  0.00    +0.000 C 
ATOM     24  C   UNL     1      -1.078  11.287  23.105  0.00  0.00    +0.000 C 
BRANCH  22  25
ATOM     25  N   UNL     1      -2.550  13.868  24.208  0.00  0.00    +0.000 N 
ATOM     26  C   UNL     1      -2.964  15.153  24.478  0.00  0.00    +0.000 C 
ATOM     27  C   UNL     1      -2.825  15.558  25.919  0.00  0.00    +0.000 C 
ATOM     28  O   UNL     1      -3.404  15.922  23.631  0.00  0.00    +0.000 OA
ATOM     29  H   UNL     1      -2.115  13.328  24.944  0.00  0.00    +0.000 HD
ENDBRANCH  22  25
ENDBRANCH   8  19
BRANCH   1  31
ATOM     30  C   UNL     1      -3.609   9.940  14.130  0.00  0.00    +0.000 C 
ATOM     31  O   UNL     1      -3.773   9.521  15.482  0.00  0.00    +0.000 OA
ENDBRANCH   1  31
BRANCH   6  32
ATOM     32  O   UNL     1      -4.783  12.039  16.558  0.00  0.00    +0.000 OA
BRANCH  32  33
ATOM     33  C   UNL     1      -5.724  12.385  17.582  0.00  0.00    +0.000 C 
ATOM     34  C   UNL     1      -6.783  13.309  16.988  0.00  0.00    +0.000 C 
ATOM     35  C   UNL     1      -6.363  11.092  18.076  0.00  0.00    +0.000 C 
ENDBRANCH  32  33
ENDBRANCH   6  32
TORSDOF 6
ENDMDL
MODEL 4
REMARK VINA RESULT:      -6.3      4.463      8.184
REMARK  Name = 
REMARK  10 active torsions:
REMARK  status: ('A' for Active; 'I' for Inactive)
REMARK    1  A    between atoms: C_1  and  O_2
REMARK    2  A    between atoms: O_2  and  C_3
REMARK    3  A    between atoms: C_8  and  O_9
REMARK    4  A    between atoms: O_9  and  C_10
REMARK    5  A    between atoms: C_10  and  C_11
REMARK    6  A    between atoms: C_10  and  C_12
REMARK    7  A    between atoms: C_13  and  C_14
REMARK    8  A    between atoms: N_21  and  C_22
REMARK    9  A    between atoms: C_25  and  N_26
REMARK   10  A    between atoms: C_27  and  C_28
REMARK                            x       y       z     vdW  Elec       q    Type
REMARK                         _______ _______ _______ _____ _____    ______ ____
ROOT
ATOM      1  C   UNL     1      -6.206  13.486  22.294  0.00  0.00    +0.000 A 
ATOM      2  C   UNL     1      -5.190  13.615  23.248  0.00  0.00    +0.000 A 
ATOM      3  C   UNL     1      -3.841  13.641  22.878  0.00  0.00    +0.000 A 
ATOM      4  C   UNL     1      -3.473  13.430  21.554  0.00  0.00    +0.000 A 
ATOM      5  C   UNL     1      -4.485  13.250  20.597  0.00  0.00    +0.000 A 
ATOM      6  C   UNL     1      -5.848  13.272  20.952  0.00  0.00    +0.000 A 
ATOM      7  C   UNL     1      -1.995  13.428  21.204  0.00  0.00    +0.000 C 
ATOM      8  N   UNL     1      -1.250  14.450  21.988  0.00  0.00    +0.000 N 
ATOM      9  C   UNL     1      -1.508  14.525  23.364  0.00  0.00    +0.000 C 
ATOM     10  O   UNL     1      -0.730  15.022  24.183  0.00  0.00    +0.000 OA
ATOM     11  C   UNL     1      -2.790  13.913  23.904  0.00  0.00    +0.000 C 
ENDROOT
BRANCH   7  12
ATOM     12  C   UNL     1      -1.360  12.031  21.252  0.00  0.00    +0.000 A 
ATOM     13  C   UNL     1      -1.001  11.484  22.501  0.00  0.00    +0.000 A 
ATOM     14  C   UNL     1      -0.411  10.216  22.590  0.00  0.00    +0.000 A 
ATOM     15  C   UNL     1      -0.160   9.483  21.436  0.00  0.00    +0.000 A 
ATOM     16 CL   UNL     1       0.562   7.926  21.541  0.00  0.00    +0.000 Cl
ATOM     17  C   UNL     1      -0.498  10.007  20.192  0.00  0.00    +0.000 A 
ATOM     18  C   UNL     1      -1.099  11.264  20.105  0.00  0.00    +0.000 A 
ENDBRANCH   7  12
BRANCH   8  19
ATOM     19  C   UNL     1       0.063  14.942  21.462  0.00  0.00    +0.000 C 
ATOM     20  C   UNL     1       0.439  14.393  20.065  0.00  0.00    +0.000 C 
ATOM     21  C   UNL     1      -0.509  14.901  18.968  0.00  0.00    +0.000 C 
ATOM     22  C   UNL     1      -0.650  16.431  18.932  0.00  0.00    +0.000 C 
ATOM     23  C   UNL     1      -0.795  17.056  20.323  0.00  0.00    +0.000 C 
ATOM     24  C   UNL     1       0.198  16.481  21.330  0.00  0.00    +0.000 C 
BRANCH  22  25
ATOM     25  N   UNL     1       0.469  17.041  18.222  0.00  0.00    +0.000 N 
ATOM     26  C   UNL     1       0.280  18.043  17.297  0.00  0.00    +0.000 C 
ATOM     27  C   UNL     1       1.545  18.531  16.646  0.00  0.00    +0.000 C 
ATOM     28  O   UNL     1      -0.816  18.508  17.007  0.00  0.00    +0.000 OA
ATOM     29  H   UNL     1       1.394  16.650  18.339  0.00  0.00    +0.000 HD
ENDBRANCH  22  25
ENDBRANCH   8  19
BRANCH   1  31
ATOM     30  C   UNL     1      -7.903  14.725  23.408  0.00  0.00    +0.000 C 
ATOM     31  O   UNL     1      -7.530  13.590  22.632  0.00  0.00    +0.000 OA
ENDBRANCH   1  31
BRANCH   6  32
ATOM     32  O   UNL     1      -6.686  13.156  19.871  0.00  0.00    +0.000 OA
BRANCH  32  33
ATOM     33  C   UNL     1      -6.537  14.069  18.776  0.00  0.00    +0.000 C 
ATOM     34  C   UNL     1      -7.144  13.441  17.524  0.00  0.00    +0.000 C 
ATOM     35  C   UNL     1      -7.278  15.350  19.141  0.00  0.00    +0.000 C 
ENDBRANCH  32  33
ENDBRANCH   6  32
TORSDOF 6
ENDMDL
MODEL 5
REMARK VINA RESULT:      -6.3      3.579      7.979
REMARK  Name = 
REMARK  10 active torsions:
REMARK  status: ('A' for Active; 'I' for Inactive)
REMARK    1  A    between atoms: C_1  and  O_2
REMARK    2  A    between atoms: O_2  and  C_3
REMARK    3  A    between atoms: C_8  and  O_9
REMARK    4  A    between atoms: O_9  and  C_10
REMARK    5  A    between atoms: C_10  and  C_11
REMARK    6  A    between atoms: C_10  and  C_12
REMARK    7  A    between atoms: C_13  and  C_14
REMARK    8  A    between atoms: N_21  and  C_22
REMARK    9  A    between atoms: C_25  and  N_26
REMARK   10  A    between atoms: C_27  and  C_28
REMARK                            x       y       z     vdW  Elec       q    Type
REMARK                         _______ _______ _______ _____ _____    ______ ____
ROOT
ATOM      1  C   UNL     1       0.862  16.044  20.996  0.00  0.00    +0.000 A 
ATOM      2  C   UNL     1       0.318  15.232  21.997  0.00  0.00    +0.000 A 
ATOM      3  C   UNL     1      -0.290  14.009  21.694  0.00  0.00    +0.000 A 
ATOM      4  C   UNL     1      -0.463  13.621  20.370  0.00  0.00    +0.000 A 
ATOM      5  C   UNL     1       0.037  14.454  19.357  0.00  0.00    +0.000 A 
ATOM      6  C   UNL     1       0.694  15.664  19.653  0.00  0.00    +0.000 A 
ATOM      7  C   UNL     1      -1.164  12.304  20.087  0.00  0.00    +0.000 C 
ATOM      8  N   UNL     1      -0.788  11.264  21.082  0.00  0.00    +0.000 N 
ATOM      9  C   UNL     1      -0.794  11.631  22.436  0.00  0.00    +0.000 C 
ATOM     10  O   UNL     1      -0.885  10.825  23.366  0.00  0.00    +0.000 OA
ATOM     11  C   UNL     1      -0.742  13.106  22.795  0.00  0.00    +0.000 C 
ENDROOT
BRANCH   7  12
ATOM     12  C   UNL     1      -2.679  12.450  19.891  0.00  0.00    +0.000 A 
ATOM     13  C   UNL     1      -3.423  13.198  20.828  0.00  0.00    +0.000 A 
ATOM     14  C   UNL     1      -4.809  13.349  20.691  0.00  0.00    +0.000 A 
ATOM     15  C   UNL     1      -5.474  12.747  19.629  0.00  0.00    +0.000 A 
ATOM     16 CL   UNL     1      -7.175  12.933  19.458  0.00  0.00    +0.000 Cl
ATOM     17  C   UNL     1      -4.763  11.998  18.699  0.00  0.00    +0.000 A 
ATOM     18  C   UNL     1      -3.379  11.859  18.826  0.00  0.00    +0.000 A 
ENDBRANCH   7  12
BRANCH   8  19
ATOM     19  C   UNL     1      -0.959   9.822  20.715  0.00  0.00    +0.000 C 
ATOM     20  C   UNL     1      -0.632   9.495  19.239  0.00  0.00    +0.000 C 
ATOM     21  C   UNL     1       0.858   9.690  18.918  0.00  0.00    +0.000 C 
ATOM     22  C   UNL     1       1.799   8.929  19.866  0.00  0.00    +0.000 C 
ATOM     23  C   UNL     1       1.383   9.029  21.337  0.00  0.00    +0.000 C 
ATOM     24  C   UNL     1      -0.115   8.816  21.538  0.00  0.00    +0.000 C 
BRANCH  22  25
ATOM     25  N   UNL     1       1.916   7.529  19.472  0.00  0.00    +0.000 N 
ATOM     26  C   UNL     1       2.695   7.139  18.406  0.00  0.00    +0.000 C 
ATOM     27  C   UNL     1       2.672   5.662  18.130  0.00  0.00    +0.000 C 
ATOM     28  O   UNL     1       3.353   7.915  17.721  0.00  0.00    +0.000 OA
ATOM     29  H   UNL     1       1.333   6.841  19.930  0.00  0.00    +0.000 HD
ENDBRANCH  22  25
ENDBRANCH   8  19
BRANCH   1  31
ATOM     30  C   UNL     1       1.548  17.609  22.650  0.00  0.00    +0.000 C 
ATOM     31  O   UNL     1       1.573  17.178  21.293  0.00  0.00    +0.000 OA
ENDBRANCH   1  31
BRANCH   6  32
ATOM     32  O   UNL     1       1.179  16.299  18.537  0.00  0.00    +0.000 OA
BRANCH  32  33
ATOM     33  C   UNL     1       0.686  17.605  18.212  0.00  0.00    +0.000 C 
ATOM     34  C   UNL     1       1.393  18.100  16.954  0.00  0.00    +0.000 C 
ATOM     35  C   UNL     1      -0.814  17.482  17.966  0.00  0.00    +0.000 C 
ENDBRANCH  32  33
ENDBRANCH   6  32
TORSDOF 6
ENDMDL
MODEL 6
REMARK VINA RESULT:      -6.3      3.280      7.598
REMARK  Name = 
REMARK  10 active torsions:
REMARK  status: ('A' for Active; 'I' for Inactive)
REMARK    1  A    between atoms: C_1  and  O_2
REMARK    2  A    between atoms: O_2  and  C_3
REMARK    3  A    between atoms: C_8  and  O_9
REMARK    4  A    between atoms: O_9  and  C_10
REMARK    5  A    between atoms: C_10  and  C_11
REMARK    6  A    between atoms: C_10  and  C_12
REMARK    7  A    between atoms: C_13  and  C_14
REMARK    8  A    between atoms: N_21  and  C_22
REMARK    9  A    between atoms: C_25  and  N_26
REMARK   10  A    between atoms: C_27  and  C_28
REMARK                            x       y       z     vdW  Elec       q    Type
REMARK                         _______ _______ _______ _____ _____    ______ ____
ROOT
ATOM      1  C   UNL     1       0.880  15.931  21.423  0.00  0.00    +0.000 A 
ATOM      2  C   UNL     1       0.256  15.087  22.348  0.00  0.00    +0.000 A 
ATOM      3  C   UNL     1      -0.335  13.882  21.953  0.00  0.00    +0.000 A 
ATOM      4  C   UNL     1      -0.410  13.547  20.605  0.00  0.00    +0.000 A 
ATOM      5  C   UNL     1       0.171  14.413  19.666  0.00  0.00    +0.000 A 
ATOM      6  C   UNL     1       0.813  15.604  20.057  0.00  0.00    +0.000 A 
ATOM      7  C   UNL     1      -1.095  12.247  20.219  0.00  0.00    +0.000 C 
ATOM      8  N   UNL     1      -0.803  11.167  21.199  0.00  0.00    +0.000 N 
ATOM      9  C   UNL     1      -0.910  11.483  22.562  0.00  0.00    +0.000 C 
ATOM     10  O   UNL     1      -1.077  10.643  23.451  0.00  0.00    +0.000 OA
ATOM     11  C   UNL     1      -0.875  12.942  22.980  0.00  0.00    +0.000 C 
ENDROOT
BRANCH   7  12
ATOM     12  C   UNL     1      -2.590  12.415  19.915  0.00  0.00    +0.000 A 
ATOM     13  C   UNL     1      -3.133  11.786  18.775  0.00  0.00    +0.000 A 
ATOM     14  C   UNL     1      -4.491  11.920  18.456  0.00  0.00    +0.000 A 
ATOM     15  C   UNL     1      -5.322  12.692  19.260  0.00  0.00    +0.000 A 
ATOM     16 CL   UNL     1      -6.990  12.856  18.872  0.00  0.00    +0.000 Cl
ATOM     17  C   UNL     1      -4.807  13.328  20.385  0.00  0.00    +0.000 A 
ATOM     18  C   UNL     1      -3.457  13.182  20.711  0.00  0.00    +0.000 A 
ENDBRANCH   7  12
BRANCH   8  19
ATOM     19  C   UNL     1      -0.955   9.742  20.765  0.00  0.00    +0.000 C 
ATOM     20  C   UNL     1      -0.576   9.480  19.288  0.00  0.00    +0.000 C 
ATOM     21  C   UNL     1       0.922   9.693  19.027  0.00  0.00    +0.000 C 
ATOM     22  C   UNL     1       1.834   8.894  19.972  0.00  0.00    +0.000 C 
ATOM     23  C   UNL     1       1.368   8.930  21.431  0.00  0.00    +0.000 C 
ATOM     24  C   UNL     1      -0.135   8.703  21.572  0.00  0.00    +0.000 C 
BRANCH  22  25
ATOM     25  N   UNL     1       1.971   7.514  19.523  0.00  0.00    +0.000 N 
ATOM     26  C   UNL     1       2.701   7.185  18.403  0.00  0.00    +0.000 C 
ATOM     27  C   UNL     1       2.708   5.718  18.076  0.00  0.00    +0.000 C 
ATOM     28  O   UNL     1       3.297   8.004  17.712  0.00  0.00    +0.000 OA
ATOM     29  H   UNL     1       1.434   6.793  19.987  0.00  0.00    +0.000 HD
ENDBRANCH  22  25
ENDBRANCH   8  19
BRANCH   1  31
ATOM     30  C   UNL     1       2.621  16.845  22.760  0.00  0.00    +0.000 C 
ATOM     31  O   UNL     1       1.574  17.046  21.816  0.00  0.00    +0.000 OA
ENDBRANCH   1  31
BRANCH   6  32
ATOM     32  O   UNL     1       1.385  16.276  19.007  0.00  0.00    +0.000 OA
BRANCH  32  33
ATOM     33  C   UNL     1       2.499  15.684  18.326  0.00  0.00    +0.000 C 
ATOM     34  C   UNL     1       2.973  16.637  17.233  0.00  0.00    +0.000 C 
ATOM     35  C   UNL     1       3.602  15.464  19.356  0.00  0.00    +0.000 C 
ENDBRANCH  32  33
ENDBRANCH   6  32
TORSDOF 6
ENDMDL
MODEL 7
REMARK VINA RESULT:      -6.2      3.785      8.144
REMARK  Name = 
REMARK  10 active torsions:
REMARK  status: ('A' for Active; 'I' for Inactive)
REMARK    1  A    between atoms: C_1  and  O_2
REMARK    2  A    between atoms: O_2  and  C_3
REMARK    3  A    between atoms: C_8  and  O_9
REMARK    4  A    between atoms: O_9  and  C_10
REMARK    5  A    between atoms: C_10  and  C_11
REMARK    6  A    between atoms: C_10  and  C_12
REMARK    7  A    between atoms: C_13  and  C_14
REMARK    8  A    between atoms: N_21  and  C_22
REMARK    9  A    between atoms: C_25  and  N_26
REMARK   10  A    between atoms: C_27  and  C_28
REMARK                            x       y       z     vdW  Elec       q    Type
REMARK                         _______ _______ _______ _____ _____    ______ ____
ROOT
ATOM      1  C   UNL     1       0.237  16.484  21.112  0.00  0.00    +0.000 A 
ATOM      2  C   UNL     1      -0.199  15.614  22.117  0.00  0.00    +0.000 A 
ATOM      3  C   UNL     1      -0.728  14.355  21.814  0.00  0.00    +0.000 A 
ATOM      4  C   UNL     1      -0.932  13.981  20.490  0.00  0.00    +0.000 A 
ATOM      5  C   UNL     1      -0.542  14.869  19.475  0.00  0.00    +0.000 A 
ATOM      6  C   UNL     1       0.036  16.118  19.769  0.00  0.00    +0.000 A 
ATOM      7  C   UNL     1      -1.544  12.620  20.208  0.00  0.00    +0.000 C 
ATOM      8  N   UNL     1      -1.048  11.592  21.162  0.00  0.00    +0.000 N 
ATOM      9  C   UNL     1      -1.019  11.932  22.523  0.00  0.00    +0.000 C 
ATOM     10  O   UNL     1      -1.007  11.103  23.437  0.00  0.00    +0.000 OA
ATOM     11  C   UNL     1      -1.060  13.399  22.913  0.00  0.00    +0.000 C 
ENDROOT
BRANCH   7  12
ATOM     12  C   UNL     1      -3.074  12.655  20.083  0.00  0.00    +0.000 A 
ATOM     13  C   UNL     1      -3.687  12.022  18.982  0.00  0.00    +0.000 A 
ATOM     14  C   UNL     1      -5.079  12.037  18.825  0.00  0.00    +0.000 A 
ATOM     15  C   UNL     1      -5.877  12.694  19.755  0.00  0.00    +0.000 A 
ATOM     16 CL   UNL     1      -7.587  12.712  19.566  0.00  0.00    +0.000 Cl
ATOM     17  C   UNL     1      -5.294  13.333  20.844  0.00  0.00    +0.000 A 
ATOM     18  C   UNL     1      -3.908  13.305  21.008  0.00  0.00    +0.000 A 
ENDBRANCH   7  12
BRANCH   8  19
ATOM     19  C   UNL     1      -1.127  10.149  20.769  0.00  0.00    +0.000 C 
ATOM     20  C   UNL     1      -0.819   9.874  19.279  0.00  0.00    +0.000 C 
ATOM     21  C   UNL     1       0.643  10.179  18.923  0.00  0.00    +0.000 C 
ATOM     22  C   UNL     1       1.662   9.468  19.830  0.00  0.00    +0.000 C 
ATOM     23  C   UNL     1       1.281   9.512  21.313  0.00  0.00    +0.000 C 
ATOM     24  C   UNL     1      -0.193   9.189  21.549  0.00  0.00    +0.000 C 
BRANCH  22  25
ATOM     25  N   UNL     1       1.865   8.088  19.404  0.00  0.00    +0.000 N 
ATOM     26  C   UNL     1       2.407   7.781  18.176  0.00  0.00    +0.000 C 
ATOM     27  C   UNL     1       2.516   6.308  17.898  0.00  0.00    +0.000 C 
ATOM     28  O   UNL     1       2.770   8.621  17.360  0.00  0.00    +0.000 OA
ATOM     29  H   UNL     1       1.508   7.340  19.983  0.00  0.00    +0.000 HD
ENDBRANCH  22  25
ENDBRANCH   8  19
BRANCH   1  31
ATOM     30  C   UNL     1       0.544  18.275  22.646  0.00  0.00    +0.000 C 
ATOM     31  O   UNL     1       0.874  17.662  21.403  0.00  0.00    +0.000 OA
ENDBRANCH   1  31
BRANCH   6  32
ATOM     32  O   UNL     1       0.421  16.810  18.648  0.00  0.00    +0.000 OA
BRANCH  32  33
ATOM     33  C   UNL     1      -0.588  17.335  17.775  0.00  0.00    +0.000 C 
ATOM     34  C   UNL     1      -1.565  18.170  18.597  0.00  0.00    +0.000 C 
ATOM     35  C   UNL     1       0.111  18.203  16.735  0.00  0.00    +0.000 C 
ENDBRANCH  32  33
ENDBRANCH   6  32
TORSDOF 6
ENDMDL
MODEL 8
REMARK VINA RESULT:      -6.0      3.808      6.839
REMARK  Name = 
REMARK  10 active torsions:
REMARK  status: ('A' for Active; 'I' for Inactive)
REMARK    1  A    between atoms: C_1  and  O_2
REMARK    2  A    between atoms: O_2  and  C_3
REMARK    3  A    between atoms: C_8  and  O_9
REMARK    4  A    between atoms: O_9  and  C_10
REMARK    5  A    between atoms: C_10  and  C_11
REMARK    6  A    between atoms: C_10  and  C_12
REMARK    7  A    between atoms: C_13  and  C_14
REMARK    8  A    between atoms: N_21  and  C_22
REMARK    9  A    between atoms: C_25  and  N_26
REMARK   10  A    between atoms: C_27  and  C_28
REMARK                            x       y       z     vdW  Elec       q    Type
REMARK                         _______ _______ _______ _____ _____    ______ ____
ROOT
ATOM      1  C   UNL     1       2.008  14.331  19.097  0.00  0.00    +0.000 A 
ATOM      2  C   UNL     1       1.838  12.967  19.362  0.00  0.00    +0.000 A 
ATOM      3  C   UNL     1       0.569  12.380  19.379  0.00  0.00    +0.000 A 
ATOM      4  C   UNL     1      -0.569  13.166  19.239  0.00  0.00    +0.000 A 
ATOM      5  C   UNL     1      -0.410  14.544  19.022  0.00  0.00    +0.000 A 
ATOM      6  C   UNL     1       0.865  15.138  18.954  0.00  0.00    +0.000 A 
ATOM      7  C   UNL     1      -1.928  12.491  19.303  0.00  0.00    +0.000 C 
ATOM      8  N   UNL     1      -1.906  11.160  18.639  0.00  0.00    +0.000 N 
ATOM      9  C   UNL     1      -0.833  10.306  18.936  0.00  0.00    +0.000 C 
ATOM     10  O   UNL     1      -0.866   9.082  18.785  0.00  0.00    +0.000 OA
ATOM     11  C   UNL     1       0.432  10.900  19.532  0.00  0.00    +0.000 C 
ENDROOT
BRANCH   7  12
ATOM     12  C   UNL     1      -2.529  12.465  20.716  0.00  0.00    +0.000 A 
ATOM     13  C   UNL     1      -3.884  12.814  20.891  0.00  0.00    +0.000 A 
ATOM     14  C   UNL     1      -4.469  12.811  22.164  0.00  0.00    +0.000 A 
ATOM     15  C   UNL     1      -3.710  12.474  23.279  0.00  0.00    +0.000 A 
ATOM     16 CL   UNL     1      -4.427  12.467  24.842  0.00  0.00    +0.000 Cl
ATOM     17  C   UNL     1      -2.370  12.134  23.131  0.00  0.00    +0.000 A 
ATOM     18  C   UNL     1      -1.790  12.122  21.860  0.00  0.00    +0.000 A 
ENDBRANCH   7  12
BRANCH   8  19
ATOM     19  C   UNL     1      -3.198  10.572  18.164  0.00  0.00    +0.000 C 
ATOM     20  C   UNL     1      -4.082  11.545  17.348  0.00  0.00    +0.000 C 
ATOM     21  C   UNL     1      -3.439  11.925  16.007  0.00  0.00    +0.000 C 
ATOM     22  C   UNL     1      -3.029  10.715  15.151  0.00  0.00    +0.000 C 
ATOM     23  C   UNL     1      -2.348   9.608  15.962  0.00  0.00    +0.000 C 
ATOM     24  C   UNL     1      -3.073   9.310  17.272  0.00  0.00    +0.000 C 
BRANCH  22  25
ATOM     25  N   UNL     1      -4.175  10.176  14.428  0.00  0.00    +0.000 N 
ATOM     26  C   UNL     1      -4.060   9.692  13.144  0.00  0.00    +0.000 C 
ATOM     27  C   UNL     1      -5.350   9.202  12.549  0.00  0.00    +0.000 C 
ATOM     28  O   UNL     1      -3.006   9.662  12.518  0.00  0.00    +0.000 OA
ATOM     29  H   UNL     1      -5.095  10.250  14.844  0.00  0.00    +0.000 HD
ENDBRANCH  22  25
ENDBRANCH   8  19
BRANCH   1  31
ATOM     30  C   UNL     1       3.665  15.180  17.618  0.00  0.00    +0.000 C 
ATOM     31  O   UNL     1       3.251  14.889  18.950  0.00  0.00    +0.000 OA
ENDBRANCH   1  31
BRANCH   6  32
ATOM     32  O   UNL     1       0.819  16.477  18.659  0.00  0.00    +0.000 OA
BRANCH  32  33
ATOM     33  C   UNL     1       0.381  17.396  19.668  0.00  0.00    +0.000 C 
ATOM     34  C   UNL     1       1.572  17.770  20.547  0.00  0.00    +0.000 C 
ATOM     35  C   UNL     1      -0.166  18.630  18.960  0.00  0.00    +0.000 C 
ENDBRANCH  32  33
ENDBRANCH   6  32
TORSDOF 6
ENDMDL
MODEL 9
REMARK VINA RESULT:      -5.9      4.012      7.407
REMARK  Name = 
REMARK  10 active torsions:
REMARK  status: ('A' for Active; 'I' for Inactive)
REMARK    1  A    between atoms: C_1  and  O_2
REMARK    2  A    between atoms: O_2  and  C_3
REMARK    3  A    between atoms: C_8  and  O_9
REMARK    4  A    between atoms: O_9  and  C_10
REMARK    5  A    between atoms: C_10  and  C_11
REMARK    6  A    between atoms: C_10  and  C_12
REMARK    7  A    between atoms: C_13  and  C_14
REMARK    8  A    between atoms: N_21  and  C_22
REMARK    9  A    between atoms: C_25  and  N_26
REMARK   10  A    between atoms: C_27  and  C_28
REMARK                            x       y       z     vdW  Elec       q    Type
REMARK                         _______ _______ _______ _____ _____    ______ ____
ROOT
ATOM      1  C   UNL     1      -0.850  11.136  18.336  0.00  0.00    +0.000 A 
ATOM      2  C   UNL     1      -1.061  12.508  18.157  0.00  0.00    +0.000 A 
ATOM      3  C   UNL     1      -0.395  13.456  18.940  0.00  0.00    +0.000 A 
ATOM      4  C   UNL     1       0.416  13.050  19.994  0.00  0.00    +0.000 A 
ATOM      5  C   UNL     1       0.594  11.675  20.211  0.00  0.00    +0.000 A 
ATOM      6  C   UNL     1      -0.032  10.711  19.397  0.00  0.00    +0.000 A 
ATOM      7  C   UNL     1       1.089  14.115  20.842  0.00  0.00    +0.000 C 
ATOM      8  N   UNL     1       1.534  15.268  20.015  0.00  0.00    +0.000 N 
ATOM      9  C   UNL     1       0.626  15.779  19.075  0.00  0.00    +0.000 C 
ATOM     10  O   UNL     1       0.689  16.920  18.609  0.00  0.00    +0.000 OA
ATOM     11  C   UNL     1      -0.540  14.911  18.636  0.00  0.00    +0.000 C 
ENDROOT
BRANCH   7  12
ATOM     12  C   UNL     1       0.266  14.522  22.073  0.00  0.00    +0.000 A 
ATOM     13  C   UNL     1       0.471  15.795  22.645  0.00  0.00    +0.000 A 
ATOM     14  C   UNL     1      -0.252  16.203  23.773  0.00  0.00    +0.000 A 
ATOM     15  C   UNL     1      -1.178  15.344  24.355  0.00  0.00    +0.000 A 
ATOM     16 CL   UNL     1      -2.069  15.843  25.739  0.00  0.00    +0.000 Cl
ATOM     17  C   UNL     1      -1.390  14.080  23.813  0.00  0.00    +0.000 A 
ATOM     18  C   UNL     1      -0.680  13.680  22.680  0.00  0.00    +0.000 A 
ENDBRANCH   7  12
BRANCH   8  19
ATOM     19  C   UNL     1       2.618  16.157  20.543  0.00  0.00    +0.000 C 
ATOM     20  C   UNL     1       3.716  15.418  21.343  0.00  0.00    +0.000 C 
ATOM     21  C   UNL     1       4.539  14.470  20.459  0.00  0.00    +0.000 C 
ATOM     22  C   UNL     1       5.135  15.147  19.214  0.00  0.00    +0.000 C 
ATOM     23  C   UNL     1       4.148  16.080  18.505  0.00  0.00    +0.000 C 
ATOM     24  C   UNL     1       3.389  16.978  19.480  0.00  0.00    +0.000 C 
BRANCH  22  25
ATOM     25  N   UNL     1       6.358  15.868  19.547  0.00  0.00    +0.000 N 
ATOM     26  C   UNL     1       7.456  15.854  18.717  0.00  0.00    +0.000 C 
ATOM     27  C   UNL     1       8.634  16.631  19.236  0.00  0.00    +0.000 C 
ATOM     28  O   UNL     1       7.496  15.260  17.646  0.00  0.00    +0.000 OA
ATOM     29  H   UNL     1       6.435  16.307  20.455  0.00  0.00    +0.000 HD
ENDBRANCH  22  25
ENDBRANCH   8  19
BRANCH   1  31
ATOM     30  C   UNL     1      -2.509  10.630  16.708  0.00  0.00    +0.000 C 
ATOM     31  O   UNL     1      -1.397  10.205  17.491  0.00  0.00    +0.000 OA
ENDBRANCH   1  31
BRANCH   6  32
ATOM     32  O   UNL     1       0.323   9.425  19.716  0.00  0.00    +0.000 OA
BRANCH  32  33
ATOM     33  C   UNL     1       1.660   8.986  19.443  0.00  0.00    +0.000 C 
ATOM     34  C   UNL     1       1.902   7.662  20.162  0.00  0.00    +0.000 C 
ATOM     35  C   UNL     1       1.785   8.802  17.934  0.00  0.00    +0.000 C 
ENDBRANCH  32  33
ENDBRANCH   6  32
TORSDOF 6
ENDMDL
