MODEL 1
REMARK VINA RESULT:      -7.2      0.000      0.000
REMARK  Name = 
REMARK  8 active torsions:
REMARK  status: ('A' for Active; 'I' for Inactive)
REMARK    1  A    between atoms: C_1  and  C_2
REMARK    2  A    between atoms: C_2  and  C_3
REMARK    3  A    between atoms: C_3  and  C_4
REMARK    4  A    between atoms: C_6  and  C_7
REMARK    5  A    between atoms: C_9  and  S_10
REMARK    6  A    between atoms: S_10  and  C_11
REMARK    7  A    between atoms: C_17  and  O_18
REMARK    8  A    between atoms: O_18  and  C_19
REMARK                            x       y       z     vdW  Elec       q    Type
REMARK                         _______ _______ _______ _____ _____    ______ ____
ROOT
ATOM      1  C   UNL     1       2.882   6.634  18.087  0.00  0.00    +0.000 A 
ATOM      2  N   UNL     1       1.789   5.977  18.429  0.00  0.00    +0.000 NA
ATOM      3  C   UNL     1       2.194   4.800  19.009  0.00  0.00    +0.000 A 
ATOM      4  C   UNL     1       1.156   3.886  19.542  0.00  0.00    +0.000 C 
ATOM      5  C   UNL     1       3.574   4.704  18.977  0.00  0.00    +0.000 A 
ATOM      6  C   UNL     1       4.545   3.720  19.385  0.00  0.00    +0.000 A 
ATOM      7  N   UNL     1       5.817   3.924  19.217  0.00  0.00    +0.000 NA
ATOM      8  C   UNL     1       6.245   5.152  18.677  0.00  0.00    +0.000 A 
ATOM      9  C   UNL     1       7.613   5.391  18.583  0.00  0.00    +0.000 A 
ATOM     10  C   UNL     1       8.067   6.607  18.079  0.00  0.00    +0.000 A 
ATOM     11  C   UNL     1       7.131   7.543  17.671  0.00  0.00    +0.000 A 
ATOM     12  N   UNL     1       5.793   7.353  17.727  0.00  0.00    +0.000 NA
ATOM     13  C   UNL     1       5.381   6.170  18.241  0.00  0.00    +0.000 A 
ATOM     14  N   UNL     1       4.003   5.890  18.401  0.00  0.00    +0.000 N 
ENDROOT
BRANCH   6  15
ATOM     15  S   UNL     1       4.000   2.139  20.120  0.00  0.00    +0.000 S 
ATOM     16  C   UNL     1       3.632   1.267  18.581  0.00  0.00    +0.000 C 
ATOM     17  O   UNL     1       5.296   1.490  20.731  0.00  0.00    +0.000 OA
ENDBRANCH   6  15
BRANCH  11  18
ATOM     18  O   UNL     1       7.640   8.737  17.201  0.00  0.00    +0.000 OA
ATOM     19  C   UNL     1       8.428   9.427  18.163  0.00  0.00    +0.000 C 
ENDBRANCH  11  18
BRANCH   1  20
ATOM     20  C   UNL     1       2.856   8.003  17.486  0.00  0.00    +0.000 C 
BRANCH  20  22
ATOM     21  C   UNL     1       1.924  10.275  18.045  0.00  0.00    +0.000 C 
ATOM     22  C   UNL     1       1.612   8.793  17.893  0.00  0.00    +0.000 C 
ENDBRANCH  20  22
ENDBRANCH   1  20
TORSDOF 4
ENDMDL
MODEL 2
REMARK VINA RESULT:      -6.2      2.994      5.848
REMARK  Name = 
REMARK  8 active torsions:
REMARK  status: ('A' for Active; 'I' for Inactive)
REMARK    1  A    between atoms: C_1  and  C_2
REMARK    2  A    between atoms: C_2  and  C_3
REMARK    3  A    between atoms: C_3  and  C_4
REMARK    4  A    between atoms: C_6  and  C_7
REMARK    5  A    between atoms: C_9  and  S_10
REMARK    6  A    between atoms: S_10  and  C_11
REMARK    7  A    between atoms: C_17  and  O_18
REMARK    8  A    between atoms: O_18  and  C_19
REMARK                            x       y       z     vdW  Elec       q    Type
REMARK                         _______ _______ _______ _____ _____    ______ ____
ROOT
ATOM      1  C   UNL     1       3.596   6.736  17.483  0.00  0.00    +0.000 A 
ATOM      2  N   UNL     1       3.392   7.995  17.140  0.00  0.00    +0.000 NA
ATOM      3  C   UNL     1       2.636   8.564  18.136  0.00  0.00    +0.000 A 
ATOM      4  C   UNL     1       2.306  10.005  18.030  0.00  0.00    +0.000 C 
ATOM      5  C   UNL     1       2.319   7.617  19.093  0.00  0.00    +0.000 A 
ATOM      6  C   UNL     1       1.547   7.605  20.310  0.00  0.00    +0.000 A 
ATOM      7  N   UNL     1       1.431   6.523  21.020  0.00  0.00    +0.000 NA
ATOM      8  C   UNL     1       2.118   5.363  20.611  0.00  0.00    +0.000 A 
ATOM      9  C   UNL     1       2.054   4.237  21.427  0.00  0.00    +0.000 A 
ATOM     10  C   UNL     1       2.745   3.084  21.064  0.00  0.00    +0.000 A 
ATOM     11  C   UNL     1       3.471   3.093  19.885  0.00  0.00    +0.000 A 
ATOM     12  N   UNL     1       3.553   4.155  19.052  0.00  0.00    +0.000 NA
ATOM     13  C   UNL     1       2.887   5.269  19.440  0.00  0.00    +0.000 A 
ATOM     14  N   UNL     1       2.953   6.456  18.674  0.00  0.00    +0.000 N 
ENDROOT
BRANCH   6  15
ATOM     15  S   UNL     1       0.682   9.115  20.866  0.00  0.00    +0.000 S 
ATOM     16  C   UNL     1      -0.654   8.310  21.778  0.00  0.00    +0.000 C 
ATOM     17  O   UNL     1       1.638   9.784  21.921  0.00  0.00    +0.000 OA
ENDBRANCH   6  15
BRANCH  11  18
ATOM     18  O   UNL     1       4.154   1.930  19.589  0.00  0.00    +0.000 OA
ATOM     19  C   UNL     1       3.721   1.318  18.381  0.00  0.00    +0.000 C 
ENDBRANCH  11  18
BRANCH   1  20
ATOM     20  C   UNL     1       4.442   5.799  16.682  0.00  0.00    +0.000 C 
BRANCH  20  22
ATOM     21  C   UNL     1       6.652   6.265  17.796  0.00  0.00    +0.000 C 
ATOM     22  C   UNL     1       5.867   6.320  16.493  0.00  0.00    +0.000 C 
ENDBRANCH  20  22
ENDBRANCH   1  20
TORSDOF 4
ENDMDL
MODEL 3
REMARK VINA RESULT:      -6.1      7.461     10.813
REMARK  Name = 
REMARK  8 active torsions:
REMARK  status: ('A' for Active; 'I' for Inactive)
REMARK    1  A    between atoms: C_1  and  C_2
REMARK    2  A    between atoms: C_2  and  C_3
REMARK    3  A    between atoms: C_3  and  C_4
REMARK    4  A    between atoms: C_6  and  C_7
REMARK    5  A    between atoms: C_9  and  S_10
REMARK    6  A    between atoms: S_10  and  C_11
REMARK    7  A    between atoms: C_17  and  O_18
REMARK    8  A    between atoms: O_18  and  C_19
REMARK                            x       y       z     vdW  Elec       q    Type
REMARK                         _______ _______ _______ _____ _____    ______ ____
ROOT
ATOM      1  C   UNL     1      -0.477  11.785  19.808  0.00  0.00    +0.000 A 
ATOM      2  N   UNL     1      -0.144  12.159  21.030  0.00  0.00    +0.000 NA
ATOM      3  C   UNL     1      -1.301  12.543  21.661  0.00  0.00    +0.000 A 
ATOM      4  C   UNL     1      -1.222  12.960  23.081  0.00  0.00    +0.000 C 
ATOM      5  C   UNL     1      -2.371  12.454  20.789  0.00  0.00    +0.000 A 
ATOM      6  C   UNL     1      -3.781  12.746  20.859  0.00  0.00    +0.000 A 
ATOM      7  N   UNL     1      -4.557  12.551  19.835  0.00  0.00    +0.000 NA
ATOM      8  C   UNL     1      -4.012  11.995  18.662  0.00  0.00    +0.000 A 
ATOM      9  C   UNL     1      -4.872  11.712  17.604  0.00  0.00    +0.000 A 
ATOM     10  C   UNL     1      -4.366  11.136  16.442  0.00  0.00    +0.000 A 
ATOM     11  C   UNL     1      -3.008  10.873  16.370  0.00  0.00    +0.000 A 
ATOM     12  N   UNL     1      -2.130  11.144  17.363  0.00  0.00    +0.000 NA
ATOM     13  C   UNL     1      -2.653  11.685  18.490  0.00  0.00    +0.000 A 
ATOM     14  N   UNL     1      -1.834  11.952  19.612  0.00  0.00    +0.000 N 
ENDROOT
BRANCH   6  15
ATOM     15  S   UNL     1      -4.503  13.434  22.389  0.00  0.00    +0.000 S 
ATOM     16  C   UNL     1      -6.141  13.822  21.734  0.00  0.00    +0.000 C 
ATOM     17  O   UNL     1      -4.663  12.211  23.365  0.00  0.00    +0.000 OA
ENDBRANCH   6  15
BRANCH  11  18
ATOM     18  O   UNL     1      -2.570  10.282  15.203  0.00  0.00    +0.000 OA
ATOM     19  C   UNL     1      -3.601  10.115  14.238  0.00  0.00    +0.000 C 
ENDBRANCH  11  18
BRANCH   1  20
ATOM     20  C   UNL     1       0.507  11.230  18.828  0.00  0.00    +0.000 C 
BRANCH  20  22
ATOM     21  C   UNL     1       1.637   9.156  17.953  0.00  0.00    +0.000 C 
ATOM     22  C   UNL     1       0.809   9.753  19.082  0.00  0.00    +0.000 C 
ENDBRANCH  20  22
ENDBRANCH   1  20
TORSDOF 4
ENDMDL
MODEL 4
REMARK VINA RESULT:      -5.9      3.328      5.509
REMARK  Name = 
REMARK  8 active torsions:
REMARK  status: ('A' for Active; 'I' for Inactive)
REMARK    1  A    between atoms: C_1  and  C_2
REMARK    2  A    between atoms: C_2  and  C_3
REMARK    3  A    between atoms: C_3  and  C_4
REMARK    4  A    between atoms: C_6  and  C_7
REMARK    5  A    between atoms: C_9  and  S_10
REMARK    6  A    between atoms: S_10  and  C_11
REMARK    7  A    between atoms: C_17  and  O_18
REMARK    8  A    between atoms: O_18  and  C_19
REMARK                            x       y       z     vdW  Elec       q    Type
REMARK                         _______ _______ _______ _____ _____    ______ ____
ROOT
ATOM      1  C   UNL     1       2.308   5.385  20.308  0.00  0.00    +0.000 A 
ATOM      2  N   UNL     1       1.442   5.949  21.129  0.00  0.00    +0.000 NA
ATOM      3  C   UNL     1       1.202   7.215  20.653  0.00  0.00    +0.000 A 
ATOM      4  C   UNL     1       0.211   8.057  21.364  0.00  0.00    +0.000 C 
ATOM      5  C   UNL     1       1.982   7.458  19.537  0.00  0.00    +0.000 A 
ATOM      6  C   UNL     1       2.190   8.578  18.654  0.00  0.00    +0.000 A 
ATOM      7  N   UNL     1       3.018   8.499  17.655  0.00  0.00    +0.000 NA
ATOM      8  C   UNL     1       3.676   7.279  17.410  0.00  0.00    +0.000 A 
ATOM      9  C   UNL     1       4.493   7.184  16.287  0.00  0.00    +0.000 A 
ATOM     10  C   UNL     1       5.136   5.982  16.003  0.00  0.00    +0.000 A 
ATOM     11  C   UNL     1       4.948   4.913  16.863  0.00  0.00    +0.000 A 
ATOM     12  N   UNL     1       4.177   4.959  17.974  0.00  0.00    +0.000 NA
ATOM     13  C   UNL     1       3.549   6.135  18.214  0.00  0.00    +0.000 A 
ATOM     14  N   UNL     1       2.672   6.275  19.315  0.00  0.00    +0.000 N 
ENDROOT
BRANCH   6  15
ATOM     15  S   UNL     1       1.313  10.154  18.944  0.00  0.00    +0.000 S 
ATOM     16  C   UNL     1       2.373  11.214  17.935  0.00  0.00    +0.000 C 
ATOM     17  O   UNL     1      -0.063  10.014  18.195  0.00  0.00    +0.000 OA
ENDBRANCH   6  15
BRANCH  11  18
ATOM     18  O   UNL     1       5.591   3.742  16.518  0.00  0.00    +0.000 OA
ATOM     19  C   UNL     1       6.144   3.771  15.208  0.00  0.00    +0.000 C 
ENDBRANCH  11  18
BRANCH   1  20
ATOM     20  C   UNL     1       2.767   3.969  20.452  0.00  0.00    +0.000 C 
BRANCH  20  22
ATOM     21  C   UNL     1       0.977   2.839  19.088  0.00  0.00    +0.000 C 
ATOM     22  C   UNL     1       1.602   2.980  20.469  0.00  0.00    +0.000 C 
ENDBRANCH  20  22
ENDBRANCH   1  20
TORSDOF 4
ENDMDL
MODEL 5
REMARK VINA RESULT:      -5.8      8.935     11.723
REMARK  Name = 
REMARK  8 active torsions:
REMARK  status: ('A' for Active; 'I' for Inactive)
REMARK    1  A    between atoms: C_1  and  C_2
REMARK    2  A    between atoms: C_2  and  C_3
REMARK    3  A    between atoms: C_3  and  C_4
REMARK    4  A    between atoms: C_6  and  C_7
REMARK    5  A    between atoms: C_9  and  S_10
REMARK    6  A    between atoms: S_10  and  C_11
REMARK    7  A    between atoms: C_17  and  O_18
REMARK    8  A    between atoms: O_18  and  C_19
REMARK                            x       y       z     vdW  Elec       q    Type
REMARK                         _______ _______ _______ _____ _____    ______ ____
ROOT
ATOM      1  C   UNL     1      -1.609  12.955  20.046  0.00  0.00    +0.000 A 
ATOM      2  N   UNL     1      -1.047  13.387  21.160  0.00  0.00    +0.000 NA
ATOM      3  C   UNL     1      -2.015  13.361  22.134  0.00  0.00    +0.000 A 
ATOM      4  C   UNL     1      -1.633  13.747  23.513  0.00  0.00    +0.000 C 
ATOM      5  C   UNL     1      -3.221  12.952  21.595  0.00  0.00    +0.000 A 
ATOM      6  C   UNL     1      -4.561  12.770  22.095  0.00  0.00    +0.000 A 
ATOM      7  N   UNL     1      -5.517  12.359  21.317  0.00  0.00    +0.000 NA
ATOM      8  C   UNL     1      -5.216  12.038  19.980  0.00  0.00    +0.000 A 
ATOM      9  C   UNL     1      -6.232  11.517  19.182  0.00  0.00    +0.000 A 
ATOM     10  C   UNL     1      -5.958  11.164  17.863  0.00  0.00    +0.000 A 
ATOM     11  C   UNL     1      -4.674  11.356  17.380  0.00  0.00    +0.000 A 
ATOM     12  N   UNL     1      -3.659  11.872  18.109  0.00  0.00    +0.000 NA
ATOM     13  C   UNL     1      -3.948  12.188  19.394  0.00  0.00    +0.000 A 
ATOM     14  N   UNL     1      -2.946  12.678  20.263  0.00  0.00    +0.000 N 
ENDROOT
BRANCH   6  15
ATOM     15  S   UNL     1      -4.951  13.151  23.839  0.00  0.00    +0.000 S 
ATOM     16  C   UNL     1      -6.752  13.068  23.710  0.00  0.00    +0.000 C 
ATOM     17  O   UNL     1      -4.479  11.895  24.660  0.00  0.00    +0.000 OA
ENDBRANCH   6  15
BRANCH  11  18
ATOM     18  O   UNL     1      -4.458  10.967  16.074  0.00  0.00    +0.000 OA
ATOM     19  C   UNL     1      -3.080  10.888  15.733  0.00  0.00    +0.000 C 
ENDBRANCH  11  18
BRANCH   1  20
ATOM     20  C   UNL     1      -0.854  12.771  18.768  0.00  0.00    +0.000 C 
BRANCH  20  22
ATOM     21  C   UNL     1      -0.493  10.283  18.618  0.00  0.00    +0.000 C 
ATOM     22  C   UNL     1       0.165  11.635  18.855  0.00  0.00    +0.000 C 
ENDBRANCH  20  22
ENDBRANCH   1  20
TORSDOF 4
ENDMDL
MODEL 6
REMARK VINA RESULT:      -5.7      1.006      1.069
REMARK  Name = 
REMARK  8 active torsions:
REMARK  status: ('A' for Active; 'I' for Inactive)
REMARK    1  A    between atoms: C_1  and  C_2
REMARK    2  A    between atoms: C_2  and  C_3
REMARK    3  A    between atoms: C_3  and  C_4
REMARK    4  A    between atoms: C_6  and  C_7
REMARK    5  A    between atoms: C_9  and  S_10
REMARK    6  A    between atoms: S_10  and  C_11
REMARK    7  A    between atoms: C_17  and  O_18
REMARK    8  A    between atoms: O_18  and  C_19
REMARK                            x       y       z     vdW  Elec       q    Type
REMARK                         _______ _______ _______ _____ _____    ______ ____
ROOT
ATOM      1  C   UNL     1       2.797   6.727  18.300  0.00  0.00    +0.000 A 
ATOM      2  N   UNL     1       1.674   6.166  18.709  0.00  0.00    +0.000 NA
ATOM      3  C   UNL     1       1.998   4.918  19.183  0.00  0.00    +0.000 A 
ATOM      4  C   UNL     1       0.917   4.086  19.763  0.00  0.00    +0.000 C 
ATOM      5  C   UNL     1       3.350   4.680  19.012  0.00  0.00    +0.000 A 
ATOM      6  C   UNL     1       4.239   3.576  19.270  0.00  0.00    +0.000 A 
ATOM      7  N   UNL     1       5.506   3.657  18.991  0.00  0.00    +0.000 NA
ATOM      8  C   UNL     1       6.016   4.865  18.480  0.00  0.00    +0.000 A 
ATOM      9  C   UNL     1       7.388   4.964  18.268  0.00  0.00    +0.000 A 
ATOM     10  C   UNL     1       7.926   6.156  17.789  0.00  0.00    +0.000 A 
ATOM     11  C   UNL     1       7.066   7.210  17.525  0.00  0.00    +0.000 A 
ATOM     12  N   UNL     1       5.726   7.158  17.699  0.00  0.00    +0.000 NA
ATOM     13  C   UNL     1       5.233   5.994  18.186  0.00  0.00    +0.000 A 
ATOM     14  N   UNL     1       3.854   5.851  18.463  0.00  0.00    +0.000 N 
ENDROOT
BRANCH   6  15
ATOM     15  S   UNL     1       3.591   2.017  19.966  0.00  0.00    +0.000 S 
ATOM     16  C   UNL     1       2.911   2.695  21.496  0.00  0.00    +0.000 C 
ATOM     17  O   UNL     1       2.379   1.617  19.048  0.00  0.00    +0.000 OA
ENDBRANCH   6  15
BRANCH  11  18
ATOM     18  O   UNL     1       7.659   8.372  17.074  0.00  0.00    +0.000 OA
ATOM     19  C   UNL     1       8.300   9.111  18.106  0.00  0.00    +0.000 C 
ENDBRANCH  11  18
BRANCH   1  20
ATOM     20  C   UNL     1       2.869   8.127  17.780  0.00  0.00    +0.000 C 
BRANCH  20  22
ATOM     21  C   UNL     1       1.555  10.204  18.330  0.00  0.00    +0.000 C 
ATOM     22  C   UNL     1       1.498   8.802  17.739  0.00  0.00    +0.000 C 
ENDBRANCH  20  22
ENDBRANCH   1  20
TORSDOF 4
ENDMDL
MODEL 7
REMARK VINA RESULT:      -5.7      6.869      9.732
REMARK  Name = 
REMARK  8 active torsions:
REMARK  status: ('A' for Active; 'I' for Inactive)
REMARK    1  A    between atoms: C_1  and  C_2
REMARK    2  A    between atoms: C_2  and  C_3
REMARK    3  A    between atoms: C_3  and  C_4
REMARK    4  A    between atoms: C_6  and  C_7
REMARK    5  A    between atoms: C_9  and  S_10
REMARK    6  A    between atoms: S_10  and  C_11
REMARK    7  A    between atoms: C_17  and  O_18
REMARK    8  A    between atoms: O_18  and  C_19
REMARK                            x       y       z     vdW  Elec       q    Type
REMARK                         _______ _______ _______ _____ _____    ______ ____
ROOT
ATOM      1  C   UNL     1      -3.604  10.607  17.243  0.00  0.00    +0.000 A 
ATOM      2  N   UNL     1      -4.812  11.134  17.317  0.00  0.00    +0.000 NA
ATOM      3  C   UNL     1      -4.797  12.026  18.360  0.00  0.00    +0.000 A 
ATOM      4  C   UNL     1      -6.026  12.810  18.631  0.00  0.00    +0.000 C 
ATOM      5  C   UNL     1      -3.562  12.011  18.982  0.00  0.00    +0.000 A 
ATOM      6  C   UNL     1      -2.975  12.678  20.116  0.00  0.00    +0.000 A 
ATOM      7  N   UNL     1      -1.744  12.448  20.466  0.00  0.00    +0.000 NA
ATOM      8  C   UNL     1      -0.967  11.571  19.686  0.00  0.00    +0.000 A 
ATOM      9  C   UNL     1       0.373  11.400  20.023  0.00  0.00    +0.000 A 
ATOM     10  C   UNL     1       1.175  10.561  19.254  0.00  0.00    +0.000 A 
ATOM     11  C   UNL     1       0.603   9.907  18.175  0.00  0.00    +0.000 A 
ATOM     12  N   UNL     1      -0.696  10.028  17.817  0.00  0.00    +0.000 NA
ATOM     13  C   UNL     1      -1.446  10.866  18.570  0.00  0.00    +0.000 A 
ATOM     14  N   UNL     1      -2.801  11.112  18.248  0.00  0.00    +0.000 N 
ENDROOT
BRANCH   6  15
ATOM     15  S   UNL     1      -3.966  13.845  21.113  0.00  0.00    +0.000 S 
ATOM     16  C   UNL     1      -4.774  12.631  22.180  0.00  0.00    +0.000 C 
ATOM     17  O   UNL     1      -2.929  14.632  21.995  0.00  0.00    +0.000 OA
ENDBRANCH   6  15
BRANCH  11  18
ATOM     18  O   UNL     1       1.452   9.107  17.437  0.00  0.00    +0.000 OA
ATOM     19  C   UNL     1       2.309   8.308  18.242  0.00  0.00    +0.000 C 
ENDBRANCH  11  18
BRANCH   1  20
ATOM     20  C   UNL     1      -3.201   9.634  16.180  0.00  0.00    +0.000 C 
BRANCH  20  22
ATOM     21  C   UNL     1      -3.837   9.909  13.759  0.00  0.00    +0.000 C 
ATOM     22  C   UNL     1      -2.869  10.325  14.858  0.00  0.00    +0.000 C 
ENDBRANCH  20  22
ENDBRANCH   1  20
TORSDOF 4
ENDMDL
MODEL 8
REMARK VINA RESULT:      -5.7      8.030     10.906
REMARK  Name = 
REMARK  8 active torsions:
REMARK  status: ('A' for Active; 'I' for Inactive)
REMARK    1  A    between atoms: C_1  and  C_2
REMARK    2  A    between atoms: C_2  and  C_3
REMARK    3  A    between atoms: C_3  and  C_4
REMARK    4  A    between atoms: C_6  and  C_7
REMARK    5  A    between atoms: C_9  and  S_10
REMARK    6  A    between atoms: S_10  and  C_11
REMARK    7  A    between atoms: C_17  and  O_18
REMARK    8  A    between atoms: O_18  and  C_19
REMARK                            x       y       z     vdW  Elec       q    Type
REMARK                         _______ _______ _______ _____ _____    ______ ____
ROOT
ATOM      1  C   UNL     1      -3.696  11.444  17.251  0.00  0.00    +0.000 A 
ATOM      2  N   UNL     1      -4.937  11.580  16.823  0.00  0.00    +0.000 NA
ATOM      3  C   UNL     1      -5.659  12.130  17.854  0.00  0.00    +0.000 A 
ATOM      4  C   UNL     1      -7.088  12.445  17.621  0.00  0.00    +0.000 C 
ATOM      5  C   UNL     1      -4.853  12.289  18.968  0.00  0.00    +0.000 A 
ATOM      6  C   UNL     1      -5.045  12.763  20.315  0.00  0.00    +0.000 A 
ATOM      7  N   UNL     1      -4.059  12.793  21.161  0.00  0.00    +0.000 NA
ATOM      8  C   UNL     1      -2.777  12.405  20.728  0.00  0.00    +0.000 A 
ATOM      9  C   UNL     1      -1.715  12.524  21.621  0.00  0.00    +0.000 A 
ATOM     10  C   UNL     1      -0.431  12.174  21.213  0.00  0.00    +0.000 A 
ATOM     11  C   UNL     1      -0.253  11.702  19.923  0.00  0.00    +0.000 A 
ATOM     12  N   UNL     1      -1.253  11.553  19.025  0.00  0.00    +0.000 NA
ATOM     13  C   UNL     1      -2.488  11.921  19.442  0.00  0.00    +0.000 A 
ATOM     14  N   UNL     1      -3.596  11.863  18.565  0.00  0.00    +0.000 N 
ENDROOT
BRANCH   6  15
ATOM     15  S   UNL     1      -6.698  13.302  20.874  0.00  0.00    +0.000 S 
ATOM     16  C   UNL     1      -7.379  11.669  21.239  0.00  0.00    +0.000 C 
ATOM     17  O   UNL     1      -6.461  14.031  22.247  0.00  0.00    +0.000 OA
ENDBRANCH   6  15
BRANCH  11  18
ATOM     18  O   UNL     1       1.045  11.393  19.569  0.00  0.00    +0.000 OA
ATOM     19  C   UNL     1       1.153  10.176  18.842  0.00  0.00    +0.000 C 
ENDBRANCH  11  18
BRANCH   1  20
ATOM     20  C   UNL     1      -2.584  10.941  16.387  0.00  0.00    +0.000 C 
BRANCH  20  22
ATOM     21  C   UNL     1      -3.086  10.025  14.095  0.00  0.00    +0.000 C 
ATOM     22  C   UNL     1      -2.990   9.707  15.580  0.00  0.00    +0.000 C 
ENDBRANCH  20  22
ENDBRANCH   1  20
TORSDOF 4
ENDMDL
MODEL 9
REMARK VINA RESULT:      -5.7      3.196      5.835
REMARK  Name = 
REMARK  8 active torsions:
REMARK  status: ('A' for Active; 'I' for Inactive)
REMARK    1  A    between atoms: C_1  and  C_2
REMARK    2  A    between atoms: C_2  and  C_3
REMARK    3  A    between atoms: C_3  and  C_4
REMARK    4  A    between atoms: C_6  and  C_7
REMARK    5  A    between atoms: C_9  and  S_10
REMARK    6  A    between atoms: S_10  and  C_11
REMARK    7  A    between atoms: C_17  and  O_18
REMARK    8  A    between atoms: O_18  and  C_19
REMARK                            x       y       z     vdW  Elec       q    Type
REMARK                         _______ _______ _______ _____ _____    ______ ____
ROOT
ATOM      1  C   UNL     1       3.041   4.633  20.239  0.00  0.00    +0.000 A 
ATOM      2  N   UNL     1       3.939   3.831  19.696  0.00  0.00    +0.000 NA
ATOM      3  C   UNL     1       4.490   4.507  18.635  0.00  0.00    +0.000 A 
ATOM      4  C   UNL     1       5.580   3.851  17.874  0.00  0.00    +0.000 C 
ATOM      5  C   UNL     1       3.880   5.740  18.487  0.00  0.00    +0.000 A 
ATOM      6  C   UNL     1       3.998   6.840  17.564  0.00  0.00    +0.000 A 
ATOM      7  N   UNL     1       3.259   7.902  17.690  0.00  0.00    +0.000 NA
ATOM      8  C   UNL     1       2.371   7.990  18.778  0.00  0.00    +0.000 A 
ATOM      9  C   UNL     1       1.650   9.168  18.947  0.00  0.00    +0.000 A 
ATOM     10  C   UNL     1       0.784   9.296  20.031  0.00  0.00    +0.000 A 
ATOM     11  C   UNL     1       0.659   8.230  20.906  0.00  0.00    +0.000 A 
ATOM     12  N   UNL     1       1.325   7.060  20.776  0.00  0.00    +0.000 NA
ATOM     13  C   UNL     1       2.175   6.972  19.725  0.00  0.00    +0.000 A 
ATOM     14  N   UNL     1       2.967   5.816  19.529  0.00  0.00    +0.000 N 
ENDROOT
BRANCH   6  15
ATOM     15  S   UNL     1       5.174   6.749  16.170  0.00  0.00    +0.000 S 
ATOM     16  C   UNL     1       6.701   6.832  17.130  0.00  0.00    +0.000 C 
ATOM     17  O   UNL     1       5.048   5.285  15.608  0.00  0.00    +0.000 OA
ENDBRANCH   6  15
BRANCH  11  18
ATOM     18  O   UNL     1      -0.196   8.423  21.972  0.00  0.00    +0.000 OA
ATOM     19  C   UNL     1       0.090   9.601  22.714  0.00  0.00    +0.000 C 
ENDBRANCH  11  18
BRANCH   1  20
ATOM     20  C   UNL     1       2.270   4.279  21.471  0.00  0.00    +0.000 C 
BRANCH  20  22
ATOM     21  C   UNL     1       0.671   3.080  19.940  0.00  0.00    +0.000 C 
ATOM     22  C   UNL     1       1.401   3.037  21.275  0.00  0.00    +0.000 C 
ENDBRANCH  20  22
ENDBRANCH   1  20
TORSDOF 4
ENDMDL
