MODEL 1
REMARK VINA RESULT:      -8.4      0.000      0.000
REMARK  Name = 
REMARK  5 active torsions:
REMARK  status: ('A' for Active; 'I' for Inactive)
REMARK    1  A    between atoms: C_2  and  C_3
REMARK    2  A    between atoms: C_2  and  C_12
REMARK    3  A    between atoms: C_4  and  C_5
REMARK    4  A    between atoms: C_10  and  O_11
REMARK    5  A    between atoms: C_15  and  C_16
REMARK                            x       y       z     vdW  Elec       q    Type
REMARK                         _______ _______ _______ _____ _____    ______ ____
ROOT
ATOM      1  O   UNL     1       8.048   7.191  16.257  0.00  0.00    +0.000 OA
ATOM      2  C   UNL     1       7.618   7.350  17.393  0.00  0.00    +0.000 C 
ENDROOT
BRANCH   2   3
ATOM      3  C   UNL     1       6.398   6.636  17.855  0.00  0.00    +0.000 A 
ATOM      4  C   UNL     1       5.145   6.907  17.301  0.00  0.00    +0.000 A 
ATOM      5  C   UNL     1       4.022   6.197  17.733  0.00  0.00    +0.000 A 
ATOM      6  C   UNL     1       4.108   5.194  18.715  0.00  0.00    +0.000 A 
ATOM      7  C   UNL     1       5.372   4.970  19.293  0.00  0.00    +0.000 A 
ATOM      8  C   UNL     1       6.504   5.688  18.876  0.00  0.00    +0.000 A 
BRANCH   6   9
ATOM      9  C   UNL     1       2.911   4.409  19.098  0.00  0.00    +0.000 A 
ATOM     10  C   UNL     1       2.421   3.388  18.258  0.00  0.00    +0.000 A 
ATOM     11  C   UNL     1       1.284   2.645  18.587  0.00  0.00    +0.000 A 
ATOM     12  C   UNL     1       0.616   2.895  19.779  0.00  0.00    +0.000 A 
ATOM     13  C   UNL     1       1.084   3.885  20.638  0.00  0.00    +0.000 A 
ATOM     14  C   UNL     1       2.216   4.637  20.298  0.00  0.00    +0.000 A 
ENDBRANCH   6   9
ENDBRANCH   2   3
BRANCH   2  15
ATOM     15  C   UNL     1       8.240   8.297  18.356  0.00  0.00    +0.000 C 
ATOM     16  C   UNL     1       8.690   9.490  17.947  0.00  0.00    +0.000 C 
BRANCH  16  17
ATOM     17  C   UNL     1       9.304  10.418  18.901  0.00  0.00    +0.000 A 
ATOM     18  C   UNL     1       8.864  10.405  20.230  0.00  0.00    +0.000 A 
ATOM     19  C   UNL     1       9.448  11.249  21.176  0.00  0.00    +0.000 A 
ATOM     20  C   UNL     1      10.477  12.113  20.800  0.00  0.00    +0.000 A 
ATOM     21  C   UNL     1      10.922  12.137  19.477  0.00  0.00    +0.000 A 
ATOM     22  C   UNL     1      10.338  11.291  18.536  0.00  0.00    +0.000 A 
BRANCH  22  23
ATOM     23  O   UNL     1      10.782  11.304  17.241  0.00  0.00    +0.000 OA
ATOM     24  H   UNL     1      10.044  11.077  16.654  0.00  0.00    +0.000 HD
ENDBRANCH  22  23
ENDBRANCH  16  17
ENDBRANCH   2  15
TORSDOF 5
ENDMDL
MODEL 2
REMARK VINA RESULT:      -8.3      0.977      1.403
REMARK  Name = 
REMARK  5 active torsions:
REMARK  status: ('A' for Active; 'I' for Inactive)
REMARK    1  A    between atoms: C_2  and  C_3
REMARK    2  A    between atoms: C_2  and  C_12
REMARK    3  A    between atoms: C_4  and  C_5
REMARK    4  A    between atoms: C_10  and  O_11
REMARK    5  A    between atoms: C_15  and  C_16
REMARK                            x       y       z     vdW  Elec       q    Type
REMARK                         _______ _______ _______ _____ _____    ______ ____
ROOT
ATOM      1  O   UNL     1       8.126   7.102  16.208  0.00  0.00    +0.000 OA
ATOM      2  C   UNL     1       7.579   7.350  17.276  0.00  0.00    +0.000 C 
ENDROOT
BRANCH   2   3
ATOM      3  C   UNL     1       6.403   6.563  17.733  0.00  0.00    +0.000 A 
ATOM      4  C   UNL     1       6.517   5.610  18.747  0.00  0.00    +0.000 A 
ATOM      5  C   UNL     1       5.388   4.908  19.177  0.00  0.00    +0.000 A 
ATOM      6  C   UNL     1       4.115   5.137  18.625  0.00  0.00    +0.000 A 
ATOM      7  C   UNL     1       4.032   6.068  17.572  0.00  0.00    +0.000 A 
ATOM      8  C   UNL     1       5.163   6.768  17.123  0.00  0.00    +0.000 A 
BRANCH   6   9
ATOM      9  C   UNL     1       2.925   4.430  19.154  0.00  0.00    +0.000 A 
ATOM     10  C   UNL     1       2.111   3.657  18.302  0.00  0.00    +0.000 A 
ATOM     11  C   UNL     1       0.973   2.995  18.771  0.00  0.00    +0.000 A 
ATOM     12  C   UNL     1       0.630   3.076  20.115  0.00  0.00    +0.000 A 
ATOM     13  C   UNL     1       1.424   3.818  20.985  0.00  0.00    +0.000 A 
ATOM     14  C   UNL     1       2.555   4.492  20.509  0.00  0.00    +0.000 A 
ENDBRANCH   6   9
ENDBRANCH   2   3
BRANCH   2  15
ATOM     15  C   UNL     1       8.009   8.474  18.149  0.00  0.00    +0.000 C 
ATOM     16  C   UNL     1       8.443   9.624  17.618  0.00  0.00    +0.000 C 
BRANCH  16  17
ATOM     17  C   UNL     1       8.867  10.727  18.484  0.00  0.00    +0.000 A 
ATOM     18  C   UNL     1       9.555  10.428  19.667  0.00  0.00    +0.000 A 
ATOM     19  C   UNL     1      10.005  11.453  20.501  0.00  0.00    +0.000 A 
ATOM     20  C   UNL     1       9.773  12.785  20.159  0.00  0.00    +0.000 A 
ATOM     21  C   UNL     1       9.086  13.096  18.984  0.00  0.00    +0.000 A 
ATOM     22  C   UNL     1       8.640  12.070  18.152  0.00  0.00    +0.000 A 
BRANCH  22  23
ATOM     23  O   UNL     1       7.979  12.374  16.992  0.00  0.00    +0.000 OA
ATOM     24  H   UNL     1       8.358  11.850  16.269  0.00  0.00    +0.000 HD
ENDBRANCH  22  23
ENDBRANCH  16  17
ENDBRANCH   2  15
TORSDOF 5
ENDMDL
MODEL 3
REMARK VINA RESULT:      -8.3      1.967      8.843
REMARK  Name = 
REMARK  5 active torsions:
REMARK  status: ('A' for Active; 'I' for Inactive)
REMARK    1  A    between atoms: C_2  and  C_3
REMARK    2  A    between atoms: C_2  and  C_12
REMARK    3  A    between atoms: C_4  and  C_5
REMARK    4  A    between atoms: C_10  and  O_11
REMARK    5  A    between atoms: C_15  and  C_16
REMARK                            x       y       z     vdW  Elec       q    Type
REMARK                         _______ _______ _______ _____ _____    ______ ____
ROOT
ATOM      1  O   UNL     1       6.783   4.473  16.267  0.00  0.00    +0.000 OA
ATOM      2  C   UNL     1       6.410   5.065  17.273  0.00  0.00    +0.000 C 
ENDROOT
BRANCH   2   3
ATOM      3  C   UNL     1       7.075   6.320  17.713  0.00  0.00    +0.000 A 
ATOM      4  C   UNL     1       7.944   6.336  18.805  0.00  0.00    +0.000 A 
ATOM      5  C   UNL     1       8.578   7.524  19.176  0.00  0.00    +0.000 A 
ATOM      6  C   UNL     1       8.380   8.725  18.470  0.00  0.00    +0.000 A 
ATOM      7  C   UNL     1       7.464   8.696  17.402  0.00  0.00    +0.000 A 
ATOM      8  C   UNL     1       6.810   7.510  17.031  0.00  0.00    +0.000 A 
BRANCH   6   9
ATOM      9  C   UNL     1       9.125   9.951  18.843  0.00  0.00    +0.000 A 
ATOM     10  C   UNL     1       9.709  10.766  17.853  0.00  0.00    +0.000 A 
ATOM     11  C   UNL     1      10.432  11.917  18.178  0.00  0.00    +0.000 A 
ATOM     12  C   UNL     1      10.573  12.292  19.509  0.00  0.00    +0.000 A 
ATOM     13  C   UNL     1       9.994  11.517  20.509  0.00  0.00    +0.000 A 
ATOM     14  C   UNL     1       9.282  10.356  20.180  0.00  0.00    +0.000 A 
ENDBRANCH   6   9
ENDBRANCH   2   3
BRANCH   2  15
ATOM     15  C   UNL     1       5.321   4.547  18.144  0.00  0.00    +0.000 C 
ATOM     16  C   UNL     1       4.048   4.905  17.932  0.00  0.00    +0.000 C 
BRANCH  16  17
ATOM     17  C   UNL     1       2.980   4.393  18.794  0.00  0.00    +0.000 A 
ATOM     18  C   UNL     1       2.886   4.874  20.106  0.00  0.00    +0.000 A 
ATOM     19  C   UNL     1       1.862   4.436  20.948  0.00  0.00    +0.000 A 
ATOM     20  C   UNL     1       0.923   3.515  20.485  0.00  0.00    +0.000 A 
ATOM     21  C   UNL     1       1.008   3.025  19.180  0.00  0.00    +0.000 A 
ATOM     22  C   UNL     1       2.031   3.467  18.341  0.00  0.00    +0.000 A 
BRANCH  22  23
ATOM     23  O   UNL     1       2.108   2.998  17.057  0.00  0.00    +0.000 OA
ATOM     24  H   UNL     1       1.661   2.138  17.011  0.00  0.00    +0.000 HD
ENDBRANCH  22  23
ENDBRANCH  16  17
ENDBRANCH   2  15
TORSDOF 5
ENDMDL
MODEL 4
REMARK VINA RESULT:      -8.2      5.076      7.012
REMARK  Name = 
REMARK  5 active torsions:
REMARK  status: ('A' for Active; 'I' for Inactive)
REMARK    1  A    between atoms: C_2  and  C_3
REMARK    2  A    between atoms: C_2  and  C_12
REMARK    3  A    between atoms: C_4  and  C_5
REMARK    4  A    between atoms: C_10  and  O_11
REMARK    5  A    between atoms: C_15  and  C_16
REMARK                            x       y       z     vdW  Elec       q    Type
REMARK                         _______ _______ _______ _____ _____    ______ ____
ROOT
ATOM      1  O   UNL     1       4.028   2.949  18.162  0.00  0.00    +0.000 OA
ATOM      2  C   UNL     1       4.011   4.058  17.640  0.00  0.00    +0.000 C 
ENDROOT
BRANCH   2   3
ATOM      3  C   UNL     1       3.378   5.215  18.325  0.00  0.00    +0.000 A 
ATOM      4  C   UNL     1       3.368   6.485  17.745  0.00  0.00    +0.000 A 
ATOM      5  C   UNL     1       2.739   7.548  18.399  0.00  0.00    +0.000 A 
ATOM      6  C   UNL     1       2.091   7.381  19.637  0.00  0.00    +0.000 A 
ATOM      7  C   UNL     1       2.154   6.103  20.225  0.00  0.00    +0.000 A 
ATOM      8  C   UNL     1       2.797   5.033  19.583  0.00  0.00    +0.000 A 
BRANCH   6   9
ATOM      9  C   UNL     1       1.369   8.510  20.269  0.00  0.00    +0.000 A 
ATOM     10  C   UNL     1       0.999   9.640  19.512  0.00  0.00    +0.000 A 
ATOM     11  C   UNL     1       0.334  10.727  20.087  0.00  0.00    +0.000 A 
ATOM     12  C   UNL     1       0.005  10.700  21.437  0.00  0.00    +0.000 A 
ATOM     13  C   UNL     1       0.342   9.591  22.207  0.00  0.00    +0.000 A 
ATOM     14  C   UNL     1       1.021   8.510  21.630  0.00  0.00    +0.000 A 
ENDBRANCH   6   9
ENDBRANCH   2   3
BRANCH   2  15
ATOM     15  C   UNL     1       4.562   4.307  16.282  0.00  0.00    +0.000 C 
ATOM     16  C   UNL     1       5.724   3.757  15.905  0.00  0.00    +0.000 C 
BRANCH  16  17
ATOM     17  C   UNL     1       6.262   4.009  14.565  0.00  0.00    +0.000 A 
ATOM     18  C   UNL     1       5.771   3.258  13.490  0.00  0.00    +0.000 A 
ATOM     19  C   UNL     1       6.234   3.492  12.195  0.00  0.00    +0.000 A 
ATOM     20  C   UNL     1       7.192   4.479  11.962  0.00  0.00    +0.000 A 
ATOM     21  C   UNL     1       7.691   5.232  13.026  0.00  0.00    +0.000 A 
ATOM     22  C   UNL     1       7.225   4.998  14.319  0.00  0.00    +0.000 A 
BRANCH  22  23
ATOM     23  O   UNL     1       7.704   5.746  15.361  0.00  0.00    +0.000 OA
ATOM     24  H   UNL     1       8.366   5.224  15.842  0.00  0.00    +0.000 HD
ENDBRANCH  22  23
ENDBRANCH  16  17
ENDBRANCH   2  15
TORSDOF 5
ENDMDL
MODEL 5
REMARK VINA RESULT:      -8.1      0.981      1.418
REMARK  Name = 
REMARK  5 active torsions:
REMARK  status: ('A' for Active; 'I' for Inactive)
REMARK    1  A    between atoms: C_2  and  C_3
REMARK    2  A    between atoms: C_2  and  C_12
REMARK    3  A    between atoms: C_4  and  C_5
REMARK    4  A    between atoms: C_10  and  O_11
REMARK    5  A    between atoms: C_15  and  C_16
REMARK                            x       y       z     vdW  Elec       q    Type
REMARK                         _______ _______ _______ _____ _____    ______ ____
ROOT
ATOM      1  O   UNL     1       8.186   7.064  16.332  0.00  0.00    +0.000 OA
ATOM      2  C   UNL     1       7.564   7.382  17.339  0.00  0.00    +0.000 C 
ENDROOT
BRANCH   2   3
ATOM      3  C   UNL     1       6.353   6.627  17.759  0.00  0.00    +0.000 A 
ATOM      4  C   UNL     1       5.124   6.816  17.125  0.00  0.00    +0.000 A 
ATOM      5  C   UNL     1       4.011   6.071  17.521  0.00  0.00    +0.000 A 
ATOM      6  C   UNL     1       4.086   5.110  18.546  0.00  0.00    +0.000 A 
ATOM      7  C   UNL     1       5.323   4.970  19.203  0.00  0.00    +0.000 A 
ATOM      8  C   UNL     1       6.443   5.725  18.822  0.00  0.00    +0.000 A 
BRANCH   6   9
ATOM      9  C   UNL     1       2.906   4.283  18.892  0.00  0.00    +0.000 A 
ATOM     10  C   UNL     1       2.116   4.592  20.019  0.00  0.00    +0.000 A 
ATOM     11  C   UNL     1       1.010   3.818  20.378  0.00  0.00    +0.000 A 
ATOM     12  C   UNL     1       0.653   2.720  19.605  0.00  0.00    +0.000 A 
ATOM     13  C   UNL     1       1.403   2.398  18.477  0.00  0.00    +0.000 A 
ATOM     14  C   UNL     1       2.520   3.168  18.128  0.00  0.00    +0.000 A 
ENDBRANCH   6   9
ENDBRANCH   2   3
BRANCH   2  15
ATOM     15  C   UNL     1       7.935   8.560  18.165  0.00  0.00    +0.000 C 
ATOM     16  C   UNL     1       8.640   9.570  17.638  0.00  0.00    +0.000 C 
BRANCH  16  17
ATOM     17  C   UNL     1       9.004  10.728  18.459  0.00  0.00    +0.000 A 
ATOM     18  C   UNL     1       9.778  10.522  19.607  0.00  0.00    +0.000 A 
ATOM     19  C   UNL     1      10.173  11.603  20.396  0.00  0.00    +0.000 A 
ATOM     20  C   UNL     1       9.800  12.900  20.043  0.00  0.00    +0.000 A 
ATOM     21  C   UNL     1       9.026  13.118  18.901  0.00  0.00    +0.000 A 
ATOM     22  C   UNL     1       8.634  12.035  18.114  0.00  0.00    +0.000 A 
BRANCH  22  23
ATOM     23  O   UNL     1       7.887  12.249  16.987  0.00  0.00    +0.000 OA
ATOM     24  H   UNL     1       7.600  11.392  16.634  0.00  0.00    +0.000 HD
ENDBRANCH  22  23
ENDBRANCH  16  17
ENDBRANCH   2  15
TORSDOF 5
ENDMDL
MODEL 6
REMARK VINA RESULT:      -8.1      0.506      1.123
REMARK  Name = 
REMARK  5 active torsions:
REMARK  status: ('A' for Active; 'I' for Inactive)
REMARK    1  A    between atoms: C_2  and  C_3
REMARK    2  A    between atoms: C_2  and  C_12
REMARK    3  A    between atoms: C_4  and  C_5
REMARK    4  A    between atoms: C_10  and  O_11
REMARK    5  A    between atoms: C_15  and  C_16
REMARK                            x       y       z     vdW  Elec       q    Type
REMARK                         _______ _______ _______ _____ _____    ______ ____
ROOT
ATOM      1  O   UNL     1       8.105   7.293  16.321  0.00  0.00    +0.000 OA
ATOM      2  C   UNL     1       7.698   7.407  17.471  0.00  0.00    +0.000 C 
ENDROOT
BRANCH   2   3
ATOM      3  C   UNL     1       6.541   6.607  17.954  0.00  0.00    +0.000 A 
ATOM      4  C   UNL     1       6.696   5.626  18.935  0.00  0.00    +0.000 A 
ATOM      5  C   UNL     1       5.586   4.912  19.391  0.00  0.00    +0.000 A 
ATOM      6  C   UNL     1       4.290   5.157  18.900  0.00  0.00    +0.000 A 
ATOM      7  C   UNL     1       4.164   6.117  17.878  0.00  0.00    +0.000 A 
ATOM      8  C   UNL     1       5.277   6.829  17.402  0.00  0.00    +0.000 A 
BRANCH   6   9
ATOM      9  C   UNL     1       3.123   4.434  19.457  0.00  0.00    +0.000 A 
ATOM     10  C   UNL     1       3.049   3.028  19.392  0.00  0.00    +0.000 A 
ATOM     11  C   UNL     1       1.951   2.324  19.893  0.00  0.00    +0.000 A 
ATOM     12  C   UNL     1       0.903   3.012  20.492  0.00  0.00    +0.000 A 
ATOM     13  C   UNL     1       0.954   4.399  20.587  0.00  0.00    +0.000 A 
ATOM     14  C   UNL     1       2.049   5.103  20.071  0.00  0.00    +0.000 A 
ENDBRANCH   6   9
ENDBRANCH   2   3
BRANCH   2  15
ATOM     15  C   UNL     1       8.284   8.379  18.431  0.00  0.00    +0.000 C 
ATOM     16  C   UNL     1       8.812   9.532  18.000  0.00  0.00    +0.000 C 
BRANCH  16  17
ATOM     17  C   UNL     1       9.390  10.484  18.951  0.00  0.00    +0.000 A 
ATOM     18  C   UNL     1       8.932  10.475  20.275  0.00  0.00    +0.000 A 
ATOM     19  C   UNL     1       9.482  11.343  21.219  0.00  0.00    +0.000 A 
ATOM     20  C   UNL     1      10.495  12.228  20.848  0.00  0.00    +0.000 A 
ATOM     21  C   UNL     1      10.958  12.249  19.531  0.00  0.00    +0.000 A 
ATOM     22  C   UNL     1      10.408  11.378  18.591  0.00  0.00    +0.000 A 
BRANCH  22  23
ATOM     23  O   UNL     1      10.871  11.388  17.303  0.00  0.00    +0.000 OA
ATOM     24  H   UNL     1      10.112  11.359  16.698  0.00  0.00    +0.000 HD
ENDBRANCH  22  23
ENDBRANCH  16  17
ENDBRANCH   2  15
TORSDOF 5
ENDMDL
MODEL 7
REMARK VINA RESULT:      -8.1      4.872      7.053
REMARK  Name = 
REMARK  5 active torsions:
REMARK  status: ('A' for Active; 'I' for Inactive)
REMARK    1  A    between atoms: C_2  and  C_3
REMARK    2  A    between atoms: C_2  and  C_12
REMARK    3  A    between atoms: C_4  and  C_5
REMARK    4  A    between atoms: C_10  and  O_11
REMARK    5  A    between atoms: C_15  and  C_16
REMARK                            x       y       z     vdW  Elec       q    Type
REMARK                         _______ _______ _______ _____ _____    ______ ____
ROOT
ATOM      1  O   UNL     1       5.808   3.888  18.800  0.00  0.00    +0.000 OA
ATOM      2  C   UNL     1       5.218   4.495  17.914  0.00  0.00    +0.000 C 
ENDROOT
BRANCH   2   3
ATOM      3  C   UNL     1       4.286   5.606  18.240  0.00  0.00    +0.000 A 
ATOM      4  C   UNL     1       4.181   6.731  17.419  0.00  0.00    +0.000 A 
ATOM      5  C   UNL     1       3.274   7.745  17.735  0.00  0.00    +0.000 A 
ATOM      6  C   UNL     1       2.437   7.670  18.863  0.00  0.00    +0.000 A 
ATOM      7  C   UNL     1       2.593   6.550  19.702  0.00  0.00    +0.000 A 
ATOM      8  C   UNL     1       3.512   5.533  19.401  0.00  0.00    +0.000 A 
BRANCH   6   9
ATOM      9  C   UNL     1       1.433   8.727  19.129  0.00  0.00    +0.000 A 
ATOM     10  C   UNL     1       1.007   8.999  20.445  0.00  0.00    +0.000 A 
ATOM     11  C   UNL     1       0.048   9.977  20.722  0.00  0.00    +0.000 A 
ATOM     12  C   UNL     1      -0.498  10.724  19.685  0.00  0.00    +0.000 A 
ATOM     13  C   UNL     1      -0.085  10.490  18.376  0.00  0.00    +0.000 A 
ATOM     14  C   UNL     1       0.866   9.499  18.101  0.00  0.00    +0.000 A 
ENDBRANCH   6   9
ENDBRANCH   2   3
BRANCH   2  15
ATOM     15  C   UNL     1       5.346   4.132  16.478  0.00  0.00    +0.000 C 
ATOM     16  C   UNL     1       6.201   4.787  15.681  0.00  0.00    +0.000 C 
BRANCH  16  17
ATOM     17  C   UNL     1       6.320   4.426  14.266  0.00  0.00    +0.000 A 
ATOM     18  C   UNL     1       5.342   3.602  13.697  0.00  0.00    +0.000 A 
ATOM     19  C   UNL     1       5.402   3.263  12.344  0.00  0.00    +0.000 A 
ATOM     20  C   UNL     1       6.441   3.747  11.549  0.00  0.00    +0.000 A 
ATOM     21  C   UNL     1       7.424   4.568  12.105  0.00  0.00    +0.000 A 
ATOM     22  C   UNL     1       7.359   4.905  13.457  0.00  0.00    +0.000 A 
BRANCH  22  23
ATOM     23  O   UNL     1       8.315   5.721  14.000  0.00  0.00    +0.000 OA
ATOM     24  H   UNL     1       8.016   6.013  14.876  0.00  0.00    +0.000 HD
ENDBRANCH  22  23
ENDBRANCH  16  17
ENDBRANCH   2  15
TORSDOF 5
ENDMDL
MODEL 8
REMARK VINA RESULT:      -8.0      1.259      1.808
REMARK  Name = 
REMARK  5 active torsions:
REMARK  status: ('A' for Active; 'I' for Inactive)
REMARK    1  A    between atoms: C_2  and  C_3
REMARK    2  A    between atoms: C_2  and  C_12
REMARK    3  A    between atoms: C_4  and  C_5
REMARK    4  A    between atoms: C_10  and  O_11
REMARK    5  A    between atoms: C_15  and  C_16
REMARK                            x       y       z     vdW  Elec       q    Type
REMARK                         _______ _______ _______ _____ _____    ______ ____
ROOT
ATOM      1  O   UNL     1       8.205   6.996  16.398  0.00  0.00    +0.000 OA
ATOM      2  C   UNL     1       7.444   7.525  17.199  0.00  0.00    +0.000 C 
ENDROOT
BRANCH   2   3
ATOM      3  C   UNL     1       6.261   6.795  17.724  0.00  0.00    +0.000 A 
ATOM      4  C   UNL     1       4.985   7.008  17.199  0.00  0.00    +0.000 A 
ATOM      5  C   UNL     1       3.896   6.284  17.692  0.00  0.00    +0.000 A 
ATOM      6  C   UNL     1       4.040   5.323  18.709  0.00  0.00    +0.000 A 
ATOM      7  C   UNL     1       5.327   5.158  19.256  0.00  0.00    +0.000 A 
ATOM      8  C   UNL     1       6.425   5.891  18.777  0.00  0.00    +0.000 A 
BRANCH   6   9
ATOM      9  C   UNL     1       2.879   4.520  19.158  0.00  0.00    +0.000 A 
ATOM     10  C   UNL     1       2.514   4.482  20.519  0.00  0.00    +0.000 A 
ATOM     11  C   UNL     1       1.435   3.718  20.972  0.00  0.00    +0.000 A 
ATOM     12  C   UNL     1       0.679   2.983  20.067  0.00  0.00    +0.000 A 
ATOM     13  C   UNL     1       1.005   3.013  18.714  0.00  0.00    +0.000 A 
ATOM     14  C   UNL     1       2.095   3.768  18.265  0.00  0.00    +0.000 A 
ENDBRANCH   6   9
ENDBRANCH   2   3
BRANCH   2  15
ATOM     15  C   UNL     1       7.615   8.931  17.651  0.00  0.00    +0.000 C 
ATOM     16  C   UNL     1       8.738   9.317  18.271  0.00  0.00    +0.000 C 
BRANCH  16  17
ATOM     17  C   UNL     1       8.899  10.704  18.716  0.00  0.00    +0.000 A 
ATOM     18  C   UNL     1       8.720  11.735  17.785  0.00  0.00    +0.000 A 
ATOM     19  C   UNL     1       8.832  13.069  18.178  0.00  0.00    +0.000 A 
ATOM     20  C   UNL     1       9.121  13.385  19.506  0.00  0.00    +0.000 A 
ATOM     21  C   UNL     1       9.304  12.366  20.443  0.00  0.00    +0.000 A 
ATOM     22  C   UNL     1       9.190  11.034  20.047  0.00  0.00    +0.000 A 
BRANCH  22  23
ATOM     23  O   UNL     1       9.355  10.035  20.968  0.00  0.00    +0.000 OA
ATOM     24  H   UNL     1       8.486   9.660  21.183  0.00  0.00    +0.000 HD
ENDBRANCH  22  23
ENDBRANCH  16  17
ENDBRANCH   2  15
TORSDOF 5
ENDMDL
MODEL 9
REMARK VINA RESULT:      -8.0      5.045      7.083
REMARK  Name = 
REMARK  5 active torsions:
REMARK  status: ('A' for Active; 'I' for Inactive)
REMARK    1  A    between atoms: C_2  and  C_3
REMARK    2  A    between atoms: C_2  and  C_12
REMARK    3  A    between atoms: C_4  and  C_5
REMARK    4  A    between atoms: C_10  and  O_11
REMARK    5  A    between atoms: C_15  and  C_16
REMARK                            x       y       z     vdW  Elec       q    Type
REMARK                         _______ _______ _______ _____ _____    ______ ____
ROOT
ATOM      1  O   UNL     1       4.041   3.122  18.551  0.00  0.00    +0.000 OA
ATOM      2  C   UNL     1       3.947   4.204  17.983  0.00  0.00    +0.000 C 
ENDROOT
BRANCH   2   3
ATOM      3  C   UNL     1       3.207   5.332  18.607  0.00  0.00    +0.000 A 
ATOM      4  C   UNL     1       2.538   5.178  19.823  0.00  0.00    +0.000 A 
ATOM      5  C   UNL     1       1.876   6.264  20.400  0.00  0.00    +0.000 A 
ATOM      6  C   UNL     1       1.869   7.536  19.799  0.00  0.00    +0.000 A 
ATOM      7  C   UNL     1       2.510   7.658  18.551  0.00  0.00    +0.000 A 
ATOM      8  C   UNL     1       3.164   6.568  17.956  0.00  0.00    +0.000 A 
BRANCH   6   9
ATOM      9  C   UNL     1       1.222   8.686  20.473  0.00  0.00    +0.000 A 
ATOM     10  C   UNL     1       0.854   8.609  21.831  0.00  0.00    +0.000 A 
ATOM     11  C   UNL     1       0.226   9.671  22.486  0.00  0.00    +0.000 A 
ATOM     12  C   UNL     1      -0.035  10.851  21.799  0.00  0.00    +0.000 A 
ATOM     13  C   UNL     1       0.331  10.963  20.461  0.00  0.00    +0.000 A 
ATOM     14  C   UNL     1       0.948   9.891  19.804  0.00  0.00    +0.000 A 
ENDBRANCH   6   9
ENDBRANCH   2   3
BRANCH   2  15
ATOM     15  C   UNL     1       4.509   4.444  16.628  0.00  0.00    +0.000 C 
ATOM     16  C   UNL     1       5.628   3.823  16.232  0.00  0.00    +0.000 C 
BRANCH  16  17
ATOM     17  C   UNL     1       6.177   4.065  14.895  0.00  0.00    +0.000 A 
ATOM     18  C   UNL     1       5.673   3.328  13.817  0.00  0.00    +0.000 A 
ATOM     19  C   UNL     1       6.146   3.554  12.523  0.00  0.00    +0.000 A 
ATOM     20  C   UNL     1       7.126   4.521  12.297  0.00  0.00    +0.000 A 
ATOM     21  C   UNL     1       7.639   5.260  13.364  0.00  0.00    +0.000 A 
ATOM     22  C   UNL     1       7.162   5.033  14.655  0.00  0.00    +0.000 A 
BRANCH  22  23
ATOM     23  O   UNL     1       7.654   5.767  15.701  0.00  0.00    +0.000 OA
ATOM     24  H   UNL     1       8.564   6.033  15.496  0.00  0.00    +0.000 HD
ENDBRANCH  22  23
ENDBRANCH  16  17
ENDBRANCH   2  15
TORSDOF 5
ENDMDL
