MODEL 1
REMARK VINA RESULT:      -8.3      0.000      0.000
REMARK  Name = 
REMARK  13 active torsions:
REMARK  status: ('A' for Active; 'I' for Inactive)
REMARK    1  A    between atoms: C_1  and  C_2
REMARK    2  A    between atoms: C_2  and  C_3
REMARK    3  A    between atoms: C_3  and  N_4
REMARK    4  A    between atoms: N_4  and  C_5
REMARK    5  A    between atoms: N_4  and  C_24
REMARK    6  A    between atoms: C_5  and  C_6
REMARK    7  A    between atoms: C_6  and  C_7
REMARK    8  A    between atoms: C_7  and  O_8
REMARK    9  A    between atoms: O_8  and  C_9
REMARK   10  A    between atoms: C_24  and  C_25
REMARK   11  A    between atoms: C_29  and  O_30
REMARK   12  A    between atoms: O_30  and  C_31
REMARK   13  A    between atoms: N_33  and  C_34
REMARK                            x       y       z     vdW  Elec       q    Type
REMARK                         _______ _______ _______ _____ _____    ______ ____
ROOT
ATOM      1  C   UNL     1       4.311   3.231  17.422  0.00  0.00    +0.000 C 
ENDROOT
BRANCH   1   2
ATOM      2  N   UNL     1       5.529   3.968  17.026  0.00  0.00    +0.000 NA
BRANCH   2   3
ATOM      3  C   UNL     1       6.133   4.682  18.174  0.00  0.00    +0.000 C 
BRANCH   3   5
ATOM      4  C   UNL     1       8.102   6.035  19.104  0.00  0.00    +0.000 C 
ATOM      5  C   UNL     1       7.627   5.027  18.069  0.00  0.00    +0.000 C 
ENDBRANCH   3   5
ENDBRANCH   2   3
BRANCH   2   6
ATOM      6  C   UNL     1       5.218   4.936  15.945  0.00  0.00    +0.000 C 
BRANCH   6   7
ATOM      7  C   UNL     1       5.999   4.716  14.668  0.00  0.00    +0.000 A 
ATOM      8  C   UNL     1       7.136   5.479  14.373  0.00  0.00    +0.000 A 
ATOM      9  C   UNL     1       7.819   5.293  13.169  0.00  0.00    +0.000 A 
ATOM     10  C   UNL     1       7.349   4.366  12.236  0.00  0.00    +0.000 A 
ATOM     11  C   UNL     1       6.191   3.635  12.510  0.00  0.00    +0.000 A 
ATOM     12  C   UNL     1       5.546   3.773  13.737  0.00  0.00    +0.000 A 
BRANCH  11  13
ATOM     13  O   UNL     1       5.751   2.746  11.509  0.00  0.00    +0.000 OA
BRANCH  13  14
ATOM     14  C   UNL     1       6.463   1.578  11.248  0.00  0.00    +0.000 C 
ATOM     15  O   UNL     1       7.616   1.500  10.847  0.00  0.00    +0.000 OA
ATOM     16  N   UNL     1       5.677   0.490  11.515  0.00  0.00    +0.000 N 
ATOM     17  C   UNL     1       6.141  -0.861  11.334  0.00  0.00    +0.000 C 
ATOM     18  H   UNL     1       4.761   0.669  11.900  0.00  0.00    +0.000 HD
ENDBRANCH  13  14
ENDBRANCH  11  13
ENDBRANCH   6   7
ENDBRANCH   2   6
ENDBRANCH   1   2
BRANCH   1  19
ATOM     19  C   UNL     1       2.994   3.998  17.244  0.00  0.00    +0.000 C 
BRANCH  19  20
ATOM     20  C   UNL     1       2.346   4.372  18.570  0.00  0.00    +0.000 C 
BRANCH  20  21
ATOM     21  O   UNL     1       3.141   5.407  19.157  0.00  0.00    +0.000 OA
BRANCH  21  22
ATOM     22  C   UNL     1       2.563   6.646  19.160  0.00  0.00    +0.000 A 
ATOM     23  C   UNL     1       2.550   7.521  18.071  0.00  0.00    +0.000 A 
ATOM     24  C   UNL     1       1.911   8.754  18.174  0.00  0.00    +0.000 A 
ATOM     25  C   UNL     1       1.295   9.111  19.375  0.00  0.00    +0.000 A 
ATOM     26  C   UNL     1       0.580  10.386  19.489  0.00  0.00    +0.000 A 
ATOM     27  O   UNL     1       0.523  11.178  18.556  0.00  0.00    +0.000 OA
ATOM     28  C   UNL     1      -0.083  10.656  20.769  0.00  0.00    +0.000 A 
ATOM     29  C   UNL     1      -0.839  11.817  20.941  0.00  0.00    +0.000 A 
ATOM     30  C   UNL     1      -1.462  12.056  22.165  0.00  0.00    +0.000 A 
ATOM     31  C   UNL     1      -1.321  11.139  23.208  0.00  0.00    +0.000 A 
ATOM     32  C   UNL     1      -0.563   9.978  23.028  0.00  0.00    +0.000 A 
ATOM     33  C   UNL     1       0.054   9.731  21.802  0.00  0.00    +0.000 A 
ATOM     34  O   UNL     1       0.768   8.562  21.694  0.00  0.00    +0.000 OA
ATOM     35  C   UNL     1       1.338   8.264  20.480  0.00  0.00    +0.000 A 
ATOM     36  C   UNL     1       1.984   7.033  20.373  0.00  0.00    +0.000 A 
ENDBRANCH  21  22
ENDBRANCH  20  21
ENDBRANCH  19  20
ENDBRANCH   1  19
TORSDOF 11
ENDMDL
MODEL 2
REMARK VINA RESULT:      -7.9      3.902      6.268
REMARK  Name = 
REMARK  13 active torsions:
REMARK  status: ('A' for Active; 'I' for Inactive)
REMARK    1  A    between atoms: C_1  and  C_2
REMARK    2  A    between atoms: C_2  and  C_3
REMARK    3  A    between atoms: C_3  and  N_4
REMARK    4  A    between atoms: N_4  and  C_5
REMARK    5  A    between atoms: N_4  and  C_24
REMARK    6  A    between atoms: C_5  and  C_6
REMARK    7  A    between atoms: C_6  and  C_7
REMARK    8  A    between atoms: C_7  and  O_8
REMARK    9  A    between atoms: O_8  and  C_9
REMARK   10  A    between atoms: C_24  and  C_25
REMARK   11  A    between atoms: C_29  and  O_30
REMARK   12  A    between atoms: O_30  and  C_31
REMARK   13  A    between atoms: N_33  and  C_34
REMARK                            x       y       z     vdW  Elec       q    Type
REMARK                         _______ _______ _______ _____ _____    ______ ____
ROOT
ATOM      1  C   UNL     1       2.214   6.472  19.582  0.00  0.00    +0.000 C 
ENDROOT
BRANCH   1   2
ATOM      2  N   UNL     1       2.349   5.014  19.383  0.00  0.00    +0.000 NA
BRANCH   2   3
ATOM      3  C   UNL     1       1.301   4.264  20.111  0.00  0.00    +0.000 C 
BRANCH   3   5
ATOM      4  C   UNL     1       1.612   1.968  19.013  0.00  0.00    +0.000 C 
ATOM      5  C   UNL     1       0.646   3.087  19.370  0.00  0.00    +0.000 C 
ENDBRANCH   3   5
ENDBRANCH   2   3
BRANCH   2   6
ATOM      6  C   UNL     1       3.689   4.555  19.824  0.00  0.00    +0.000 C 
BRANCH   6   7
ATOM      7  C   UNL     1       4.782   4.744  18.795  0.00  0.00    +0.000 A 
ATOM      8  C   UNL     1       4.770   4.038  17.585  0.00  0.00    +0.000 A 
ATOM      9  C   UNL     1       5.810   4.192  16.667  0.00  0.00    +0.000 A 
ATOM     10  C   UNL     1       6.890   5.026  16.967  0.00  0.00    +0.000 A 
ATOM     11  C   UNL     1       6.925   5.697  18.191  0.00  0.00    +0.000 A 
ATOM     12  C   UNL     1       5.857   5.595  19.080  0.00  0.00    +0.000 A 
BRANCH  11  13
ATOM     13  O   UNL     1       8.061   6.492  18.446  0.00  0.00    +0.000 OA
BRANCH  13  14
ATOM     14  C   UNL     1       8.073   7.834  18.074  0.00  0.00    +0.000 C 
ATOM     15  O   UNL     1       7.519   8.327  17.102  0.00  0.00    +0.000 OA
ATOM     16  N   UNL     1       8.807   8.554  18.976  0.00  0.00    +0.000 N 
ATOM     17  C   UNL     1       9.005   9.976  18.851  0.00  0.00    +0.000 C 
ATOM     18  H   UNL     1       9.170   8.056  19.776  0.00  0.00    +0.000 HD
ENDBRANCH  13  14
ENDBRANCH  11  13
ENDBRANCH   6   7
ENDBRANCH   2   6
ENDBRANCH   1   2
BRANCH   1  19
ATOM     19  C   UNL     1       2.261   7.315  18.299  0.00  0.00    +0.000 C 
BRANCH  19  20
ATOM     20  C   UNL     1       2.065   8.802  18.564  0.00  0.00    +0.000 C 
BRANCH  20  21
ATOM     21  O   UNL     1       1.013   9.254  17.707  0.00  0.00    +0.000 OA
BRANCH  21  22
ATOM     22  C   UNL     1       0.091  10.068  18.305  0.00  0.00    +0.000 A 
ATOM     23  C   UNL     1       0.384  11.004  19.299  0.00  0.00    +0.000 A 
ATOM     24  C   UNL     1      -0.630  11.801  19.827  0.00  0.00    +0.000 A 
ATOM     25  C   UNL     1      -1.938  11.649  19.360  0.00  0.00    +0.000 A 
ATOM     26  C   UNL     1      -3.010  12.509  19.871  0.00  0.00    +0.000 A 
ATOM     27  O   UNL     1      -2.801  13.358  20.728  0.00  0.00    +0.000 OA
ATOM     28  C   UNL     1      -4.341  12.316  19.287  0.00  0.00    +0.000 A 
ATOM     29  C   UNL     1      -5.405  13.135  19.670  0.00  0.00    +0.000 A 
ATOM     30  C   UNL     1      -6.663  12.937  19.104  0.00  0.00    +0.000 A 
ATOM     31  C   UNL     1      -6.851  11.921  18.166  0.00  0.00    +0.000 A 
ATOM     32  C   UNL     1      -5.782  11.105  17.787  0.00  0.00    +0.000 A 
ATOM     33  C   UNL     1      -4.519  11.306  18.344  0.00  0.00    +0.000 A 
ATOM     34  O   UNL     1      -3.513  10.477  17.910  0.00  0.00    +0.000 OA
ATOM     35  C   UNL     1      -2.246  10.690  18.399  0.00  0.00    +0.000 A 
ATOM     36  C   UNL     1      -1.229   9.890  17.879  0.00  0.00    +0.000 A 
ENDBRANCH  21  22
ENDBRANCH  20  21
ENDBRANCH  19  20
ENDBRANCH   1  19
TORSDOF 11
ENDMDL
MODEL 3
REMARK VINA RESULT:      -7.8      5.502     10.316
REMARK  Name = 
REMARK  13 active torsions:
REMARK  status: ('A' for Active; 'I' for Inactive)
REMARK    1  A    between atoms: C_1  and  C_2
REMARK    2  A    between atoms: C_2  and  C_3
REMARK    3  A    between atoms: C_3  and  N_4
REMARK    4  A    between atoms: N_4  and  C_5
REMARK    5  A    between atoms: N_4  and  C_24
REMARK    6  A    between atoms: C_5  and  C_6
REMARK    7  A    between atoms: C_6  and  C_7
REMARK    8  A    between atoms: C_7  and  O_8
REMARK    9  A    between atoms: O_8  and  C_9
REMARK   10  A    between atoms: C_24  and  C_25
REMARK   11  A    between atoms: C_29  and  O_30
REMARK   12  A    between atoms: O_30  and  C_31
REMARK   13  A    between atoms: N_33  and  C_34
REMARK                            x       y       z     vdW  Elec       q    Type
REMARK                         _______ _______ _______ _____ _____    ______ ____
ROOT
ATOM      1  C   UNL     1       9.088   9.858  18.745  0.00  0.00    +0.000 C 
ENDROOT
BRANCH   1   2
ATOM      2  N   UNL     1       8.965  11.272  19.153  0.00  0.00    +0.000 NA
BRANCH   2   3
ATOM      3  C   UNL     1       9.152  12.190  18.006  0.00  0.00    +0.000 C 
BRANCH   3   5
ATOM      4  C   UNL     1      11.485  12.756  17.106  0.00  0.00    +0.000 C 
ATOM      5  C   UNL     1      10.364  13.134  18.062  0.00  0.00    +0.000 C 
ENDBRANCH   3   5
ENDBRANCH   2   3
BRANCH   2   6
ATOM      6  C   UNL     1       9.950  11.592  20.214  0.00  0.00    +0.000 C 
BRANCH   6   7
ATOM      7  C   UNL     1       9.352  12.233  21.447  0.00  0.00    +0.000 A 
ATOM      8  C   UNL     1       9.485  13.607  21.687  0.00  0.00    +0.000 A 
ATOM      9  C   UNL     1       8.965  14.174  22.852  0.00  0.00    +0.000 A 
ATOM     10  C   UNL     1       8.339  13.365  23.804  0.00  0.00    +0.000 A 
ATOM     11  C   UNL     1       8.244  11.989  23.586  0.00  0.00    +0.000 A 
ATOM     12  C   UNL     1       8.705  11.432  22.395  0.00  0.00    +0.000 A 
BRANCH  11  13
ATOM     13  O   UNL     1       7.636  11.227  24.604  0.00  0.00    +0.000 OA
BRANCH  13  14
ATOM     14  C   UNL     1       6.260  11.301  24.806  0.00  0.00    +0.000 C 
ATOM     15  O   UNL     1       5.432  11.755  24.029  0.00  0.00    +0.000 OA
ATOM     16  N   UNL     1       5.946  10.775  26.029  0.00  0.00    +0.000 N 
ATOM     17  C   UNL     1       4.594  10.719  26.522  0.00  0.00    +0.000 C 
ATOM     18  H   UNL     1       6.702  10.372  26.564  0.00  0.00    +0.000 HD
ENDBRANCH  13  14
ENDBRANCH  11  13
ENDBRANCH   6   7
ENDBRANCH   2   6
ENDBRANCH   1   2
BRANCH   1  19
ATOM     19  C   UNL     1       7.880   9.285  17.991  0.00  0.00    +0.000 C 
BRANCH  19  20
ATOM     20  C   UNL     1       8.189   7.964  17.299  0.00  0.00    +0.000 C 
BRANCH  20  21
ATOM     21  O   UNL     1       7.905   6.916  18.232  0.00  0.00    +0.000 OA
BRANCH  21  22
ATOM     22  C   UNL     1       6.784   6.186  17.954  0.00  0.00    +0.000 A 
ATOM     23  C   UNL     1       6.444   5.700  16.689  0.00  0.00    +0.000 A 
ATOM     24  C   UNL     1       5.286   4.944  16.520  0.00  0.00    +0.000 A 
ATOM     25  C   UNL     1       4.466   4.686  17.621  0.00  0.00    +0.000 A 
ATOM     26  C   UNL     1       3.267   3.856  17.471  0.00  0.00    +0.000 A 
ATOM     27  O   UNL     1       2.937   3.391  16.387  0.00  0.00    +0.000 OA
ATOM     28  C   UNL     1       2.494   3.593  18.689  0.00  0.00    +0.000 A 
ATOM     29  C   UNL     1       1.374   2.760  18.648  0.00  0.00    +0.000 A 
ATOM     30  C   UNL     1       0.652   2.522  19.816  0.00  0.00    +0.000 A 
ATOM     31  C   UNL     1       1.048   3.120  21.014  0.00  0.00    +0.000 A 
ATOM     32  C   UNL     1       2.171   3.952  21.047  0.00  0.00    +0.000 A 
ATOM     33  C   UNL     1       2.902   4.185  19.882  0.00  0.00    +0.000 A 
ATOM     34  O   UNL     1       4.002   5.001  19.996  0.00  0.00    +0.000 OA
ATOM     35  C   UNL     1       4.774   5.202  18.877  0.00  0.00    +0.000 A 
ATOM     36  C   UNL     1       5.931   5.962  19.040  0.00  0.00    +0.000 A 
ENDBRANCH  21  22
ENDBRANCH  20  21
ENDBRANCH  19  20
ENDBRANCH   1  19
TORSDOF 11
ENDMDL
MODEL 4
REMARK VINA RESULT:      -7.8      3.083      5.010
REMARK  Name = 
REMARK  13 active torsions:
REMARK  status: ('A' for Active; 'I' for Inactive)
REMARK    1  A    between atoms: C_1  and  C_2
REMARK    2  A    between atoms: C_2  and  C_3
REMARK    3  A    between atoms: C_3  and  N_4
REMARK    4  A    between atoms: N_4  and  C_5
REMARK    5  A    between atoms: N_4  and  C_24
REMARK    6  A    between atoms: C_5  and  C_6
REMARK    7  A    between atoms: C_6  and  C_7
REMARK    8  A    between atoms: C_7  and  O_8
REMARK    9  A    between atoms: O_8  and  C_9
REMARK   10  A    between atoms: C_24  and  C_25
REMARK   11  A    between atoms: C_29  and  O_30
REMARK   12  A    between atoms: O_30  and  C_31
REMARK   13  A    between atoms: N_33  and  C_34
REMARK                            x       y       z     vdW  Elec       q    Type
REMARK                         _______ _______ _______ _____ _____    ______ ____
ROOT
ATOM      1  C   UNL     1       2.415   5.226  17.835  0.00  0.00    +0.000 C 
ENDROOT
BRANCH   1   2
ATOM      2  N   UNL     1       2.957   3.994  18.444  0.00  0.00    +0.000 NA
BRANCH   2   3
ATOM      3  C   UNL     1       1.889   3.170  19.054  0.00  0.00    +0.000 C 
BRANCH   3   5
ATOM      4  C   UNL     1       1.417   2.692  21.528  0.00  0.00    +0.000 C 
ATOM      5  C   UNL     1       1.289   3.676  20.375  0.00  0.00    +0.000 C 
ENDBRANCH   3   5
ENDBRANCH   2   3
BRANCH   2   6
ATOM      6  C   UNL     1       3.975   4.330  19.469  0.00  0.00    +0.000 C 
BRANCH   6   7
ATOM      7  C   UNL     1       5.341   4.660  18.907  0.00  0.00    +0.000 A 
ATOM      8  C   UNL     1       6.234   5.480  19.608  0.00  0.00    +0.000 A 
ATOM      9  C   UNL     1       7.472   5.810  19.054  0.00  0.00    +0.000 A 
ATOM     10  C   UNL     1       7.812   5.352  17.778  0.00  0.00    +0.000 A 
ATOM     11  C   UNL     1       6.905   4.570  17.061  0.00  0.00    +0.000 A 
ATOM     12  C   UNL     1       5.697   4.186  17.639  0.00  0.00    +0.000 A 
BRANCH  11  13
ATOM     13  O   UNL     1       7.295   4.173  15.766  0.00  0.00    +0.000 OA
BRANCH  13  14
ATOM     14  C   UNL     1       6.528   4.537  14.662  0.00  0.00    +0.000 C 
ATOM     15  O   UNL     1       6.011   5.626  14.459  0.00  0.00    +0.000 OA
ATOM     16  N   UNL     1       6.431   3.478  13.801  0.00  0.00    +0.000 N 
ATOM     17  C   UNL     1       5.690   3.551  12.568  0.00  0.00    +0.000 C 
ATOM     18  H   UNL     1       6.947   2.644  14.039  0.00  0.00    +0.000 HD
ENDBRANCH  13  14
ENDBRANCH  11  13
ENDBRANCH   6   7
ENDBRANCH   2   6
ENDBRANCH   1   2
BRANCH   1  19
ATOM     19  C   UNL     1       2.323   6.436  18.775  0.00  0.00    +0.000 C 
BRANCH  19  20
ATOM     20  C   UNL     1       2.735   7.738  18.101  0.00  0.00    +0.000 C 
BRANCH  20  21
ATOM     21  O   UNL     1       1.544   8.500  17.879  0.00  0.00    +0.000 OA
BRANCH  21  22
ATOM     22  C   UNL     1       1.463   9.663  18.591  0.00  0.00    +0.000 A 
ATOM     23  C   UNL     1       0.885   9.783  19.858  0.00  0.00    +0.000 A 
ATOM     24  C   UNL     1       0.876  11.015  20.507  0.00  0.00    +0.000 A 
ATOM     25  C   UNL     1       1.439  12.128  19.879  0.00  0.00    +0.000 A 
ATOM     26  C   UNL     1       1.477  13.423  20.564  0.00  0.00    +0.000 A 
ATOM     27  O   UNL     1       1.002  13.574  21.683  0.00  0.00    +0.000 OA
ATOM     28  C   UNL     1       2.134  14.524  19.852  0.00  0.00    +0.000 A 
ATOM     29  C   UNL     1       2.271  15.775  20.458  0.00  0.00    +0.000 A 
ATOM     30  C   UNL     1       2.898  16.809  19.766  0.00  0.00    +0.000 A 
ATOM     31  C   UNL     1       3.377  16.590  18.473  0.00  0.00    +0.000 A 
ATOM     32  C   UNL     1       3.236  15.336  17.872  0.00  0.00    +0.000 A 
ATOM     33  C   UNL     1       2.618  14.295  18.566  0.00  0.00    +0.000 A 
ATOM     34  O   UNL     1       2.531  13.087  17.918  0.00  0.00    +0.000 OA
ATOM     35  C   UNL     1       1.979  12.028  18.599  0.00  0.00    +0.000 A 
ATOM     36  C   UNL     1       1.980  10.794  17.951  0.00  0.00    +0.000 A 
ENDBRANCH  21  22
ENDBRANCH  20  21
ENDBRANCH  19  20
ENDBRANCH   1  19
TORSDOF 11
ENDMDL
MODEL 5
REMARK VINA RESULT:      -7.7      2.134      3.825
REMARK  Name = 
REMARK  13 active torsions:
REMARK  status: ('A' for Active; 'I' for Inactive)
REMARK    1  A    between atoms: C_1  and  C_2
REMARK    2  A    between atoms: C_2  and  C_3
REMARK    3  A    between atoms: C_3  and  N_4
REMARK    4  A    between atoms: N_4  and  C_5
REMARK    5  A    between atoms: N_4  and  C_24
REMARK    6  A    between atoms: C_5  and  C_6
REMARK    7  A    between atoms: C_6  and  C_7
REMARK    8  A    between atoms: C_7  and  O_8
REMARK    9  A    between atoms: O_8  and  C_9
REMARK   10  A    between atoms: C_24  and  C_25
REMARK   11  A    between atoms: C_29  and  O_30
REMARK   12  A    between atoms: O_30  and  C_31
REMARK   13  A    between atoms: N_33  and  C_34
REMARK                            x       y       z     vdW  Elec       q    Type
REMARK                         _______ _______ _______ _____ _____    ______ ____
ROOT
ATOM      1  C   UNL     1       2.187   4.283  18.059  0.00  0.00    +0.000 C 
ENDROOT
BRANCH   1   2
ATOM      2  N   UNL     1       3.333   3.479  18.530  0.00  0.00    +0.000 NA
BRANCH   2   3
ATOM      3  C   UNL     1       2.889   2.268  19.258  0.00  0.00    +0.000 C 
BRANCH   3   5
ATOM      4  C   UNL     1       1.765   2.641  21.532  0.00  0.00    +0.000 C 
ATOM      5  C   UNL     1       1.575   2.374  20.047  0.00  0.00    +0.000 C 
ENDBRANCH   3   5
ENDBRANCH   2   3
BRANCH   2   6
ATOM      6  C   UNL     1       4.210   4.294  19.407  0.00  0.00    +0.000 C 
BRANCH   6   7
ATOM      7  C   UNL     1       5.410   4.891  18.705  0.00  0.00    +0.000 A 
ATOM      8  C   UNL     1       6.508   5.373  19.430  0.00  0.00    +0.000 A 
ATOM      9  C   UNL     1       7.587   5.962  18.768  0.00  0.00    +0.000 A 
ATOM     10  C   UNL     1       7.561   6.105  17.379  0.00  0.00    +0.000 A 
ATOM     11  C   UNL     1       6.449   5.664  16.659  0.00  0.00    +0.000 A 
ATOM     12  C   UNL     1       5.400   5.018  17.311  0.00  0.00    +0.000 A 
BRANCH  11  13
ATOM     13  O   UNL     1       6.471   5.874  15.265  0.00  0.00    +0.000 OA
BRANCH  13  14
ATOM     14  C   UNL     1       6.590   4.793  14.397  0.00  0.00    +0.000 C 
ATOM     15  O   UNL     1       6.251   3.639  14.618  0.00  0.00    +0.000 OA
ATOM     16  N   UNL     1       7.150   5.208  13.220  0.00  0.00    +0.000 N 
ATOM     17  C   UNL     1       7.405   4.306  12.126  0.00  0.00    +0.000 C 
ATOM     18  H   UNL     1       7.336   6.195  13.123  0.00  0.00    +0.000 HD
ENDBRANCH  13  14
ENDBRANCH  11  13
ENDBRANCH   6   7
ENDBRANCH   2   6
ENDBRANCH   1   2
BRANCH   1  19
ATOM     19  C   UNL     1       1.908   5.560  18.863  0.00  0.00    +0.000 C 
BRANCH  19  20
ATOM     20  C   UNL     1       2.360   6.822  18.141  0.00  0.00    +0.000 C 
BRANCH  20  21
ATOM     21  O   UNL     1       2.527   7.844  19.129  0.00  0.00    +0.000 OA
BRANCH  21  22
ATOM     22  C   UNL     1       1.564   8.814  19.125  0.00  0.00    +0.000 A 
ATOM     23  C   UNL     1       1.056   9.425  17.976  0.00  0.00    +0.000 A 
ATOM     24  C   UNL     1       0.056  10.390  18.084  0.00  0.00    +0.000 A 
ATOM     25  C   UNL     1      -0.425  10.744  19.346  0.00  0.00    +0.000 A 
ATOM     26  C   UNL     1      -1.507  11.725  19.476  0.00  0.00    +0.000 A 
ATOM     27  O   UNL     1      -1.999  12.274  18.498  0.00  0.00    +0.000 OA
ATOM     28  C   UNL     1      -1.986  11.998  20.835  0.00  0.00    +0.000 A 
ATOM     29  C   UNL     1      -3.056  12.871  21.044  0.00  0.00    +0.000 A 
ATOM     30  C   UNL     1      -3.497  13.118  22.342  0.00  0.00    +0.000 A 
ATOM     31  C   UNL     1      -2.864  12.499  23.422  0.00  0.00    +0.000 A 
ATOM     32  C   UNL     1      -1.794  11.627  23.205  0.00  0.00    +0.000 A 
ATOM     33  C   UNL     1      -1.356  11.369  21.906  0.00  0.00    +0.000 A 
ATOM     34  O   UNL     1      -0.310  10.488  21.770  0.00  0.00    +0.000 OA
ATOM     35  C   UNL     1       0.105  10.171  20.499  0.00  0.00    +0.000 A 
ATOM     36  C   UNL     1       1.110   9.211  20.387  0.00  0.00    +0.000 A 
ENDBRANCH  21  22
ENDBRANCH  20  21
ENDBRANCH  19  20
ENDBRANCH   1  19
TORSDOF 11
ENDMDL
MODEL 6
REMARK VINA RESULT:      -7.7      2.527      4.579
REMARK  Name = 
REMARK  13 active torsions:
REMARK  status: ('A' for Active; 'I' for Inactive)
REMARK    1  A    between atoms: C_1  and  C_2
REMARK    2  A    between atoms: C_2  and  C_3
REMARK    3  A    between atoms: C_3  and  N_4
REMARK    4  A    between atoms: N_4  and  C_5
REMARK    5  A    between atoms: N_4  and  C_24
REMARK    6  A    between atoms: C_5  and  C_6
REMARK    7  A    between atoms: C_6  and  C_7
REMARK    8  A    between atoms: C_7  and  O_8
REMARK    9  A    between atoms: O_8  and  C_9
REMARK   10  A    between atoms: C_24  and  C_25
REMARK   11  A    between atoms: C_29  and  O_30
REMARK   12  A    between atoms: O_30  and  C_31
REMARK   13  A    between atoms: N_33  and  C_34
REMARK                            x       y       z     vdW  Elec       q    Type
REMARK                         _______ _______ _______ _____ _____    ______ ____
ROOT
ATOM      1  C   UNL     1       2.060   6.764  18.478  0.00  0.00    +0.000 C 
ENDROOT
BRANCH   1   2
ATOM      2  N   UNL     1       2.710   5.514  18.031  0.00  0.00    +0.000 NA
BRANCH   2   3
ATOM      3  C   UNL     1       1.717   4.455  17.742  0.00  0.00    +0.000 C 
BRANCH   3   5
ATOM      4  C   UNL     1       1.261   2.174  18.821  0.00  0.00    +0.000 C 
ATOM      5  C   UNL     1       1.150   3.686  18.946  0.00  0.00    +0.000 C 
ENDBRANCH   3   5
ENDBRANCH   2   3
BRANCH   2   6
ATOM      6  C   UNL     1       3.667   5.034  19.058  0.00  0.00    +0.000 C 
BRANCH   6   7
ATOM      7  C   UNL     1       5.100   4.947  18.582  0.00  0.00    +0.000 A 
ATOM      8  C   UNL     1       6.151   5.475  19.343  0.00  0.00    +0.000 A 
ATOM      9  C   UNL     1       7.462   5.424  18.867  0.00  0.00    +0.000 A 
ATOM     10  C   UNL     1       7.729   4.879  17.609  0.00  0.00    +0.000 A 
ATOM     11  C   UNL     1       6.677   4.391  16.830  0.00  0.00    +0.000 A 
ATOM     12  C   UNL     1       5.377   4.381  17.331  0.00  0.00    +0.000 A 
BRANCH  11  13
ATOM     13  O   UNL     1       7.011   3.890  15.556  0.00  0.00    +0.000 OA
BRANCH  13  14
ATOM     14  C   UNL     1       6.245   4.235  14.446  0.00  0.00    +0.000 C 
ATOM     15  O   UNL     1       5.566   5.243  14.312  0.00  0.00    +0.000 OA
ATOM     16  N   UNL     1       6.362   3.266  13.487  0.00  0.00    +0.000 N 
ATOM     17  C   UNL     1       5.676   3.343  12.223  0.00  0.00    +0.000 C 
ATOM     18  H   UNL     1       6.998   2.505  13.678  0.00  0.00    +0.000 HD
ENDBRANCH  13  14
ENDBRANCH  11  13
ENDBRANCH   6   7
ENDBRANCH   2   6
ENDBRANCH   1   2
BRANCH   1  19
ATOM     19  C   UNL     1       2.296   7.135  19.948  0.00  0.00    +0.000 C 
BRANCH  19  20
ATOM     20  C   UNL     1       1.568   8.409  20.358  0.00  0.00    +0.000 C 
BRANCH  20  21
ATOM     21  O   UNL     1       1.502   9.253  19.205  0.00  0.00    +0.000 OA
BRANCH  21  22
ATOM     22  C   UNL     1       0.301   9.877  19.015  0.00  0.00    +0.000 A 
ATOM     23  C   UNL     1      -0.480   9.767  17.862  0.00  0.00    +0.000 A 
ATOM     24  C   UNL     1      -1.703  10.430  17.782  0.00  0.00    +0.000 A 
ATOM     25  C   UNL     1      -2.135  11.208  18.857  0.00  0.00    +0.000 A 
ATOM     26  C   UNL     1      -3.439  11.877  18.809  0.00  0.00    +0.000 A 
ATOM     27  O   UNL     1      -4.169  11.795  17.829  0.00  0.00    +0.000 OA
ATOM     28  C   UNL     1      -3.836  12.630  20.003  0.00  0.00    +0.000 A 
ATOM     29  C   UNL     1      -5.088  13.245  20.066  0.00  0.00    +0.000 A 
ATOM     30  C   UNL     1      -5.448  13.956  21.209  0.00  0.00    +0.000 A 
ATOM     31  C   UNL     1      -4.553  14.055  22.277  0.00  0.00    +0.000 A 
ATOM     32  C   UNL     1      -3.302  13.437  22.207  0.00  0.00    +0.000 A 
ATOM     33  C   UNL     1      -2.942  12.716  21.068  0.00  0.00    +0.000 A 
ATOM     34  O   UNL     1      -1.703  12.123  21.078  0.00  0.00    +0.000 OA
ATOM     35  C   UNL     1      -1.345  11.358  19.994  0.00  0.00    +0.000 A 
ATOM     36  C   UNL     1      -0.119  10.698  20.067  0.00  0.00    +0.000 A 
ENDBRANCH  21  22
ENDBRANCH  20  21
ENDBRANCH  19  20
ENDBRANCH   1  19
TORSDOF 11
ENDMDL
MODEL 7
REMARK VINA RESULT:      -7.6      4.338     11.023
REMARK  Name = 
REMARK  13 active torsions:
REMARK  status: ('A' for Active; 'I' for Inactive)
REMARK    1  A    between atoms: C_1  and  C_2
REMARK    2  A    between atoms: C_2  and  C_3
REMARK    3  A    between atoms: C_3  and  N_4
REMARK    4  A    between atoms: N_4  and  C_5
REMARK    5  A    between atoms: N_4  and  C_24
REMARK    6  A    between atoms: C_5  and  C_6
REMARK    7  A    between atoms: C_6  and  C_7
REMARK    8  A    between atoms: C_7  and  O_8
REMARK    9  A    between atoms: O_8  and  C_9
REMARK   10  A    between atoms: C_24  and  C_25
REMARK   11  A    between atoms: C_29  and  O_30
REMARK   12  A    between atoms: O_30  and  C_31
REMARK   13  A    between atoms: N_33  and  C_34
REMARK                            x       y       z     vdW  Elec       q    Type
REMARK                         _______ _______ _______ _____ _____    ______ ____
ROOT
ATOM      1  C   UNL     1       0.779   9.720  19.291  0.00  0.00    +0.000 C 
ENDROOT
BRANCH   1   2
ATOM      2  N   UNL     1       0.127  10.907  18.701  0.00  0.00    +0.000 NA
BRANCH   2   3
ATOM      3  C   UNL     1       0.814  12.159  19.091  0.00  0.00    +0.000 C 
BRANCH   3   5
ATOM      4  C   UNL     1      -0.165  14.507  18.773  0.00  0.00    +0.000 C 
ATOM      5  C   UNL     1      -0.061  13.282  19.669  0.00  0.00    +0.000 C 
ENDBRANCH   3   5
ENDBRANCH   2   3
BRANCH   2   6
ATOM      6  C   UNL     1      -1.298  10.972  19.111  0.00  0.00    +0.000 C 
BRANCH   6   7
ATOM      7  C   UNL     1      -2.281  10.851  17.967  0.00  0.00    +0.000 A 
ATOM      8  C   UNL     1      -1.964  10.124  16.812  0.00  0.00    +0.000 A 
ATOM      9  C   UNL     1      -2.866  10.060  15.749  0.00  0.00    +0.000 A 
ATOM     10  C   UNL     1      -4.078  10.753  15.817  0.00  0.00    +0.000 A 
ATOM     11  C   UNL     1      -4.376  11.513  16.950  0.00  0.00    +0.000 A 
ATOM     12  C   UNL     1      -3.506  11.525  18.038  0.00  0.00    +0.000 A 
BRANCH  11  13
ATOM     13  O   UNL     1      -5.597  12.217  16.937  0.00  0.00    +0.000 OA
BRANCH  13  14
ATOM     14  C   UNL     1      -6.198  12.597  18.135  0.00  0.00    +0.000 C 
ATOM     15  O   UNL     1      -6.114  13.690  18.678  0.00  0.00    +0.000 OA
ATOM     16  N   UNL     1      -6.925  11.553  18.637  0.00  0.00    +0.000 N 
ATOM     17  C   UNL     1      -7.656  11.646  19.874  0.00  0.00    +0.000 C 
ATOM     18  H   UNL     1      -6.974  10.716  18.075  0.00  0.00    +0.000 HD
ENDBRANCH  13  14
ENDBRANCH  11  13
ENDBRANCH   6   7
ENDBRANCH   2   6
ENDBRANCH   1   2
BRANCH   1  19
ATOM     19  C   UNL     1       0.429   9.444  20.761  0.00  0.00    +0.000 C 
BRANCH  19  20
ATOM     20  C   UNL     1       0.132   7.975  21.029  0.00  0.00    +0.000 C 
BRANCH  20  21
ATOM     21  O   UNL     1       1.359   7.356  21.428  0.00  0.00    +0.000 OA
BRANCH  21  22
ATOM     22  C   UNL     1       1.823   6.393  20.575  0.00  0.00    +0.000 A 
ATOM     23  C   UNL     1       1.376   5.069  20.552  0.00  0.00    +0.000 A 
ATOM     24  C   UNL     1       1.902   4.173  19.624  0.00  0.00    +0.000 A 
ATOM     25  C   UNL     1       2.881   4.605  18.727  0.00  0.00    +0.000 A 
ATOM     26  C   UNL     1       3.414   3.688  17.715  0.00  0.00    +0.000 A 
ATOM     27  O   UNL     1       3.040   2.524  17.641  0.00  0.00    +0.000 OA
ATOM     28  C   UNL     1       4.400   4.241  16.782  0.00  0.00    +0.000 A 
ATOM     29  C   UNL     1       4.911   3.455  15.747  0.00  0.00    +0.000 A 
ATOM     30  C   UNL     1       5.847   3.998  14.869  0.00  0.00    +0.000 A 
ATOM     31  C   UNL     1       6.271   5.318  15.034  0.00  0.00    +0.000 A 
ATOM     32  C   UNL     1       5.755   6.099  16.071  0.00  0.00    +0.000 A 
ATOM     33  C   UNL     1       4.810   5.562  16.946  0.00  0.00    +0.000 A 
ATOM     34  O   UNL     1       4.336   6.395  17.931  0.00  0.00    +0.000 OA
ATOM     35  C   UNL     1       3.362   5.911  18.771  0.00  0.00    +0.000 A 
ATOM     36  C   UNL     1       2.838   6.803  19.705  0.00  0.00    +0.000 A 
ENDBRANCH  21  22
ENDBRANCH  20  21
ENDBRANCH  19  20
ENDBRANCH   1  19
TORSDOF 11
ENDMDL
MODEL 8
REMARK VINA RESULT:      -7.6      5.303     12.427
REMARK  Name = 
REMARK  13 active torsions:
REMARK  status: ('A' for Active; 'I' for Inactive)
REMARK    1  A    between atoms: C_1  and  C_2
REMARK    2  A    between atoms: C_2  and  C_3
REMARK    3  A    between atoms: C_3  and  N_4
REMARK    4  A    between atoms: N_4  and  C_5
REMARK    5  A    between atoms: N_4  and  C_24
REMARK    6  A    between atoms: C_5  and  C_6
REMARK    7  A    between atoms: C_6  and  C_7
REMARK    8  A    between atoms: C_7  and  O_8
REMARK    9  A    between atoms: O_8  and  C_9
REMARK   10  A    between atoms: C_24  and  C_25
REMARK   11  A    between atoms: C_29  and  O_30
REMARK   12  A    between atoms: O_30  and  C_31
REMARK   13  A    between atoms: N_33  and  C_34
REMARK                            x       y       z     vdW  Elec       q    Type
REMARK                         _______ _______ _______ _____ _____    ______ ____
ROOT
ATOM      1  C   UNL     1      -1.786  10.291  17.528  0.00  0.00    +0.000 C 
ENDROOT
BRANCH   1   2
ATOM      2  N   UNL     1      -3.252  10.479  17.549  0.00  0.00    +0.000 NA
BRANCH   2   3
ATOM      3  C   UNL     1      -3.857  10.207  16.226  0.00  0.00    +0.000 C 
BRANCH   3   5
ATOM      4  C   UNL     1      -3.607   9.984  13.684  0.00  0.00    +0.000 C 
ATOM      5  C   UNL     1      -2.904  10.166  15.020  0.00  0.00    +0.000 C 
ENDBRANCH   3   5
ENDBRANCH   2   3
BRANCH   2   6
ATOM      6  C   UNL     1      -3.590  11.859  17.977  0.00  0.00    +0.000 C 
BRANCH   6   7
ATOM      7  C   UNL     1      -4.623  11.934  19.079  0.00  0.00    +0.000 A 
ATOM      8  C   UNL     1      -5.928  11.463  18.883  0.00  0.00    +0.000 A 
ATOM      9  C   UNL     1      -6.881  11.581  19.896  0.00  0.00    +0.000 A 
ATOM     10  C   UNL     1      -6.547  12.203  21.101  0.00  0.00    +0.000 A 
ATOM     11  C   UNL     1      -5.259  12.712  21.282  0.00  0.00    +0.000 A 
ATOM     12  C   UNL     1      -4.289  12.537  20.298  0.00  0.00    +0.000 A 
BRANCH  11  13
ATOM     13  O   UNL     1      -5.000  13.362  22.506  0.00  0.00    +0.000 OA
BRANCH  13  14
ATOM     14  C   UNL     1      -5.253  14.724  22.642  0.00  0.00    +0.000 C 
ATOM     15  O   UNL     1      -5.435  15.526  21.737  0.00  0.00    +0.000 OA
ATOM     16  N   UNL     1      -5.279  15.057  23.969  0.00  0.00    +0.000 N 
ATOM     17  C   UNL     1      -5.514  16.404  24.422  0.00  0.00    +0.000 C 
ATOM     18  H   UNL     1      -5.177  14.304  24.633  0.00  0.00    +0.000 HD
ENDBRANCH  13  14
ENDBRANCH  11  13
ENDBRANCH   6   7
ENDBRANCH   2   6
ENDBRANCH   1   2
BRANCH   1  19
ATOM     19  C   UNL     1      -0.988  11.275  18.394  0.00  0.00    +0.000 C 
BRANCH  19  20
ATOM     20  C   UNL     1      -0.655  10.713  19.770  0.00  0.00    +0.000 C 
BRANCH  20  21
ATOM     21  O   UNL     1       0.772  10.670  19.880  0.00  0.00    +0.000 OA
BRANCH  21  22
ATOM     22  C   UNL     1       1.351   9.523  19.416  0.00  0.00    +0.000 A 
ATOM     23  C   UNL     1       2.003   9.402  18.186  0.00  0.00    +0.000 A 
ATOM     24  C   UNL     1       2.581   8.189  17.819  0.00  0.00    +0.000 A 
ATOM     25  C   UNL     1       2.495   7.096  18.684  0.00  0.00    +0.000 A 
ATOM     26  C   UNL     1       3.135   5.824  18.335  0.00  0.00    +0.000 A 
ATOM     27  O   UNL     1       3.734   5.674  17.278  0.00  0.00    +0.000 OA
ATOM     28  C   UNL     1       3.040   4.747  19.325  0.00  0.00    +0.000 A 
ATOM     29  C   UNL     1       3.675   3.524  19.101  0.00  0.00    +0.000 A 
ATOM     30  C   UNL     1       3.573   2.512  20.054  0.00  0.00    +0.000 A 
ATOM     31  C   UNL     1       2.834   2.726  21.219  0.00  0.00    +0.000 A 
ATOM     32  C   UNL     1       2.202   3.953  21.437  0.00  0.00    +0.000 A 
ATOM     33  C   UNL     1       2.309   4.971  20.490  0.00  0.00    +0.000 A 
ATOM     34  O   UNL     1       1.675   6.155  20.781  0.00  0.00    +0.000 OA
ATOM     35  C   UNL     1       1.811   7.195  19.893  0.00  0.00    +0.000 A 
ATOM     36  C   UNL     1       1.230   8.409  20.254  0.00  0.00    +0.000 A 
ENDBRANCH  21  22
ENDBRANCH  20  21
ENDBRANCH  19  20
ENDBRANCH   1  19
TORSDOF 11
ENDMDL
MODEL 9
REMARK VINA RESULT:      -7.6      4.206     11.503
REMARK  Name = 
REMARK  13 active torsions:
REMARK  status: ('A' for Active; 'I' for Inactive)
REMARK    1  A    between atoms: C_1  and  C_2
REMARK    2  A    between atoms: C_2  and  C_3
REMARK    3  A    between atoms: C_3  and  N_4
REMARK    4  A    between atoms: N_4  and  C_5
REMARK    5  A    between atoms: N_4  and  C_24
REMARK    6  A    between atoms: C_5  and  C_6
REMARK    7  A    between atoms: C_6  and  C_7
REMARK    8  A    between atoms: C_7  and  O_8
REMARK    9  A    between atoms: O_8  and  C_9
REMARK   10  A    between atoms: C_24  and  C_25
REMARK   11  A    between atoms: C_29  and  O_30
REMARK   12  A    between atoms: O_30  and  C_31
REMARK   13  A    between atoms: N_33  and  C_34
REMARK                            x       y       z     vdW  Elec       q    Type
REMARK                         _______ _______ _______ _____ _____    ______ ____
ROOT
ATOM      1  C   UNL     1       0.947  10.519  20.180  0.00  0.00    +0.000 C 
ENDROOT
BRANCH   1   2
ATOM      2  N   UNL     1       0.030  11.661  20.376  0.00  0.00    +0.000 NA
BRANCH   2   3
ATOM      3  C   UNL     1      -1.111  11.302  21.249  0.00  0.00    +0.000 C 
BRANCH   3   5
ATOM      4  C   UNL     1      -2.351  12.514  23.137  0.00  0.00    +0.000 C 
ATOM      5  C   UNL     1      -1.071  11.822  22.694  0.00  0.00    +0.000 C 
ENDBRANCH   3   5
ENDBRANCH   2   3
BRANCH   2   6
ATOM      6  C   UNL     1      -0.476  12.148  19.069  0.00  0.00    +0.000 C 
BRANCH   6   7
ATOM      7  C   UNL     1      -1.791  11.534  18.642  0.00  0.00    +0.000 A 
ATOM      8  C   UNL     1      -1.828  10.380  17.848  0.00  0.00    +0.000 A 
ATOM      9  C   UNL     1      -3.050   9.852  17.426  0.00  0.00    +0.000 A 
ATOM     10  C   UNL     1      -4.243  10.495  17.765  0.00  0.00    +0.000 A 
ATOM     11  C   UNL     1      -4.205  11.670  18.519  0.00  0.00    +0.000 A 
ATOM     12  C   UNL     1      -2.991  12.161  18.995  0.00  0.00    +0.000 A 
BRANCH  11  13
ATOM     13  O   UNL     1      -5.442  12.288  18.793  0.00  0.00    +0.000 OA
BRANCH  13  14
ATOM     14  C   UNL     1      -5.820  12.546  20.108  0.00  0.00    +0.000 C 
ATOM     15  O   UNL     1      -5.868  11.738  21.025  0.00  0.00    +0.000 OA
ATOM     16  N   UNL     1      -6.135  13.870  20.245  0.00  0.00    +0.000 N 
ATOM     17  C   UNL     1      -6.569  14.435  21.497  0.00  0.00    +0.000 C 
ATOM     18  H   UNL     1      -6.002  14.460  19.436  0.00  0.00    +0.000 HD
ENDBRANCH  13  14
ENDBRANCH  11  13
ENDBRANCH   6   7
ENDBRANCH   2   6
ENDBRANCH   1   2
BRANCH   1  19
ATOM     19  C   UNL     1       0.436   9.171  20.707  0.00  0.00    +0.000 C 
BRANCH  19  20
ATOM     20  C   UNL     1       1.559   8.270  21.206  0.00  0.00    +0.000 C 
BRANCH  20  21
ATOM     21  O   UNL     1       1.042   6.937  21.265  0.00  0.00    +0.000 OA
BRANCH  21  22
ATOM     22  C   UNL     1       1.723   6.022  20.511  0.00  0.00    +0.000 A 
ATOM     23  C   UNL     1       1.660   4.637  20.692  0.00  0.00    +0.000 A 
ATOM     24  C   UNL     1       2.379   3.791  19.851  0.00  0.00    +0.000 A 
ATOM     25  C   UNL     1       3.167   4.337  18.836  0.00  0.00    +0.000 A 
ATOM     26  C   UNL     1       3.896   3.460  17.914  0.00  0.00    +0.000 A 
ATOM     27  O   UNL     1       3.856   2.241  18.018  0.00  0.00    +0.000 OA
ATOM     28  C   UNL     1       4.656   4.117  16.846  0.00  0.00    +0.000 A 
ATOM     29  C   UNL     1       5.326   3.356  15.886  0.00  0.00    +0.000 A 
ATOM     30  C   UNL     1       6.044   3.998  14.878  0.00  0.00    +0.000 A 
ATOM     31  C   UNL     1       6.092   5.393  14.839  0.00  0.00    +0.000 A 
ATOM     32  C   UNL     1       5.417   6.148  15.803  0.00  0.00    +0.000 A 
ATOM     33  C   UNL     1       4.690   5.509  16.807  0.00  0.00    +0.000 A 
ATOM     34  O   UNL     1       4.040   6.317  17.709  0.00  0.00    +0.000 OA
ATOM     35  C   UNL     1       3.269   5.716  18.675  0.00  0.00    +0.000 A 
ATOM     36  C   UNL     1       2.553   6.559  19.522  0.00  0.00    +0.000 A 
ENDBRANCH  21  22
ENDBRANCH  20  21
ENDBRANCH  19  20
ENDBRANCH   1  19
TORSDOF 11
ENDMDL
