MODEL 1
REMARK VINA RESULT:      -7.2      0.000      0.000
REMARK  Name = 
REMARK  8 active torsions:
REMARK  status: ('A' for Active; 'I' for Inactive)
REMARK    1  A    between atoms: N_3  and  C_4
REMARK    2  A    between atoms: C_4  and  C_5
REMARK    3  A    between atoms: N_10  and  C_11
REMARK    4  A    between atoms: C_11  and  C_12
REMARK    5  A    between atoms: C_12  and  O_13
REMARK    6  A    between atoms: C_12  and  C_14
REMARK    7  A    between atoms: C_14  and  O_15
REMARK    8  A    between atoms: O_15  and  C_16
REMARK                            x       y       z     vdW  Elec       q    Type
REMARK                         _______ _______ _______ _____ _____    ______ ____
ROOT
ATOM      1  O   UNL     1       5.784   3.921  19.458  0.00  0.00    +0.000 OA
ATOM      2  C   UNL     1       4.710   4.165  18.920  0.00  0.00    +0.000 C 
ATOM      3  N   UNL     1       4.513   5.174  18.042  0.00  0.00    +0.000 N 
ATOM      4  N   UNL     1       3.625   3.427  19.252  0.00  0.00    +0.000 N 
ATOM      5  H   UNL     1       3.732   5.129  17.404  0.00  0.00    +0.000 HD
ATOM      6  H   UNL     1       3.859   2.736  19.951  0.00  0.00    +0.000 HD
ENDROOT
BRANCH   3   7
ATOM      7  C   UNL     1       5.616   5.994  17.600  0.00  0.00    +0.000 C 
BRANCH   7   8
ATOM      8  C   UNL     1       6.118   5.465  16.297  0.00  0.00    +0.000 A 
ATOM      9  C   UNL     1       5.452   4.577  15.418  0.00  0.00    +0.000 A 
ATOM     10  C   UNL     1       6.311   4.407  14.363  0.00  0.00    +0.000 A 
ATOM     11  N   UNL     1       7.408   5.168  14.645  0.00  0.00    +0.000 N 
ATOM     12  N   UNL     1       7.324   5.816  15.820  0.00  0.00    +0.000 NA
ATOM     13  H   UNL     1       8.245   5.290  14.084  0.00  0.00    +0.000 HD
ENDBRANCH   7   8
ENDBRANCH   3   7
BRANCH   4  14
ATOM     14  C   UNL     1       2.247   3.576  18.797  0.00  0.00    +0.000 C 
BRANCH  14  15
ATOM     15  C   UNL     1       1.298   4.068  19.903  0.00  0.00    +0.000 C 
BRANCH  15  16
ATOM     16  O   UNL     1       0.859   2.955  20.690  0.00  0.00    +0.000 OA
ATOM     17  H   UNL     1       1.639   2.467  21.003  0.00  0.00    +0.000 HD
ENDBRANCH  15  16
BRANCH  15  18
ATOM     18  C   UNL     1       1.986   5.140  20.763  0.00  0.00    +0.000 C 
BRANCH  18  19
ATOM     19  O   UNL     1       2.635   6.116  19.945  0.00  0.00    +0.000 OA
BRANCH  19  20
ATOM     20  C   UNL     1       2.024   7.344  19.900  0.00  0.00    +0.000 A 
ATOM     21  C   UNL     1       1.285   7.923  20.940  0.00  0.00    +0.000 A 
ATOM     22  C   UNL     1       0.723   9.193  20.791  0.00  0.00    +0.000 A 
ATOM     23  C   UNL     1       0.893   9.891  19.599  0.00  0.00    +0.000 A 
ATOM     24  C   UNL     1       1.617   9.309  18.565  0.00  0.00    +0.000 A 
ATOM     25  F   UNL     1       1.778   9.981  17.418  0.00  0.00    +0.000 F 
ATOM     26  C   UNL     1       2.180   8.043  18.704  0.00  0.00    +0.000 A 
ENDBRANCH  19  20
ENDBRANCH  18  19
ENDBRANCH  15  18
ENDBRANCH  14  15
ENDBRANCH   4  14
TORSDOF 8
ENDMDL
MODEL 2
REMARK VINA RESULT:      -7.2      2.074      2.714
REMARK  Name = 
REMARK  8 active torsions:
REMARK  status: ('A' for Active; 'I' for Inactive)
REMARK    1  A    between atoms: N_3  and  C_4
REMARK    2  A    between atoms: C_4  and  C_5
REMARK    3  A    between atoms: N_10  and  C_11
REMARK    4  A    between atoms: C_11  and  C_12
REMARK    5  A    between atoms: C_12  and  O_13
REMARK    6  A    between atoms: C_12  and  C_14
REMARK    7  A    between atoms: C_14  and  O_15
REMARK    8  A    between atoms: O_15  and  C_16
REMARK                            x       y       z     vdW  Elec       q    Type
REMARK                         _______ _______ _______ _____ _____    ______ ____
ROOT
ATOM      1  O   UNL     1       2.201   3.316  16.460  0.00  0.00    +0.000 OA
ATOM      2  C   UNL     1       2.654   3.133  17.584  0.00  0.00    +0.000 C 
ATOM      3  N   UNL     1       3.960   3.268  17.908  0.00  0.00    +0.000 N 
ATOM      4  N   UNL     1       1.824   2.716  18.569  0.00  0.00    +0.000 N 
ATOM      5  H   UNL     1       4.218   3.424  18.871  0.00  0.00    +0.000 HD
ATOM      6  H   UNL     1       0.884   2.594  18.219  0.00  0.00    +0.000 HD
ENDROOT
BRANCH   3   7
ATOM      7  C   UNL     1       4.917   3.740  16.934  0.00  0.00    +0.000 C 
BRANCH   7   8
ATOM      8  C   UNL     1       5.920   4.603  17.626  0.00  0.00    +0.000 A 
ATOM      9  C   UNL     1       6.648   5.684  17.074  0.00  0.00    +0.000 A 
ATOM     10  C   UNL     1       7.421   6.158  18.103  0.00  0.00    +0.000 A 
ATOM     11  N   UNL     1       7.135   5.371  19.180  0.00  0.00    +0.000 N 
ATOM     12  N   UNL     1       6.232   4.410  18.919  0.00  0.00    +0.000 NA
ATOM     13  H   UNL     1       7.517   5.434  20.119  0.00  0.00    +0.000 HD
ENDBRANCH   7   8
ENDBRANCH   3   7
BRANCH   4  14
ATOM     14  C   UNL     1       2.146   2.375  19.950  0.00  0.00    +0.000 C 
BRANCH  14  15
ATOM     15  C   UNL     1       1.424   3.267  20.974  0.00  0.00    +0.000 C 
BRANCH  15  16
ATOM     16  O   UNL     1       1.224   2.538  22.191  0.00  0.00    +0.000 OA
ATOM     17  H   UNL     1       1.350   3.144  22.941  0.00  0.00    +0.000 HD
ENDBRANCH  15  16
BRANCH  15  18
ATOM     18  C   UNL     1       2.213   4.564  21.208  0.00  0.00    +0.000 C 
BRANCH  18  19
ATOM     19  O   UNL     1       2.898   4.969  20.021  0.00  0.00    +0.000 OA
BRANCH  19  20
ATOM     20  C   UNL     1       2.583   6.223  19.560  0.00  0.00    +0.000 A 
ATOM     21  C   UNL     1       2.903   6.729  18.293  0.00  0.00    +0.000 A 
ATOM     22  C   UNL     1       2.512   8.018  17.923  0.00  0.00    +0.000 A 
ATOM     23  C   UNL     1       1.801   8.811  18.819  0.00  0.00    +0.000 A 
ATOM     24  C   UNL     1       1.495   8.310  20.079  0.00  0.00    +0.000 A 
ATOM     25  F   UNL     1       0.812   9.075  20.940  0.00  0.00    +0.000 F 
ATOM     26  C   UNL     1       1.881   7.027  20.458  0.00  0.00    +0.000 A 
ENDBRANCH  19  20
ENDBRANCH  18  19
ENDBRANCH  15  18
ENDBRANCH  14  15
ENDBRANCH   4  14
TORSDOF 8
ENDMDL
MODEL 3
REMARK VINA RESULT:      -7.1      1.350      1.830
REMARK  Name = 
REMARK  8 active torsions:
REMARK  status: ('A' for Active; 'I' for Inactive)
REMARK    1  A    between atoms: N_3  and  C_4
REMARK    2  A    between atoms: C_4  and  C_5
REMARK    3  A    between atoms: N_10  and  C_11
REMARK    4  A    between atoms: C_11  and  C_12
REMARK    5  A    between atoms: C_12  and  O_13
REMARK    6  A    between atoms: C_12  and  C_14
REMARK    7  A    between atoms: C_14  and  O_15
REMARK    8  A    between atoms: O_15  and  C_16
REMARK                            x       y       z     vdW  Elec       q    Type
REMARK                         _______ _______ _______ _____ _____    ______ ____
ROOT
ATOM      1  O   UNL     1       6.603   5.096  19.740  0.00  0.00    +0.000 OA
ATOM      2  C   UNL     1       5.807   4.420  19.099  0.00  0.00    +0.000 C 
ATOM      3  N   UNL     1       5.498   4.637  17.801  0.00  0.00    +0.000 N 
ATOM      4  N   UNL     1       5.138   3.422  19.724  0.00  0.00    +0.000 N 
ATOM      5  H   UNL     1       5.108   3.885  17.253  0.00  0.00    +0.000 HD
ATOM      6  H   UNL     1       5.395   3.372  20.700  0.00  0.00    +0.000 HD
ENDROOT
BRANCH   3   7
ATOM      7  C   UNL     1       6.183   5.657  17.041  0.00  0.00    +0.000 C 
BRANCH   7   8
ATOM      8  C   UNL     1       6.434   5.141  15.662  0.00  0.00    +0.000 A 
ATOM      9  C   UNL     1       5.677   4.175  14.956  0.00  0.00    +0.000 A 
ATOM     10  C   UNL     1       6.296   4.055  13.739  0.00  0.00    +0.000 A 
ATOM     11  N   UNL     1       7.353   4.918  13.768  0.00  0.00    +0.000 N 
ATOM     12  N   UNL     1       7.468   5.586  14.929  0.00  0.00    +0.000 NA
ATOM     13  H   UNL     1       8.032   5.100  13.035  0.00  0.00    +0.000 HD
ENDBRANCH   7   8
ENDBRANCH   3   7
BRANCH   4  14
ATOM     14  C   UNL     1       4.108   2.539  19.188  0.00  0.00    +0.000 C 
BRANCH  14  15
ATOM     15  C   UNL     1       2.738   2.739  19.858  0.00  0.00    +0.000 C 
BRANCH  15  16
ATOM     16  O   UNL     1       2.888   2.698  21.282  0.00  0.00    +0.000 OA
ATOM     17  H   UNL     1       2.038   2.442  21.677  0.00  0.00    +0.000 HD
ENDBRANCH  15  16
BRANCH  15  18
ATOM     18  C   UNL     1       2.096   4.055  19.389  0.00  0.00    +0.000 C 
BRANCH  18  19
ATOM     19  O   UNL     1       2.615   5.167  20.122  0.00  0.00    +0.000 OA
BRANCH  19  20
ATOM     20  C   UNL     1       2.365   6.399  19.572  0.00  0.00    +0.000 A 
ATOM     21  C   UNL     1       2.600   6.757  18.237  0.00  0.00    +0.000 A 
ATOM     22  C   UNL     1       2.287   8.040  17.780  0.00  0.00    +0.000 A 
ATOM     23  C   UNL     1       1.740   8.973  18.654  0.00  0.00    +0.000 A 
ATOM     24  C   UNL     1       1.518   8.618  19.980  0.00  0.00    +0.000 A 
ATOM     25  F   UNL     1       0.992   9.519  20.821  0.00  0.00    +0.000 F 
ATOM     26  C   UNL     1       1.828   7.343  20.446  0.00  0.00    +0.000 A 
ENDBRANCH  19  20
ENDBRANCH  18  19
ENDBRANCH  15  18
ENDBRANCH  14  15
ENDBRANCH   4  14
TORSDOF 8
ENDMDL
MODEL 4
REMARK VINA RESULT:      -7.1      1.794      2.528
REMARK  Name = 
REMARK  8 active torsions:
REMARK  status: ('A' for Active; 'I' for Inactive)
REMARK    1  A    between atoms: N_3  and  C_4
REMARK    2  A    between atoms: C_4  and  C_5
REMARK    3  A    between atoms: N_10  and  C_11
REMARK    4  A    between atoms: C_11  and  C_12
REMARK    5  A    between atoms: C_12  and  O_13
REMARK    6  A    between atoms: C_12  and  C_14
REMARK    7  A    between atoms: C_14  and  O_15
REMARK    8  A    between atoms: O_15  and  C_16
REMARK                            x       y       z     vdW  Elec       q    Type
REMARK                         _______ _______ _______ _____ _____    ______ ____
ROOT
ATOM      1  O   UNL     1       4.811   3.849  16.427  0.00  0.00    +0.000 OA
ATOM      2  C   UNL     1       4.948   3.835  17.645  0.00  0.00    +0.000 C 
ATOM      3  N   UNL     1       6.123   4.044  18.280  0.00  0.00    +0.000 N 
ATOM      4  N   UNL     1       3.880   3.538  18.424  0.00  0.00    +0.000 N 
ATOM      5  H   UNL     1       6.118   4.339  19.246  0.00  0.00    +0.000 HD
ATOM      6  H   UNL     1       3.065   3.346  17.859  0.00  0.00    +0.000 HD
ENDROOT
BRANCH   3   7
ATOM      7  C   UNL     1       7.309   4.400  17.538  0.00  0.00    +0.000 C 
BRANCH   7   8
ATOM      8  C   UNL     1       7.473   5.884  17.577  0.00  0.00    +0.000 A 
ATOM      9  C   UNL     1       8.026   6.659  18.625  0.00  0.00    +0.000 A 
ATOM     10  C   UNL     1       7.968   7.955  18.181  0.00  0.00    +0.000 A 
ATOM     11  N   UNL     1       7.406   7.901  16.939  0.00  0.00    +0.000 N 
ATOM     12  N   UNL     1       7.085   6.655  16.548  0.00  0.00    +0.000 NA
ATOM     13  H   UNL     1       7.213   8.672  16.306  0.00  0.00    +0.000 HD
ENDBRANCH   7   8
ENDBRANCH   3   7
BRANCH   4  14
ATOM     14  C   UNL     1       3.821   3.399  19.875  0.00  0.00    +0.000 C 
BRANCH  14  15
ATOM     15  C   UNL     1       2.382   3.326  20.413  0.00  0.00    +0.000 C 
BRANCH  15  16
ATOM     16  O   UNL     1       2.403   2.942  21.793  0.00  0.00    +0.000 OA
ATOM     17  H   UNL     1       3.252   2.509  21.983  0.00  0.00    +0.000 HD
ENDBRANCH  15  16
BRANCH  15  18
ATOM     18  C   UNL     1       1.660   4.666  20.204  0.00  0.00    +0.000 C 
BRANCH  18  19
ATOM     19  O   UNL     1       2.535   5.765  20.468  0.00  0.00    +0.000 OA
BRANCH  19  20
ATOM     20  C   UNL     1       2.295   6.896  19.728  0.00  0.00    +0.000 A 
ATOM     21  C   UNL     1       2.693   7.099  18.400  0.00  0.00    +0.000 A 
ATOM     22  C   UNL     1       2.375   8.286  17.736  0.00  0.00    +0.000 A 
ATOM     23  C   UNL     1       1.659   9.280  18.397  0.00  0.00    +0.000 A 
ATOM     24  C   UNL     1       1.275   9.080  19.718  0.00  0.00    +0.000 A 
ATOM     25  F   UNL     1       0.588  10.038  20.353  0.00  0.00    +0.000 F 
ATOM     26  C   UNL     1       1.589   7.901  20.389  0.00  0.00    +0.000 A 
ENDBRANCH  19  20
ENDBRANCH  18  19
ENDBRANCH  15  18
ENDBRANCH  14  15
ENDBRANCH   4  14
TORSDOF 8
ENDMDL
MODEL 5
REMARK VINA RESULT:      -7.0      1.448      1.806
REMARK  Name = 
REMARK  8 active torsions:
REMARK  status: ('A' for Active; 'I' for Inactive)
REMARK    1  A    between atoms: N_3  and  C_4
REMARK    2  A    between atoms: C_4  and  C_5
REMARK    3  A    between atoms: N_10  and  C_11
REMARK    4  A    between atoms: C_11  and  C_12
REMARK    5  A    between atoms: C_12  and  O_13
REMARK    6  A    between atoms: C_12  and  C_14
REMARK    7  A    between atoms: C_14  and  O_15
REMARK    8  A    between atoms: O_15  and  C_16
REMARK                            x       y       z     vdW  Elec       q    Type
REMARK                         _______ _______ _______ _____ _____    ______ ____
ROOT
ATOM      1  O   UNL     1       6.830   5.274  19.776  0.00  0.00    +0.000 OA
ATOM      2  C   UNL     1       5.918   4.789  19.116  0.00  0.00    +0.000 C 
ATOM      3  N   UNL     1       6.030   4.419  17.821  0.00  0.00    +0.000 N 
ATOM      4  N   UNL     1       4.695   4.656  19.682  0.00  0.00    +0.000 N 
ATOM      5  H   UNL     1       5.379   3.749  17.439  0.00  0.00    +0.000 HD
ATOM      6  H   UNL     1       4.696   5.007  20.630  0.00  0.00    +0.000 HD
ENDROOT
BRANCH   3   7
ATOM      7  C   UNL     1       7.302   4.491  17.141  0.00  0.00    +0.000 C 
BRANCH   7   8
ATOM      8  C   UNL     1       7.057   4.564  15.670  0.00  0.00    +0.000 A 
ATOM      9  C   UNL     1       6.133   3.802  14.915  0.00  0.00    +0.000 A 
ATOM     10  C   UNL     1       6.275   4.243  13.625  0.00  0.00    +0.000 A 
ATOM     11  N   UNL     1       7.238   5.208  13.661  0.00  0.00    +0.000 N 
ATOM     12  N   UNL     1       7.741   5.419  14.890  0.00  0.00    +0.000 NA
ATOM     13  H   UNL     1       7.600   5.760  12.889  0.00  0.00    +0.000 HD
ENDBRANCH   7   8
ENDBRANCH   3   7
BRANCH   4  14
ATOM     14  C   UNL     1       3.458   4.172  19.078  0.00  0.00    +0.000 C 
BRANCH  14  15
ATOM     15  C   UNL     1       2.281   4.135  20.067  0.00  0.00    +0.000 C 
BRANCH  15  16
ATOM     16  O   UNL     1       2.614   3.298  21.181  0.00  0.00    +0.000 OA
ATOM     17  H   UNL     1       2.035   2.517  21.168  0.00  0.00    +0.000 HD
ENDBRANCH  15  16
BRANCH  15  18
ATOM     18  C   UNL     1       1.908   5.557  20.514  0.00  0.00    +0.000 C 
BRANCH  18  19
ATOM     19  O   UNL     1       2.740   6.529  19.876  0.00  0.00    +0.000 OA
BRANCH  19  20
ATOM     20  C   UNL     1       2.104   7.682  19.489  0.00  0.00    +0.000 A 
ATOM     21  C   UNL     1       2.165   8.255  18.212  0.00  0.00    +0.000 A 
ATOM     22  C   UNL     1       1.457   9.425  17.924  0.00  0.00    +0.000 A 
ATOM     23  C   UNL     1       0.685  10.030  18.911  0.00  0.00    +0.000 A 
ATOM     24  C   UNL     1       0.635   9.464  20.179  0.00  0.00    +0.000 A 
ATOM     25  F   UNL     1      -0.107  10.049  21.129  0.00  0.00    +0.000 F 
ATOM     26  C   UNL     1       1.338   8.300  20.478  0.00  0.00    +0.000 A 
ENDBRANCH  19  20
ENDBRANCH  18  19
ENDBRANCH  15  18
ENDBRANCH  14  15
ENDBRANCH   4  14
TORSDOF 8
ENDMDL
MODEL 6
REMARK VINA RESULT:      -7.0      3.213      7.197
REMARK  Name = 
REMARK  8 active torsions:
REMARK  status: ('A' for Active; 'I' for Inactive)
REMARK    1  A    between atoms: N_3  and  C_4
REMARK    2  A    between atoms: C_4  and  C_5
REMARK    3  A    between atoms: N_10  and  C_11
REMARK    4  A    between atoms: C_11  and  C_12
REMARK    5  A    between atoms: C_12  and  O_13
REMARK    6  A    between atoms: C_12  and  C_14
REMARK    7  A    between atoms: C_14  and  O_15
REMARK    8  A    between atoms: O_15  and  C_16
REMARK                            x       y       z     vdW  Elec       q    Type
REMARK                         _______ _______ _______ _____ _____    ______ ____
ROOT
ATOM      1  O   UNL     1       2.262   6.901  18.027  0.00  0.00    +0.000 OA
ATOM      2  C   UNL     1       3.283   6.405  18.489  0.00  0.00    +0.000 C 
ATOM      3  N   UNL     1       3.406   5.968  19.763  0.00  0.00    +0.000 N 
ATOM      4  N   UNL     1       4.389   6.330  17.712  0.00  0.00    +0.000 N 
ATOM      5  H   UNL     1       4.123   5.295  19.989  0.00  0.00    +0.000 HD
ATOM      6  H   UNL     1       4.216   6.727  16.800  0.00  0.00    +0.000 HD
ENDROOT
BRANCH   3   7
ATOM      7  C   UNL     1       2.272   5.976  20.658  0.00  0.00    +0.000 C 
BRANCH   7   8
ATOM      8  C   UNL     1       1.790   4.574  20.836  0.00  0.00    +0.000 A 
ATOM      9  C   UNL     1       2.296   3.600  21.731  0.00  0.00    +0.000 A 
ATOM     10  C   UNL     1       1.518   2.490  21.529  0.00  0.00    +0.000 A 
ATOM     11  N   UNL     1       0.618   2.832  20.562  0.00  0.00    +0.000 N 
ATOM     12  N   UNL     1       0.766   4.091  20.113  0.00  0.00    +0.000 NA
ATOM     13  H   UNL     1      -0.119   2.260  20.162  0.00  0.00    +0.000 HD
ENDBRANCH   7   8
ENDBRANCH   3   7
BRANCH   4  14
ATOM     14  C   UNL     1       5.720   5.845  18.064  0.00  0.00    +0.000 C 
BRANCH  14  15
ATOM     15  C   UNL     1       5.886   4.332  17.845  0.00  0.00    +0.000 C 
BRANCH  15  16
ATOM     16  O   UNL     1       5.472   3.627  19.021  0.00  0.00    +0.000 OA
ATOM     17  H   UNL     1       4.502   3.659  19.078  0.00  0.00    +0.000 HD
ENDBRANCH  15  16
BRANCH  15  18
ATOM     18  C   UNL     1       5.103   3.879  16.603  0.00  0.00    +0.000 C 
BRANCH  18  19
ATOM     19  O   UNL     1       5.097   4.898  15.601  0.00  0.00    +0.000 OA
BRANCH  19  20
ATOM     20  C   UNL     1       5.762   4.584  14.442  0.00  0.00    +0.000 A 
ATOM     21  C   UNL     1       5.327   3.666  13.477  0.00  0.00    +0.000 A 
ATOM     22  C   UNL     1       6.078   3.440  12.321  0.00  0.00    +0.000 A 
ATOM     23  C   UNL     1       7.271   4.129  12.123  0.00  0.00    +0.000 A 
ATOM     24  C   UNL     1       7.705   5.032  13.087  0.00  0.00    +0.000 A 
ATOM     25  F   UNL     1       8.854   5.693  12.896  0.00  0.00    +0.000 F 
ATOM     26  C   UNL     1       6.965   5.263  14.244  0.00  0.00    +0.000 A 
ENDBRANCH  19  20
ENDBRANCH  18  19
ENDBRANCH  15  18
ENDBRANCH  14  15
ENDBRANCH   4  14
TORSDOF 8
ENDMDL
MODEL 7
REMARK VINA RESULT:      -7.0      2.372      4.711
REMARK  Name = 
REMARK  8 active torsions:
REMARK  status: ('A' for Active; 'I' for Inactive)
REMARK    1  A    between atoms: N_3  and  C_4
REMARK    2  A    between atoms: C_4  and  C_5
REMARK    3  A    between atoms: N_10  and  C_11
REMARK    4  A    between atoms: C_11  and  C_12
REMARK    5  A    between atoms: C_12  and  O_13
REMARK    6  A    between atoms: C_12  and  C_14
REMARK    7  A    between atoms: C_14  and  O_15
REMARK    8  A    between atoms: O_15  and  C_16
REMARK                            x       y       z     vdW  Elec       q    Type
REMARK                         _______ _______ _______ _____ _____    ______ ____
ROOT
ATOM      1  O   UNL     1       6.549   5.151  19.903  0.00  0.00    +0.000 OA
ATOM      2  C   UNL     1       6.348   4.613  18.820  0.00  0.00    +0.000 C 
ATOM      3  N   UNL     1       5.565   3.525  18.646  0.00  0.00    +0.000 N 
ATOM      4  N   UNL     1       6.982   5.087  17.721  0.00  0.00    +0.000 N 
ATOM      5  H   UNL     1       5.183   3.330  17.733  0.00  0.00    +0.000 HD
ATOM      6  H   UNL     1       7.582   5.864  17.959  0.00  0.00    +0.000 HD
ENDROOT
BRANCH   3   7
ATOM      7  C   UNL     1       4.821   2.967  19.752  0.00  0.00    +0.000 C 
BRANCH   7   8
ATOM      8  C   UNL     1       3.480   2.534  19.258  0.00  0.00    +0.000 A 
ATOM      9  C   UNL     1       2.229   2.724  19.893  0.00  0.00    +0.000 A 
ATOM     10  C   UNL     1       1.308   2.166  19.045  0.00  0.00    +0.000 A 
ATOM     11  N   UNL     1       2.018   1.685  17.984  0.00  0.00    +0.000 N 
ATOM     12  N   UNL     1       3.344   1.884  18.090  0.00  0.00    +0.000 NA
ATOM     13  H   UNL     1       1.665   1.211  17.158  0.00  0.00    +0.000 HD
ENDBRANCH   7   8
ENDBRANCH   3   7
BRANCH   4  14
ATOM     14  C   UNL     1       6.948   4.574  16.356  0.00  0.00    +0.000 C 
BRANCH  14  15
ATOM     15  C   UNL     1       6.050   5.404  15.424  0.00  0.00    +0.000 C 
BRANCH  15  16
ATOM     16  O   UNL     1       5.198   4.532  14.672  0.00  0.00    +0.000 OA
ATOM     17  H   UNL     1       4.666   5.067  14.059  0.00  0.00    +0.000 HD
ENDBRANCH  15  16
BRANCH  15  18
ATOM     18  C   UNL     1       5.243   6.433  16.231  0.00  0.00    +0.000 C 
BRANCH  18  19
ATOM     19  O   UNL     1       4.178   5.802  16.946  0.00  0.00    +0.000 OA
BRANCH  19  20
ATOM     20  C   UNL     1       3.419   6.639  17.726  0.00  0.00    +0.000 A 
ATOM     21  C   UNL     1       3.056   7.952  17.397  0.00  0.00    +0.000 A 
ATOM     22  C   UNL     1       2.260   8.707  18.261  0.00  0.00    +0.000 A 
ATOM     23  C   UNL     1       1.824   8.155  19.462  0.00  0.00    +0.000 A 
ATOM     24  C   UNL     1       2.194   6.856  19.790  0.00  0.00    +0.000 A 
ATOM     25  F   UNL     1       1.774   6.327  20.947  0.00  0.00    +0.000 F 
ATOM     26  C   UNL     1       2.988   6.096  18.936  0.00  0.00    +0.000 A 
ENDBRANCH  19  20
ENDBRANCH  18  19
ENDBRANCH  15  18
ENDBRANCH  14  15
ENDBRANCH   4  14
TORSDOF 8
ENDMDL
MODEL 8
REMARK VINA RESULT:      -6.9      2.867      6.112
REMARK  Name = 
REMARK  8 active torsions:
REMARK  status: ('A' for Active; 'I' for Inactive)
REMARK    1  A    between atoms: N_3  and  C_4
REMARK    2  A    between atoms: C_4  and  C_5
REMARK    3  A    between atoms: N_10  and  C_11
REMARK    4  A    between atoms: C_11  and  C_12
REMARK    5  A    between atoms: C_12  and  O_13
REMARK    6  A    between atoms: C_12  and  C_14
REMARK    7  A    between atoms: C_14  and  O_15
REMARK    8  A    between atoms: O_15  and  C_16
REMARK                            x       y       z     vdW  Elec       q    Type
REMARK                         _______ _______ _______ _____ _____    ______ ____
ROOT
ATOM      1  O   UNL     1       5.019   6.821  15.343  0.00  0.00    +0.000 OA
ATOM      2  C   UNL     1       5.407   6.883  16.504  0.00  0.00    +0.000 C 
ATOM      3  N   UNL     1       4.610   7.178  17.556  0.00  0.00    +0.000 N 
ATOM      4  N   UNL     1       6.722   6.702  16.769  0.00  0.00    +0.000 N 
ATOM      5  H   UNL     1       4.894   6.902  18.484  0.00  0.00    +0.000 HD
ATOM      6  H   UNL     1       7.242   6.540  15.918  0.00  0.00    +0.000 HD
ENDROOT
BRANCH   3   7
ATOM      7  C   UNL     1       3.188   7.354  17.378  0.00  0.00    +0.000 C 
BRANCH   7   8
ATOM      8  C   UNL     1       2.552   7.515  18.719  0.00  0.00    +0.000 A 
ATOM      9  C   UNL     1       1.755   8.596  19.166  0.00  0.00    +0.000 A 
ATOM     10  C   UNL     1       1.400   8.271  20.450  0.00  0.00    +0.000 A 
ATOM     11  N   UNL     1       1.977   7.062  20.705  0.00  0.00    +0.000 N 
ATOM     12  N   UNL     1       2.693   6.581  19.674  0.00  0.00    +0.000 NA
ATOM     13  H   UNL     1       1.925   6.510  21.557  0.00  0.00    +0.000 HD
ENDBRANCH   7   8
ENDBRANCH   3   7
BRANCH   4  14
ATOM     14  C   UNL     1       7.415   6.793  18.050  0.00  0.00    +0.000 C 
BRANCH  14  15
ATOM     15  C   UNL     1       7.698   5.419  18.679  0.00  0.00    +0.000 C 
BRANCH  15  16
ATOM     16  O   UNL     1       7.751   5.544  20.105  0.00  0.00    +0.000 OA
ATOM     17  H   UNL     1       8.616   5.912  20.354  0.00  0.00    +0.000 HD
ENDBRANCH  15  16
BRANCH  15  18
ATOM     18  C   UNL     1       6.642   4.396  18.235  0.00  0.00    +0.000 C 
BRANCH  18  19
ATOM     19  O   UNL     1       5.697   4.148  19.279  0.00  0.00    +0.000 OA
BRANCH  19  20
ATOM     20  C   UNL     1       4.482   3.660  18.868  0.00  0.00    +0.000 A 
ATOM     21  C   UNL     1       4.009   3.663  17.549  0.00  0.00    +0.000 A 
ATOM     22  C   UNL     1       2.760   3.119  17.240  0.00  0.00    +0.000 A 
ATOM     23  C   UNL     1       1.975   2.571  18.249  0.00  0.00    +0.000 A 
ATOM     24  C   UNL     1       2.443   2.579  19.558  0.00  0.00    +0.000 A 
ATOM     25  F   UNL     1       1.684   2.052  20.529  0.00  0.00    +0.000 F 
ATOM     26  C   UNL     1       3.685   3.120  19.876  0.00  0.00    +0.000 A 
ENDBRANCH  19  20
ENDBRANCH  18  19
ENDBRANCH  15  18
ENDBRANCH  14  15
ENDBRANCH   4  14
TORSDOF 8
ENDMDL
MODEL 9
REMARK VINA RESULT:      -6.9      2.289      5.091
REMARK  Name = 
REMARK  8 active torsions:
REMARK  status: ('A' for Active; 'I' for Inactive)
REMARK    1  A    between atoms: N_3  and  C_4
REMARK    2  A    between atoms: C_4  and  C_5
REMARK    3  A    between atoms: N_10  and  C_11
REMARK    4  A    between atoms: C_11  and  C_12
REMARK    5  A    between atoms: C_12  and  O_13
REMARK    6  A    between atoms: C_12  and  C_14
REMARK    7  A    between atoms: C_14  and  O_15
REMARK    8  A    between atoms: O_15  and  C_16
REMARK                            x       y       z     vdW  Elec       q    Type
REMARK                         _______ _______ _______ _____ _____    ______ ____
ROOT
ATOM      1  O   UNL     1       2.375   3.288  16.671  0.00  0.00    +0.000 OA
ATOM      2  C   UNL     1       3.547   3.283  17.028  0.00  0.00    +0.000 C 
ATOM      3  N   UNL     1       4.029   2.531  18.043  0.00  0.00    +0.000 N 
ATOM      4  N   UNL     1       4.424   4.116  16.419  0.00  0.00    +0.000 N 
ATOM      5  H   UNL     1       5.016   2.322  18.078  0.00  0.00    +0.000 HD
ATOM      6  H   UNL     1       3.962   4.673  15.714  0.00  0.00    +0.000 HD
ENDROOT
BRANCH   3   7
ATOM      7  C   UNL     1       3.179   1.587  18.730  0.00  0.00    +0.000 C 
BRANCH   7   8
ATOM      8  C   UNL     1       2.455   2.300  19.824  0.00  0.00    +0.000 A 
ATOM      9  C   UNL     1       2.991   2.756  21.052  0.00  0.00    +0.000 A 
ATOM     10  C   UNL     1       1.941   3.354  21.701  0.00  0.00    +0.000 A 
ATOM     11  N   UNL     1       0.868   3.234  20.868  0.00  0.00    +0.000 N 
ATOM     12  N   UNL     1       1.147   2.589  19.722  0.00  0.00    +0.000 NA
ATOM     13  H   UNL     1      -0.080   3.568  21.016  0.00  0.00    +0.000 HD
ENDBRANCH   7   8
ENDBRANCH   3   7
BRANCH   4  14
ATOM     14  C   UNL     1       5.837   4.328  16.716  0.00  0.00    +0.000 C 
BRANCH  14  15
ATOM     15  C   UNL     1       6.315   5.751  16.378  0.00  0.00    +0.000 C 
BRANCH  15  16
ATOM     16  O   UNL     1       6.078   6.021  14.991  0.00  0.00    +0.000 OA
ATOM     17  H   UNL     1       5.622   5.257  14.598  0.00  0.00    +0.000 HD
ENDBRANCH  15  16
BRANCH  15  18
ATOM     18  C   UNL     1       5.625   6.781  17.285  0.00  0.00    +0.000 C 
BRANCH  18  19
ATOM     19  O   UNL     1       4.259   6.966  16.905  0.00  0.00    +0.000 OA
BRANCH  19  20
ATOM     20  C   UNL     1       3.386   7.182  17.941  0.00  0.00    +0.000 A 
ATOM     21  C   UNL     1       3.183   6.321  19.028  0.00  0.00    +0.000 A 
ATOM     22  C   UNL     1       2.280   6.654  20.040  0.00  0.00    +0.000 A 
ATOM     23  C   UNL     1       1.572   7.850  19.971  0.00  0.00    +0.000 A 
ATOM     24  C   UNL     1       1.768   8.697  18.887  0.00  0.00    +0.000 A 
ATOM     25  F   UNL     1       1.083   9.847  18.821  0.00  0.00    +0.000 F 
ATOM     26  C   UNL     1       2.664   8.373  17.872  0.00  0.00    +0.000 A 
ENDBRANCH  19  20
ENDBRANCH  18  19
ENDBRANCH  15  18
ENDBRANCH  14  15
ENDBRANCH   4  14
TORSDOF 8
ENDMDL
