MODEL 1
REMARK VINA RESULT:      -8.6      0.000      0.000
REMARK  Name = 
REMARK  5 active torsions:
REMARK  status: ('A' for Active; 'I' for Inactive)
REMARK    1  A    between atoms: C_1  and  C_2
REMARK    2  A    between atoms: C_4  and  S_5
REMARK    3  A    between atoms: S_5  and  C_8
REMARK    4  A    between atoms: N_10  and  C_11
REMARK    5  A    between atoms: N_22  and  C_23
REMARK                            x       y       z     vdW  Elec       q    Type
REMARK                         _______ _______ _______ _____ _____    ______ ____
ROOT
ATOM      1  C   UNL     1       5.101   6.914  16.060  0.00  0.00    +0.000 C 
ATOM      2  C   UNL     1       4.182   7.057  17.242  0.00  0.00    +0.000 A 
ATOM      3  C   UNL     1       3.322   8.182  17.294  0.00  0.00    +0.000 A 
ATOM      4  C   UNL     1       2.336   8.305  18.273  0.00  0.00    +0.000 A 
ATOM      5  C   UNL     1       2.138   7.301  19.209  0.00  0.00    +0.000 A 
ATOM      6  C   UNL     1       2.980   6.179  19.189  0.00  0.00    +0.000 A 
ATOM      7  C   UNL     1       2.884   4.916  19.808  0.00  0.00    +0.000 A 
ATOM      8  C   UNL     1       4.092   4.266  19.632  0.00  0.00    +0.000 A 
ATOM      9  N   UNL     1       4.701   4.886  18.561  0.00  0.00    +0.000 N 
ATOM     10  C   UNL     1       5.684   4.262  17.701  0.00  0.00    +0.000 C 
ATOM     11  C   UNL     1       4.037   6.088  18.271  0.00  0.00    +0.000 A 
ATOM     12  C   UNL     1       4.279   2.891  20.209  0.00  0.00    +0.000 C 
ATOM     13  C   UNL     1       2.873   2.186  20.224  0.00  0.00    +0.000 C 
ATOM     14  C   UNL     1       2.168   2.153  21.569  0.00  0.00    +0.000 C 
ATOM     15  C   UNL     1       1.117   3.250  21.422  0.00  0.00    +0.000 C 
ATOM     16  C   UNL     1       1.601   4.218  20.319  0.00  0.00    +0.000 C 
ATOM     17  N   UNL     1       1.842   2.973  19.494  0.00  0.00    +0.000 NA
ATOM     18  H   UNL     1       2.187   3.223  18.567  0.00  0.00    +0.000 HD
ENDROOT
BRANCH   4  19
ATOM     19  S   UNL     1       1.271   9.718  18.326  0.00  0.00    +0.000 S 
ATOM     20  O   UNL     1       2.072  10.909  18.073  0.00  0.00    +0.000 OA
ATOM     21  O   UNL     1       0.067   9.426  17.577  0.00  0.00    +0.000 OA
BRANCH  19  22
ATOM     22  C   UNL     1       0.734   9.889  19.956  0.00  0.00    +0.000 A 
ATOM     23  C   UNL     1       1.186   9.195  21.064  0.00  0.00    +0.000 A 
ATOM     24  N   UNL     1       0.502   9.662  22.153  0.00  0.00    +0.000 N 
ATOM     25  C   UNL     1       0.695   9.194  23.511  0.00  0.00    +0.000 C 
ATOM     26  C   UNL     1      -0.398  10.637  21.783  0.00  0.00    +0.000 A 
ATOM     27  C   UNL     1      -1.300  11.399  22.543  0.00  0.00    +0.000 A 
ATOM     28  C   UNL     1      -2.107  12.325  21.877  0.00  0.00    +0.000 A 
ATOM     29  C   UNL     1      -2.021  12.488  20.499  0.00  0.00    +0.000 A 
ATOM     30  C   UNL     1      -1.116  11.730  19.748  0.00  0.00    +0.000 A 
ATOM     31  C   UNL     1      -0.283  10.792  20.390  0.00  0.00    +0.000 A 
ENDBRANCH  19  22
ENDBRANCH   4  19
TORSDOF 2
ENDMDL
MODEL 2
REMARK VINA RESULT:      -8.4      2.096      2.952
REMARK  Name = 
REMARK  5 active torsions:
REMARK  status: ('A' for Active; 'I' for Inactive)
REMARK    1  A    between atoms: C_1  and  C_2
REMARK    2  A    between atoms: C_4  and  S_5
REMARK    3  A    between atoms: S_5  and  C_8
REMARK    4  A    between atoms: N_10  and  C_11
REMARK    5  A    between atoms: N_22  and  C_23
REMARK                            x       y       z     vdW  Elec       q    Type
REMARK                         _______ _______ _______ _____ _____    ______ ____
ROOT
ATOM      1  C   UNL     1       3.157   9.066  17.275  0.00  0.00    +0.000 C 
ATOM      2  C   UNL     1       2.714   8.259  18.465  0.00  0.00    +0.000 A 
ATOM      3  C   UNL     1       1.910   8.891  19.446  0.00  0.00    +0.000 A 
ATOM      4  C   UNL     1       1.333   8.173  20.492  0.00  0.00    +0.000 A 
ATOM      5  C   UNL     1       1.496   6.798  20.583  0.00  0.00    +0.000 A 
ATOM      6  C   UNL     1       2.294   6.146  19.633  0.00  0.00    +0.000 A 
ATOM      7  C   UNL     1       2.444   4.784  19.301  0.00  0.00    +0.000 A 
ATOM      8  C   UNL     1       3.522   4.674  18.441  0.00  0.00    +0.000 A 
ATOM      9  N   UNL     1       3.702   5.930  17.900  0.00  0.00    +0.000 N 
ATOM     10  C   UNL     1       4.327   6.190  16.621  0.00  0.00    +0.000 C 
ATOM     11  C   UNL     1       2.959   6.869  18.631  0.00  0.00    +0.000 A 
ATOM     12  C   UNL     1       3.924   3.318  17.934  0.00  0.00    +0.000 C 
ATOM     13  C   UNL     1       2.626   2.431  17.866  0.00  0.00    +0.000 C 
ATOM     14  C   UNL     1       2.444   1.442  19.005  0.00  0.00    +0.000 C 
ATOM     15  C   UNL     1       1.391   2.126  19.874  0.00  0.00    +0.000 C 
ATOM     16  C   UNL     1       1.437   3.639  19.565  0.00  0.00    +0.000 C 
ATOM     17  N   UNL     1       1.391   3.224  18.110  0.00  0.00    +0.000 NA
ATOM     18  H   UNL     1       1.381   4.047  17.506  0.00  0.00    +0.000 HD
ENDROOT
BRANCH   4  19
ATOM     19  S   UNL     1       0.333   8.977  21.712  0.00  0.00    +0.000 S 
ATOM     20  O   UNL     1      -0.891   8.207  21.887  0.00  0.00    +0.000 OA
ATOM     21  O   UNL     1       1.172   9.354  22.830  0.00  0.00    +0.000 OA
BRANCH  19  22
ATOM     22  C   UNL     1      -0.185  10.477  21.036  0.00  0.00    +0.000 A 
ATOM     23  C   UNL     1      -0.033  11.739  21.583  0.00  0.00    +0.000 A 
ATOM     24  N   UNL     1      -0.570  12.638  20.703  0.00  0.00    +0.000 N 
ATOM     25  C   UNL     1      -0.598  14.073  20.905  0.00  0.00    +0.000 C 
ATOM     26  C   UNL     1      -1.082  11.995  19.598  0.00  0.00    +0.000 A 
ATOM     27  C   UNL     1      -1.712  12.494  18.447  0.00  0.00    +0.000 A 
ATOM     28  C   UNL     1      -2.141  11.581  17.479  0.00  0.00    +0.000 A 
ATOM     29  C   UNL     1      -1.948  10.214  17.651  0.00  0.00    +0.000 A 
ATOM     30  C   UNL     1      -1.314   9.724  18.797  0.00  0.00    +0.000 A 
ATOM     31  C   UNL     1      -0.864  10.619  19.789  0.00  0.00    +0.000 A 
ENDBRANCH  19  22
ENDBRANCH   4  19
TORSDOF 2
ENDMDL
MODEL 3
REMARK VINA RESULT:      -8.4      2.085      3.023
REMARK  Name = 
REMARK  5 active torsions:
REMARK  status: ('A' for Active; 'I' for Inactive)
REMARK    1  A    between atoms: C_1  and  C_2
REMARK    2  A    between atoms: C_4  and  S_5
REMARK    3  A    between atoms: S_5  and  C_8
REMARK    4  A    between atoms: N_10  and  C_11
REMARK    5  A    between atoms: N_22  and  C_23
REMARK                            x       y       z     vdW  Elec       q    Type
REMARK                         _______ _______ _______ _____ _____    ______ ____
ROOT
ATOM      1  C   UNL     1       2.928   8.401  17.069  0.00  0.00    +0.000 C 
ATOM      2  C   UNL     1       2.549   7.983  18.464  0.00  0.00    +0.000 A 
ATOM      3  C   UNL     1       1.770   8.872  19.245  0.00  0.00    +0.000 A 
ATOM      4  C   UNL     1       1.250   8.495  20.483  0.00  0.00    +0.000 A 
ATOM      5  C   UNL     1       1.447   7.213  20.973  0.00  0.00    +0.000 A 
ATOM      6  C   UNL     1       2.222   6.313  20.227  0.00  0.00    +0.000 A 
ATOM      7  C   UNL     1       2.388   4.915  20.311  0.00  0.00    +0.000 A 
ATOM      8  C   UNL     1       3.434   4.563  19.478  0.00  0.00    +0.000 A 
ATOM      9  N   UNL     1       3.565   5.601  18.579  0.00  0.00    +0.000 N 
ATOM     10  C   UNL     1       4.134   5.472  17.254  0.00  0.00    +0.000 C 
ATOM     11  C   UNL     1       2.831   6.709  19.027  0.00  0.00    +0.000 A 
ATOM     12  C   UNL     1       3.845   3.121  19.383  0.00  0.00    +0.000 C 
ATOM     13  C   UNL     1       2.566   2.243  19.639  0.00  0.00    +0.000 C 
ATOM     14  C   UNL     1       2.450   1.639  21.029  0.00  0.00    +0.000 C 
ATOM     15  C   UNL     1       1.417   2.542  21.699  0.00  0.00    +0.000 C 
ATOM     16  C   UNL     1       1.418   3.893  20.949  0.00  0.00    +0.000 C 
ATOM     17  N   UNL     1       1.324   3.061  19.689  0.00  0.00    +0.000 NA
ATOM     18  H   UNL     1       1.273   3.665  18.868  0.00  0.00    +0.000 HD
ENDROOT
BRANCH   4  19
ATOM     19  S   UNL     1       0.281   9.619  21.449  0.00  0.00    +0.000 S 
ATOM     20  O   UNL     1      -0.959   8.953  21.826  0.00  0.00    +0.000 OA
ATOM     21  O   UNL     1       1.140  10.258  22.423  0.00  0.00    +0.000 OA
BRANCH  19  22
ATOM     22  C   UNL     1      -0.209  10.899  20.401  0.00  0.00    +0.000 A 
ATOM     23  C   UNL     1       0.098  12.242  20.520  0.00  0.00    +0.000 A 
ATOM     24  N   UNL     1      -0.478  12.893  19.463  0.00  0.00    +0.000 N 
ATOM     25  C   UNL     1      -0.380  14.319  19.220  0.00  0.00    +0.000 C 
ATOM     26  C   UNL     1      -1.165  12.010  18.660  0.00  0.00    +0.000 A 
ATOM     27  C   UNL     1      -1.895  12.210  17.478  0.00  0.00    +0.000 A 
ATOM     28  C   UNL     1      -2.502  11.102  16.880  0.00  0.00    +0.000 A 
ATOM     29  C   UNL     1      -2.386   9.834  17.440  0.00  0.00    +0.000 A 
ATOM     30  C   UNL     1      -1.653   9.640  18.615  0.00  0.00    +0.000 A 
ATOM     31  C   UNL     1      -1.023  10.736  19.240  0.00  0.00    +0.000 A 
ENDBRANCH  19  22
ENDBRANCH   4  19
TORSDOF 2
ENDMDL
MODEL 4
REMARK VINA RESULT:      -8.3      1.064      1.082
REMARK  Name = 
REMARK  5 active torsions:
REMARK  status: ('A' for Active; 'I' for Inactive)
REMARK    1  A    between atoms: C_1  and  C_2
REMARK    2  A    between atoms: C_4  and  S_5
REMARK    3  A    between atoms: S_5  and  C_8
REMARK    4  A    between atoms: N_10  and  C_11
REMARK    5  A    between atoms: N_22  and  C_23
REMARK                            x       y       z     vdW  Elec       q    Type
REMARK                         _______ _______ _______ _____ _____    ______ ____
ROOT
ATOM      1  C   UNL     1       6.065   7.332  16.923  0.00  0.00    +0.000 C 
ATOM      2  C   UNL     1       4.727   7.177  17.593  0.00  0.00    +0.000 A 
ATOM      3  C   UNL     1       3.820   8.265  17.545  0.00  0.00    +0.000 A 
ATOM      4  C   UNL     1       2.509   8.145  18.005  0.00  0.00    +0.000 A 
ATOM      5  C   UNL     1       2.036   6.934  18.489  0.00  0.00    +0.000 A 
ATOM      6  C   UNL     1       2.913   5.842  18.557  0.00  0.00    +0.000 A 
ATOM      7  C   UNL     1       2.689   4.462  18.745  0.00  0.00    +0.000 A 
ATOM      8  C   UNL     1       3.916   3.859  18.950  0.00  0.00    +0.000 A 
ATOM      9  N   UNL     1       4.854   4.727  18.431  0.00  0.00    +0.000 N 
ATOM     10  C   UNL     1       6.161   4.331  17.950  0.00  0.00    +0.000 C 
ATOM     11  C   UNL     1       4.260   5.974  18.188  0.00  0.00    +0.000 A 
ATOM     12  C   UNL     1       3.976   2.378  19.195  0.00  0.00    +0.000 C 
ATOM     13  C   UNL     1       2.767   1.719  18.433  0.00  0.00    +0.000 C 
ATOM     14  C   UNL     1       1.571   1.348  19.295  0.00  0.00    +0.000 C 
ATOM     15  C   UNL     1       0.578   2.465  18.985  0.00  0.00    +0.000 C 
ATOM     16  C   UNL     1       1.383   3.679  18.470  0.00  0.00    +0.000 C 
ATOM     17  N   UNL     1       2.065   2.689  17.551  0.00  0.00    +0.000 NA
ATOM     18  H   UNL     1       2.740   3.167  16.953  0.00  0.00    +0.000 HD
ENDROOT
BRANCH   4  19
ATOM     19  S   UNL     1       1.389   9.515  17.942  0.00  0.00    +0.000 S 
ATOM     20  O   UNL     1       2.144  10.713  17.597  0.00  0.00    +0.000 OA
ATOM     21  O   UNL     1       0.203   9.116  17.214  0.00  0.00    +0.000 OA
BRANCH  19  22
ATOM     22  C   UNL     1       0.835   9.793  19.551  0.00  0.00    +0.000 A 
ATOM     23  C   UNL     1       1.237   9.137  20.700  0.00  0.00    +0.000 A 
ATOM     24  N   UNL     1       0.558   9.689  21.752  0.00  0.00    +0.000 N 
ATOM     25  C   UNL     1       0.708   9.283  23.135  0.00  0.00    +0.000 C 
ATOM     26  C   UNL     1      -0.289  10.684  21.318  0.00  0.00    +0.000 A 
ATOM     27  C   UNL     1      -1.166  11.525  22.021  0.00  0.00    +0.000 A 
ATOM     28  C   UNL     1      -1.919  12.452  21.295  0.00  0.00    +0.000 A 
ATOM     29  C   UNL     1      -1.803  12.540  19.912  0.00  0.00    +0.000 A 
ATOM     30  C   UNL     1      -0.924  11.704  19.217  0.00  0.00    +0.000 A 
ATOM     31  C   UNL     1      -0.146  10.763  19.921  0.00  0.00    +0.000 A 
ENDBRANCH  19  22
ENDBRANCH   4  19
TORSDOF 2
ENDMDL
MODEL 5
REMARK VINA RESULT:      -8.2      3.799      9.441
REMARK  Name = 
REMARK  5 active torsions:
REMARK  status: ('A' for Active; 'I' for Inactive)
REMARK    1  A    between atoms: C_1  and  C_2
REMARK    2  A    between atoms: C_4  and  S_5
REMARK    3  A    between atoms: S_5  and  C_8
REMARK    4  A    between atoms: N_10  and  C_11
REMARK    5  A    between atoms: N_22  and  C_23
REMARK                            x       y       z     vdW  Elec       q    Type
REMARK                         _______ _______ _______ _____ _____    ______ ____
ROOT
ATOM      1  C   UNL     1      -4.457  11.221  16.592  0.00  0.00    +0.000 C 
ATOM      2  C   UNL     1      -3.875  11.619  17.921  0.00  0.00    +0.000 A 
ATOM      3  C   UNL     1      -2.479  11.847  18.004  0.00  0.00    +0.000 A 
ATOM      4  C   UNL     1      -1.890  12.368  19.156  0.00  0.00    +0.000 A 
ATOM      5  C   UNL     1      -2.665  12.719  20.252  0.00  0.00    +0.000 A 
ATOM      6  C   UNL     1      -4.049  12.497  20.203  0.00  0.00    +0.000 A 
ATOM      7  C   UNL     1      -5.109  12.963  21.007  0.00  0.00    +0.000 A 
ATOM      8  C   UNL     1      -6.248  12.263  20.653  0.00  0.00    +0.000 A 
ATOM      9  N   UNL     1      -6.007  11.765  19.390  0.00  0.00    +0.000 N 
ATOM     10  C   UNL     1      -7.036  11.435  18.427  0.00  0.00    +0.000 C 
ATOM     11  C   UNL     1      -4.642  11.885  19.088  0.00  0.00    +0.000 A 
ATOM     12  C   UNL     1      -7.539  12.547  21.368  0.00  0.00    +0.000 C 
ATOM     13  C   UNL     1      -7.514  14.055  21.815  0.00  0.00    +0.000 C 
ATOM     14  C   UNL     1      -7.183  14.302  23.278  0.00  0.00    +0.000 C 
ATOM     15  C   UNL     1      -5.728  14.760  23.218  0.00  0.00    +0.000 C 
ATOM     16  C   UNL     1      -5.121  14.225  21.901  0.00  0.00    +0.000 C 
ATOM     17  N   UNL     1      -6.358  14.792  21.238  0.00  0.00    +0.000 NA
ATOM     18  H   UNL     1      -6.319  14.643  20.228  0.00  0.00    +0.000 HD
ENDROOT
BRANCH   4  19
ATOM     19  S   UNL     1      -0.143  12.644  19.246  0.00  0.00    +0.000 S 
ATOM     20  O   UNL     1       0.280  13.320  18.027  0.00  0.00    +0.000 OA
ATOM     21  O   UNL     1       0.182  13.152  20.562  0.00  0.00    +0.000 OA
BRANCH  19  22
ATOM     22  C   UNL     1       0.620  11.099  19.179  0.00  0.00    +0.000 A 
ATOM     23  C   UNL     1       1.437  10.611  18.176  0.00  0.00    +0.000 A 
ATOM     24  N   UNL     1       1.838   9.355  18.542  0.00  0.00    +0.000 N 
ATOM     25  C   UNL     1       2.716   8.509  17.758  0.00  0.00    +0.000 C 
ATOM     26  C   UNL     1       1.292   9.003  19.756  0.00  0.00    +0.000 A 
ATOM     27  C   UNL     1       1.422   7.835  20.524  0.00  0.00    +0.000 A 
ATOM     28  C   UNL     1       0.728   7.759  21.735  0.00  0.00    +0.000 A 
ATOM     29  C   UNL     1      -0.070   8.812  22.168  0.00  0.00    +0.000 A 
ATOM     30  C   UNL     1      -0.191   9.975  21.402  0.00  0.00    +0.000 A 
ATOM     31  C   UNL     1       0.501  10.086  20.179  0.00  0.00    +0.000 A 
ENDBRANCH  19  22
ENDBRANCH   4  19
TORSDOF 2
ENDMDL
MODEL 6
REMARK VINA RESULT:      -8.2      2.040      4.286
REMARK  Name = 
REMARK  5 active torsions:
REMARK  status: ('A' for Active; 'I' for Inactive)
REMARK    1  A    between atoms: C_1  and  C_2
REMARK    2  A    between atoms: C_4  and  S_5
REMARK    3  A    between atoms: S_5  and  C_8
REMARK    4  A    between atoms: N_10  and  C_11
REMARK    5  A    between atoms: N_22  and  C_23
REMARK                            x       y       z     vdW  Elec       q    Type
REMARK                         _______ _______ _______ _____ _____    ______ ____
ROOT
ATOM      1  C   UNL     1       0.948   7.434  21.923  0.00  0.00    +0.000 C 
ATOM      2  C   UNL     1       1.295   7.972  20.562  0.00  0.00    +0.000 A 
ATOM      3  C   UNL     1       1.130   9.360  20.324  0.00  0.00    +0.000 A 
ATOM      4  C   UNL     1       1.575   9.958  19.146  0.00  0.00    +0.000 A 
ATOM      5  C   UNL     1       2.235   9.214  18.179  0.00  0.00    +0.000 A 
ATOM      6  C   UNL     1       2.405   7.837  18.382  0.00  0.00    +0.000 A 
ATOM      7  C   UNL     1       3.226   6.883  17.745  0.00  0.00    +0.000 A 
ATOM      8  C   UNL     1       2.842   5.631  18.189  0.00  0.00    +0.000 A 
ATOM      9  N   UNL     1       2.175   5.841  19.378  0.00  0.00    +0.000 N 
ATOM     10  C   UNL     1       2.053   4.860  20.435  0.00  0.00    +0.000 C 
ATOM     11  C   UNL     1       1.878   7.205  19.518  0.00  0.00    +0.000 A 
ATOM     12  C   UNL     1       3.545   4.414  17.657  0.00  0.00    +0.000 C 
ATOM     13  C   UNL     1       5.022   4.831  17.310  0.00  0.00    +0.000 C 
ATOM     14  C   UNL     1       5.308   5.073  15.838  0.00  0.00    +0.000 C 
ATOM     15  C   UNL     1       5.333   6.597  15.750  0.00  0.00    +0.000 C 
ATOM     16  C   UNL     1       4.523   7.149  16.944  0.00  0.00    +0.000 C 
ATOM     17  N   UNL     1       5.345   6.201  17.790  0.00  0.00    +0.000 NA
ATOM     18  H   UNL     1       5.093   6.294  18.775  0.00  0.00    +0.000 HD
ENDROOT
BRANCH   4  19
ATOM     19  S   UNL     1       1.358  11.692  18.862  0.00  0.00    +0.000 S 
ATOM     20  O   UNL     1       2.067  12.423  19.905  0.00  0.00    +0.000 OA
ATOM     21  O   UNL     1       1.564  11.965  17.455  0.00  0.00    +0.000 OA
BRANCH  19  22
ATOM     22  C   UNL     1      -0.308  12.047  19.131  0.00  0.00    +0.000 A 
ATOM     23  C   UNL     1      -0.833  13.007  19.978  0.00  0.00    +0.000 A 
ATOM     24  N   UNL     1      -2.196  12.957  19.865  0.00  0.00    +0.000 N 
ATOM     25  C   UNL     1      -3.115  13.816  20.585  0.00  0.00    +0.000 C 
ATOM     26  C   UNL     1      -2.577  11.980  18.973  0.00  0.00    +0.000 A 
ATOM     27  C   UNL     1      -3.846  11.573  18.533  0.00  0.00    +0.000 A 
ATOM     28  C   UNL     1      -3.923  10.527  17.610  0.00  0.00    +0.000 A 
ATOM     29  C   UNL     1      -2.772   9.904  17.138  0.00  0.00    +0.000 A 
ATOM     30  C   UNL     1      -1.510  10.318  17.575  0.00  0.00    +0.000 A 
ATOM     31  C   UNL     1      -1.398  11.375  18.501  0.00  0.00    +0.000 A 
ENDBRANCH  19  22
ENDBRANCH   4  19
TORSDOF 2
ENDMDL
MODEL 7
REMARK VINA RESULT:      -8.2      2.047      4.209
REMARK  Name = 
REMARK  5 active torsions:
REMARK  status: ('A' for Active; 'I' for Inactive)
REMARK    1  A    between atoms: C_1  and  C_2
REMARK    2  A    between atoms: C_4  and  S_5
REMARK    3  A    between atoms: S_5  and  C_8
REMARK    4  A    between atoms: N_10  and  C_11
REMARK    5  A    between atoms: N_22  and  C_23
REMARK                            x       y       z     vdW  Elec       q    Type
REMARK                         _______ _______ _______ _____ _____    ______ ____
ROOT
ATOM      1  C   UNL     1       1.639   5.571  21.475  0.00  0.00    +0.000 C 
ATOM      2  C   UNL     1       1.849   6.367  20.216  0.00  0.00    +0.000 A 
ATOM      3  C   UNL     1       1.483   7.737  20.216  0.00  0.00    +0.000 A 
ATOM      4  C   UNL     1       1.789   8.576  19.145  0.00  0.00    +0.000 A 
ATOM      5  C   UNL     1       2.502   8.101  18.054  0.00  0.00    +0.000 A 
ATOM      6  C   UNL     1       2.870   6.748  18.021  0.00  0.00    +0.000 A 
ATOM      7  C   UNL     1       3.786   6.038  17.218  0.00  0.00    +0.000 A 
ATOM      8  C   UNL     1       3.598   4.689  17.454  0.00  0.00    +0.000 A 
ATOM      9  N   UNL     1       2.961   4.605  18.674  0.00  0.00    +0.000 N 
ATOM     10  C   UNL     1       3.023   3.458  19.555  0.00  0.00    +0.000 C 
ATOM     11  C   UNL     1       2.486   5.871  19.047  0.00  0.00    +0.000 A 
ATOM     12  C   UNL     1       4.438   3.688  16.712  0.00  0.00    +0.000 C 
ATOM     13  C   UNL     1       5.827   4.363  16.410  0.00  0.00    +0.000 C 
ATOM     14  C   UNL     1       6.012   4.880  14.993  0.00  0.00    +0.000 C 
ATOM     15  C   UNL     1       5.822   6.385  15.160  0.00  0.00    +0.000 C 
ATOM     16  C   UNL     1       4.997   6.614  16.446  0.00  0.00    +0.000 C 
ATOM     17  N   UNL     1       5.979   5.669  17.104  0.00  0.00    +0.000 NA
ATOM     18  H   UNL     1       5.759   5.564  18.096  0.00  0.00    +0.000 HD
ENDROOT
BRANCH   4  19
ATOM     19  S   UNL     1       1.322  10.284  19.159  0.00  0.00    +0.000 S 
ATOM     20  O   UNL     1       1.178  10.711  20.545  0.00  0.00    +0.000 OA
ATOM     21  O   UNL     1       2.150  11.002  18.214  0.00  0.00    +0.000 OA
BRANCH  19  22
ATOM     22  C   UNL     1      -0.269  10.382  18.502  0.00  0.00    +0.000 A 
ATOM     23  C   UNL     1      -0.750   9.739  17.375  0.00  0.00    +0.000 A 
ATOM     24  N   UNL     1      -2.067  10.085  17.233  0.00  0.00    +0.000 N 
ATOM     25  C   UNL     1      -2.934   9.608  16.174  0.00  0.00    +0.000 C 
ATOM     26  C   UNL     1      -2.456  10.947  18.233  0.00  0.00    +0.000 A 
ATOM     27  C   UNL     1      -3.694  11.554  18.500  0.00  0.00    +0.000 A 
ATOM     28  C   UNL     1      -3.788  12.407  19.604  0.00  0.00    +0.000 A 
ATOM     29  C   UNL     1      -2.685  12.648  20.416  0.00  0.00    +0.000 A 
ATOM     30  C   UNL     1      -1.456  12.036  20.148  0.00  0.00    +0.000 A 
ATOM     31  C   UNL     1      -1.330  11.166  19.046  0.00  0.00    +0.000 A 
ENDBRANCH  19  22
ENDBRANCH   4  19
TORSDOF 2
ENDMDL
MODEL 8
REMARK VINA RESULT:      -8.2      2.276      4.302
REMARK  Name = 
REMARK  5 active torsions:
REMARK  status: ('A' for Active; 'I' for Inactive)
REMARK    1  A    between atoms: C_1  and  C_2
REMARK    2  A    between atoms: C_4  and  S_5
REMARK    3  A    between atoms: S_5  and  C_8
REMARK    4  A    between atoms: N_10  and  C_11
REMARK    5  A    between atoms: N_22  and  C_23
REMARK                            x       y       z     vdW  Elec       q    Type
REMARK                         _______ _______ _______ _____ _____    ______ ____
ROOT
ATOM      1  C   UNL     1       0.980   3.408  20.762  0.00  0.00    +0.000 C 
ATOM      2  C   UNL     1       1.447   4.724  20.202  0.00  0.00    +0.000 A 
ATOM      3  C   UNL     1       1.012   5.917  20.832  0.00  0.00    +0.000 A 
ATOM      4  C   UNL     1       1.523   7.163  20.471  0.00  0.00    +0.000 A 
ATOM      5  C   UNL     1       2.511   7.271  19.504  0.00  0.00    +0.000 A 
ATOM      6  C   UNL     1       2.956   6.109  18.857  0.00  0.00    +0.000 A 
ATOM      7  C   UNL     1       4.083   5.850  18.050  0.00  0.00    +0.000 A 
ATOM      8  C   UNL     1       3.924   4.596  17.490  0.00  0.00    +0.000 A 
ATOM      9  N   UNL     1       3.010   3.940  18.289  0.00  0.00    +0.000 N 
ATOM     10  C   UNL     1       2.920   2.502  18.422  0.00  0.00    +0.000 C 
ATOM     11  C   UNL     1       2.383   4.860  19.141  0.00  0.00    +0.000 A 
ATOM     12  C   UNL     1       4.980   4.064  16.562  0.00  0.00    +0.000 C 
ATOM     13  C   UNL     1       6.357   4.682  17.005  0.00  0.00    +0.000 C 
ATOM     14  C   UNL     1       6.857   5.845  16.164  0.00  0.00    +0.000 C 
ATOM     15  C   UNL     1       6.541   7.052  17.043  0.00  0.00    +0.000 C 
ATOM     16  C   UNL     1       5.411   6.643  18.014  0.00  0.00    +0.000 C 
ATOM     17  N   UNL     1       6.254   5.418  18.294  0.00  0.00    +0.000 NA
ATOM     18  H   UNL     1       5.802   4.829  18.995  0.00  0.00    +0.000 HD
ENDROOT
BRANCH   4  19
ATOM     19  S   UNL     1       0.967   8.645  21.265  0.00  0.00    +0.000 S 
ATOM     20  O   UNL     1      -0.157   8.310  22.131  0.00  0.00    +0.000 OA
ATOM     21  O   UNL     1       2.118   9.378  21.746  0.00  0.00    +0.000 OA
BRANCH  19  22
ATOM     22  C   UNL     1       0.292   9.655  20.041  0.00  0.00    +0.000 A 
ATOM     23  C   UNL     1      -0.542   9.274  19.005  0.00  0.00    +0.000 A 
ATOM     24  N   UNL     1      -0.850  10.397  18.287  0.00  0.00    +0.000 N 
ATOM     25  C   UNL     1      -1.714  10.419  17.123  0.00  0.00    +0.000 C 
ATOM     26  C   UNL     1      -0.229  11.504  18.820  0.00  0.00    +0.000 A 
ATOM     27  C   UNL     1      -0.253  12.853  18.435  0.00  0.00    +0.000 A 
ATOM     28  C   UNL     1       0.500  13.767  19.177  0.00  0.00    +0.000 A 
ATOM     29  C   UNL     1       1.255  13.351  20.269  0.00  0.00    +0.000 A 
ATOM     30  C   UNL     1       1.271  12.006  20.652  0.00  0.00    +0.000 A 
ATOM     31  C   UNL     1       0.517  11.061  19.927  0.00  0.00    +0.000 A 
ENDBRANCH  19  22
ENDBRANCH   4  19
TORSDOF 2
ENDMDL
MODEL 9
REMARK VINA RESULT:      -8.2      2.040      3.050
REMARK  Name = 
REMARK  5 active torsions:
REMARK  status: ('A' for Active; 'I' for Inactive)
REMARK    1  A    between atoms: C_1  and  C_2
REMARK    2  A    between atoms: C_4  and  S_5
REMARK    3  A    between atoms: S_5  and  C_8
REMARK    4  A    between atoms: N_10  and  C_11
REMARK    5  A    between atoms: N_22  and  C_23
REMARK                            x       y       z     vdW  Elec       q    Type
REMARK                         _______ _______ _______ _____ _____    ______ ____
ROOT
ATOM      1  C   UNL     1       2.424   9.114  17.574  0.00  0.00    +0.000 C 
ATOM      2  C   UNL     1       2.158   8.439  18.892  0.00  0.00    +0.000 A 
ATOM      3  C   UNL     1       1.398   9.136  19.864  0.00  0.00    +0.000 A 
ATOM      4  C   UNL     1       0.979   8.522  21.043  0.00  0.00    +0.000 A 
ATOM      5  C   UNL     1       1.260   7.185  21.285  0.00  0.00    +0.000 A 
ATOM      6  C   UNL     1       2.018   6.471  20.346  0.00  0.00    +0.000 A 
ATOM      7  C   UNL     1       2.247   5.091  20.170  0.00  0.00    +0.000 A 
ATOM      8  C   UNL     1       3.247   4.945  19.227  0.00  0.00    +0.000 A 
ATOM      9  N   UNL     1       3.275   6.129  18.520  0.00  0.00    +0.000 N 
ATOM     10  C   UNL     1       3.757   6.264  17.163  0.00  0.00    +0.000 C 
ATOM     11  C   UNL     1       2.528   7.102  19.201  0.00  0.00    +0.000 A 
ATOM     12  C   UNL     1       3.709   3.565  18.852  0.00  0.00    +0.000 C 
ATOM     13  C   UNL     1       2.487   2.590  19.023  0.00  0.00    +0.000 C 
ATOM     14  C   UNL     1       2.490   1.748  20.288  0.00  0.00    +0.000 C 
ATOM     15  C   UNL     1       1.469   2.464  21.168  0.00  0.00    +0.000 C 
ATOM     16  C   UNL     1       1.364   3.924  20.672  0.00  0.00    +0.000 C 
ATOM     17  N   UNL     1       1.219   3.322  19.292  0.00  0.00    +0.000 NA
ATOM     18  H   UNL     1       1.088   4.057  18.596  0.00  0.00    +0.000 HD
ENDROOT
BRANCH   4  19
ATOM     19  S   UNL     1       0.032   9.407  22.250  0.00  0.00    +0.000 S 
ATOM     20  O   UNL     1      -1.169   8.639  22.549  0.00  0.00    +0.000 OA
ATOM     21  O   UNL     1       0.923   9.879  23.289  0.00  0.00    +0.000 OA
BRANCH  19  22
ATOM     22  C   UNL     1      -0.543  10.845  21.490  0.00  0.00    +0.000 A 
ATOM     23  C   UNL     1      -0.159  11.354  20.262  0.00  0.00    +0.000 A 
ATOM     24  N   UNL     1      -0.881  12.495  20.044  0.00  0.00    +0.000 N 
ATOM     25  C   UNL     1      -0.778  13.322  18.858  0.00  0.00    +0.000 C 
ATOM     26  C   UNL     1      -1.721  12.753  21.105  0.00  0.00    +0.000 A 
ATOM     27  C   UNL     1      -2.642  13.789  21.324  0.00  0.00    +0.000 A 
ATOM     28  C   UNL     1      -3.360  13.793  22.523  0.00  0.00    +0.000 A 
ATOM     29  C   UNL     1      -3.167  12.797  23.475  0.00  0.00    +0.000 A 
ATOM     30  C   UNL     1      -2.252  11.764  23.248  0.00  0.00    +0.000 A 
ATOM     31  C   UNL     1      -1.517  11.729  22.046  0.00  0.00    +0.000 A 
ENDBRANCH  19  22
ENDBRANCH   4  19
TORSDOF 2
ENDMDL
