MODEL 1
REMARK VINA RESULT:      -7.9      0.000      0.000
REMARK  Name = 
REMARK  12 active torsions:
REMARK  status: ('A' for Active; 'I' for Inactive)
REMARK    1  A    between atoms: C_1  and  O_2
REMARK    2  A    between atoms: O_2  and  C_3
REMARK    3  A    between atoms: C_6  and  C_7
REMARK    4  A    between atoms: C_10  and  C_11
REMARK    5  A    between atoms: C_11  and  O_12
REMARK    6  A    between atoms: C_11  and  C_13
REMARK    7  A    between atoms: C_13  and  C_14
REMARK    8  A    between atoms: C_16  and  O_17
REMARK    9  A    between atoms: O_17  and  C_18
REMARK   10  A    between atoms: C_19  and  O_20
REMARK   11  A    between atoms: O_20  and  C_21
REMARK   12  A    between atoms: C_23  and  N_24
REMARK                            x       y       z     vdW  Elec       q    Type
REMARK                         _______ _______ _______ _____ _____    ______ ____
ROOT
ATOM      1  C   UNL     1       0.082  10.740  20.375  0.00  0.00    +0.000 C 
ENDROOT
BRANCH   1   5
ATOM      2  C   UNL     1       2.436   7.579  18.513  0.00  0.00    +0.000 A 
ATOM      3  C   UNL     1       1.995   8.702  17.798  0.00  0.00    +0.000 A 
ATOM      4  C   UNL     1       1.245   9.707  18.412  0.00  0.00    +0.000 A 
ATOM      5  C   UNL     1       0.899   9.623  19.767  0.00  0.00    +0.000 A 
ATOM      6  C   UNL     1       1.301   8.491  20.482  0.00  0.00    +0.000 A 
ATOM      7  C   UNL     1       2.070   7.496  19.868  0.00  0.00    +0.000 A 
BRANCH   2  11
ATOM      8  C   UNL     1       4.812   4.500  16.637  0.00  0.00    +0.000 A 
ATOM      9  C   UNL     1       5.197   5.835  16.555  0.00  0.00    +0.000 A 
ATOM     10  C   UNL     1       4.437   6.831  17.176  0.00  0.00    +0.000 A 
ATOM     11  C   UNL     1       3.250   6.525  17.864  0.00  0.00    +0.000 A 
ATOM     12  C   UNL     1       2.862   5.174  17.903  0.00  0.00    +0.000 A 
ATOM     13  C   UNL     1       3.634   4.172  17.303  0.00  0.00    +0.000 A 
BRANCH   8  15
ATOM     14  C   UNL     1       6.362   4.139  14.906  0.00  0.00    +0.000 C 
ATOM     15  O   UNL     1       5.630   3.607  16.004  0.00  0.00    +0.000 OA
ENDBRANCH   8  15
ENDBRANCH   2  11
ENDBRANCH   1   5
BRANCH   1  16
ATOM     16  O   UNL     1       0.802  11.258  21.490  0.00  0.00    +0.000 OA
ATOM     17  H   UNL     1       1.295  10.515  21.883  0.00  0.00    +0.000 HD
ENDBRANCH   1  16
BRANCH   1  18
ATOM     18  C   UNL     1      -0.314  11.859  19.392  0.00  0.00    +0.000 C 
BRANCH  18  19
ATOM     19  C   UNL     1      -1.786  11.801  19.035  0.00  0.00    +0.000 A 
ATOM     20  C   UNL     1      -2.099  11.101  17.850  0.00  0.00    +0.000 A 
ATOM     21  C   UNL     1      -3.414  10.948  17.403  0.00  0.00    +0.000 A 
ATOM     22  C   UNL     1      -4.461  11.537  18.127  0.00  0.00    +0.000 A 
ATOM     23  C   UNL     1      -4.172  12.217  19.315  0.00  0.00    +0.000 A 
ATOM     24  C   UNL     1      -2.847  12.340  19.786  0.00  0.00    +0.000 A 
BRANCH  24  25
ATOM     25  N   UNL     1      -2.663  13.050  21.074  0.00  0.00    +0.000 N 
ATOM     26  O   UNL     1      -2.419  14.264  21.065  0.00  0.00    +0.000 OA
ATOM     27  O   UNL     1      -2.758  12.379  22.112  0.00  0.00    +0.000 OA
ENDBRANCH  24  25
BRANCH  21  28
ATOM     28  O   UNL     1      -3.738  10.266  16.255  0.00  0.00    +0.000 OA
ATOM     29  C   UNL     1      -2.972  10.583  15.097  0.00  0.00    +0.000 C 
ENDBRANCH  21  28
BRANCH  22  30
ATOM     30  O   UNL     1      -5.726  11.388  17.613  0.00  0.00    +0.000 OA
ATOM     31  C   UNL     1      -6.445  12.574  17.292  0.00  0.00    +0.000 C 
ENDBRANCH  22  30
ENDBRANCH  18  19
ENDBRANCH   1  18
TORSDOF 9
ENDMDL
MODEL 2
REMARK VINA RESULT:      -7.9      3.674     10.263
REMARK  Name = 
REMARK  12 active torsions:
REMARK  status: ('A' for Active; 'I' for Inactive)
REMARK    1  A    between atoms: C_1  and  O_2
REMARK    2  A    between atoms: O_2  and  C_3
REMARK    3  A    between atoms: C_6  and  C_7
REMARK    4  A    between atoms: C_10  and  C_11
REMARK    5  A    between atoms: C_11  and  O_12
REMARK    6  A    between atoms: C_11  and  C_13
REMARK    7  A    between atoms: C_13  and  C_14
REMARK    8  A    between atoms: C_16  and  O_17
REMARK    9  A    between atoms: O_17  and  C_18
REMARK   10  A    between atoms: C_19  and  O_20
REMARK   11  A    between atoms: O_20  and  C_21
REMARK   12  A    between atoms: C_23  and  N_24
REMARK                            x       y       z     vdW  Elec       q    Type
REMARK                         _______ _______ _______ _____ _____    ______ ____
ROOT
ATOM      1  C   UNL     1       2.681   6.719  19.681  0.00  0.00    +0.000 C 
ENDROOT
BRANCH   1   5
ATOM      2  C   UNL     1       0.077   9.997  20.896  0.00  0.00    +0.000 A 
ATOM      3  C   UNL     1       0.298   8.876  21.710  0.00  0.00    +0.000 A 
ATOM      4  C   UNL     1       1.138   7.837  21.305  0.00  0.00    +0.000 A 
ATOM      5  C   UNL     1       1.787   7.875  20.064  0.00  0.00    +0.000 A 
ATOM      6  C   UNL     1       1.547   8.969  19.227  0.00  0.00    +0.000 A 
ATOM      7  C   UNL     1       0.719  10.017  19.645  0.00  0.00    +0.000 A 
BRANCH   2  11
ATOM      8  C   UNL     1      -2.463  13.246  22.173  0.00  0.00    +0.000 A 
ATOM      9  C   UNL     1      -1.922  12.366  23.106  0.00  0.00    +0.000 A 
ATOM     10  C   UNL     1      -1.086  11.323  22.695  0.00  0.00    +0.000 A 
ATOM     11  C   UNL     1      -0.798  11.107  21.336  0.00  0.00    +0.000 A 
ATOM     12  C   UNL     1      -1.386  11.987  20.409  0.00  0.00    +0.000 A 
ATOM     13  C   UNL     1      -2.203  13.046  20.820  0.00  0.00    +0.000 A 
BRANCH   8  15
ATOM     14  C   UNL     1      -2.860  14.726  23.957  0.00  0.00    +0.000 C 
ATOM     15  O   UNL     1      -3.258  14.234  22.682  0.00  0.00    +0.000 OA
ENDBRANCH   8  15
ENDBRANCH   2  11
ENDBRANCH   1   5
BRANCH   1  16
ATOM     16  O   UNL     1       2.603   5.739  20.712  0.00  0.00    +0.000 OA
ATOM     17  H   UNL     1       2.232   4.930  20.312  0.00  0.00    +0.000 HD
ENDBRANCH   1  16
BRANCH   1  18
ATOM     18  C   UNL     1       2.385   6.104  18.298  0.00  0.00    +0.000 C 
BRANCH  18  19
ATOM     19  C   UNL     1       3.650   5.633  17.610  0.00  0.00    +0.000 A 
ATOM     20  C   UNL     1       4.630   6.623  17.389  0.00  0.00    +0.000 A 
ATOM     21  C   UNL     1       5.855   6.335  16.781  0.00  0.00    +0.000 A 
ATOM     22  C   UNL     1       6.113   5.030  16.337  0.00  0.00    +0.000 A 
ATOM     23  C   UNL     1       5.162   4.029  16.565  0.00  0.00    +0.000 A 
ATOM     24  C   UNL     1       3.940   4.314  17.212  0.00  0.00    +0.000 A 
BRANCH  24  25
ATOM     25  N   UNL     1       3.023   3.170  17.433  0.00  0.00    +0.000 N 
ATOM     26  O   UNL     1       1.892   3.196  16.927  0.00  0.00    +0.000 OA
ATOM     27  O   UNL     1       3.439   2.233  18.130  0.00  0.00    +0.000 OA
ENDBRANCH  24  25
BRANCH  21  28
ATOM     28  O   UNL     1       6.823   7.285  16.563  0.00  0.00    +0.000 OA
ATOM     29  C   UNL     1       7.616   7.645  17.689  0.00  0.00    +0.000 C 
ENDBRANCH  21  28
BRANCH  22  30
ATOM     30  O   UNL     1       7.315   4.819  15.708  0.00  0.00    +0.000 OA
ATOM     31  C   UNL     1       7.318   4.812  14.285  0.00  0.00    +0.000 C 
ENDBRANCH  22  30
ENDBRANCH  18  19
ENDBRANCH   1  18
TORSDOF 9
ENDMDL
MODEL 3
REMARK VINA RESULT:      -7.8      1.459      1.975
REMARK  Name = 
REMARK  12 active torsions:
REMARK  status: ('A' for Active; 'I' for Inactive)
REMARK    1  A    between atoms: C_1  and  O_2
REMARK    2  A    between atoms: O_2  and  C_3
REMARK    3  A    between atoms: C_6  and  C_7
REMARK    4  A    between atoms: C_10  and  C_11
REMARK    5  A    between atoms: C_11  and  O_12
REMARK    6  A    between atoms: C_11  and  C_13
REMARK    7  A    between atoms: C_13  and  C_14
REMARK    8  A    between atoms: C_16  and  O_17
REMARK    9  A    between atoms: O_17  and  C_18
REMARK   10  A    between atoms: C_19  and  O_20
REMARK   11  A    between atoms: O_20  and  C_21
REMARK   12  A    between atoms: C_23  and  N_24
REMARK                            x       y       z     vdW  Elec       q    Type
REMARK                         _______ _______ _______ _____ _____    ______ ____
ROOT
ATOM      1  C   UNL     1       0.517   9.848  20.699  0.00  0.00    +0.000 C 
ENDROOT
BRANCH   1   5
ATOM      2  C   UNL     1       2.909   7.109  18.295  0.00  0.00    +0.000 A 
ATOM      3  C   UNL     1       2.446   8.334  17.794  0.00  0.00    +0.000 A 
ATOM      4  C   UNL     1       1.684   9.201  18.580  0.00  0.00    +0.000 A 
ATOM      5  C   UNL     1       1.348   8.872  19.900  0.00  0.00    +0.000 A 
ATOM      6  C   UNL     1       1.772   7.637  20.399  0.00  0.00    +0.000 A 
ATOM      7  C   UNL     1       2.553   6.780  19.615  0.00  0.00    +0.000 A 
BRANCH   2  11
ATOM      8  C   UNL     1       5.310   4.468  15.865  0.00  0.00    +0.000 A 
ATOM      9  C   UNL     1       4.375   3.950  16.757  0.00  0.00    +0.000 A 
ATOM     10  C   UNL     1       3.586   4.805  17.532  0.00  0.00    +0.000 A 
ATOM     11  C   UNL     1       3.735   6.201  17.467  0.00  0.00    +0.000 A 
ATOM     12  C   UNL     1       4.711   6.700  16.585  0.00  0.00    +0.000 A 
ATOM     13  C   UNL     1       5.486   5.848  15.790  0.00  0.00    +0.000 A 
BRANCH   8  15
ATOM     14  C   UNL     1       6.255   3.894  13.790  0.00  0.00    +0.000 C 
ATOM     15  O   UNL     1       6.021   3.547  15.150  0.00  0.00    +0.000 OA
ENDBRANCH   8  15
ENDBRANCH   2  11
ENDBRANCH   1   5
BRANCH   1  16
ATOM     16  O   UNL     1       1.086   9.950  22.001  0.00  0.00    +0.000 OA
ATOM     17  H   UNL     1       0.456   9.540  22.622  0.00  0.00    +0.000 HD
ENDBRANCH   1  16
BRANCH   1  18
ATOM     18  C   UNL     1       0.348  11.236  20.050  0.00  0.00    +0.000 C 
BRANCH  18  19
ATOM     19  C   UNL     1      -1.068  11.756  20.193  0.00  0.00    +0.000 A 
ATOM     20  C   UNL     1      -1.888  11.614  19.054  0.00  0.00    +0.000 A 
ATOM     21  C   UNL     1      -3.222  12.030  19.042  0.00  0.00    +0.000 A 
ATOM     22  C   UNL     1      -3.762  12.646  20.180  0.00  0.00    +0.000 A 
ATOM     23  C   UNL     1      -2.970  12.777  21.327  0.00  0.00    +0.000 A 
ATOM     24  C   UNL     1      -1.634  12.322  21.350  0.00  0.00    +0.000 A 
BRANCH  24  25
ATOM     25  N   UNL     1      -0.902  12.480  22.629  0.00  0.00    +0.000 N 
ATOM     26  O   UNL     1      -0.233  13.505  22.820  0.00  0.00    +0.000 OA
ATOM     27  O   UNL     1      -0.992  11.559  23.454  0.00  0.00    +0.000 OA
ENDBRANCH  24  25
BRANCH  21  28
ATOM     28  O   UNL     1      -4.037  11.895  17.944  0.00  0.00    +0.000 OA
ATOM     29  C   UNL     1      -4.499  10.578  17.661  0.00  0.00    +0.000 C 
ENDBRANCH  21  28
BRANCH  22  30
ATOM     30  O   UNL     1      -5.064  13.072  20.092  0.00  0.00    +0.000 OA
ATOM     31  C   UNL     1      -6.033  12.382  20.873  0.00  0.00    +0.000 C 
ENDBRANCH  22  30
ENDBRANCH  18  19
ENDBRANCH   1  18
TORSDOF 9
ENDMDL
MODEL 4
REMARK VINA RESULT:      -7.8      3.563     10.102
REMARK  Name = 
REMARK  12 active torsions:
REMARK  status: ('A' for Active; 'I' for Inactive)
REMARK    1  A    between atoms: C_1  and  O_2
REMARK    2  A    between atoms: O_2  and  C_3
REMARK    3  A    between atoms: C_6  and  C_7
REMARK    4  A    between atoms: C_10  and  C_11
REMARK    5  A    between atoms: C_11  and  O_12
REMARK    6  A    between atoms: C_11  and  C_13
REMARK    7  A    between atoms: C_13  and  C_14
REMARK    8  A    between atoms: C_16  and  O_17
REMARK    9  A    between atoms: O_17  and  C_18
REMARK   10  A    between atoms: C_19  and  O_20
REMARK   11  A    between atoms: O_20  and  C_21
REMARK   12  A    between atoms: C_23  and  N_24
REMARK                            x       y       z     vdW  Elec       q    Type
REMARK                         _______ _______ _______ _____ _____    ______ ____
ROOT
ATOM      1  C   UNL     1       2.250   7.606  19.767  0.00  0.00    +0.000 C 
ENDROOT
BRANCH   1   5
ATOM      2  C   UNL     1      -0.513  10.634  21.249  0.00  0.00    +0.000 A 
ATOM      3  C   UNL     1       0.011  10.672  19.948  0.00  0.00    +0.000 A 
ATOM      4  C   UNL     1       0.892   9.691  19.490  0.00  0.00    +0.000 A 
ATOM      5  C   UNL     1       1.291   8.635  20.319  0.00  0.00    +0.000 A 
ATOM      6  C   UNL     1       0.806   8.605  21.630  0.00  0.00    +0.000 A 
ATOM      7  C   UNL     1      -0.093   9.579  22.079  0.00  0.00    +0.000 A 
BRANCH   2  11
ATOM      8  C   UNL     1      -3.298  13.625  22.643  0.00  0.00    +0.000 A 
ATOM      9  C   UNL     1      -2.871  13.623  21.318  0.00  0.00    +0.000 A 
ATOM     10  C   UNL     1      -1.982  12.645  20.862  0.00  0.00    +0.000 A 
ATOM     11  C   UNL     1      -1.464  11.663  21.726  0.00  0.00    +0.000 A 
ATOM     12  C   UNL     1      -1.882  11.708  23.068  0.00  0.00    +0.000 A 
ATOM     13  C   UNL     1      -2.791  12.671  23.522  0.00  0.00    +0.000 A 
BRANCH   8  15
ATOM     14  C   UNL     1      -5.431  14.165  23.475  0.00  0.00    +0.000 C 
ATOM     15  O   UNL     1      -4.174  14.617  22.981  0.00  0.00    +0.000 OA
ENDBRANCH   8  15
ENDBRANCH   2  11
ENDBRANCH   1   5
BRANCH   1  16
ATOM     16  O   UNL     1       2.151   6.433  20.570  0.00  0.00    +0.000 OA
ATOM     17  H   UNL     1       1.730   5.745  20.022  0.00  0.00    +0.000 HD
ENDBRANCH   1  16
BRANCH   1  18
ATOM     18  C   UNL     1       2.061   7.281  18.273  0.00  0.00    +0.000 C 
BRANCH  18  19
ATOM     19  C   UNL     1       3.160   6.380  17.748  0.00  0.00    +0.000 A 
ATOM     20  C   UNL     1       4.352   7.030  17.366  0.00  0.00    +0.000 A 
ATOM     21  C   UNL     1       5.459   6.328  16.881  0.00  0.00    +0.000 A 
ATOM     22  C   UNL     1       5.380   4.937  16.729  0.00  0.00    +0.000 A 
ATOM     23  C   UNL     1       4.214   4.271  17.121  0.00  0.00    +0.000 A 
ATOM     24  C   UNL     1       3.109   4.977  17.646  0.00  0.00    +0.000 A 
BRANCH  24  25
ATOM     25  N   UNL     1       1.940   4.166  18.062  0.00  0.00    +0.000 N 
ATOM     26  O   UNL     1       1.036   3.943  17.244  0.00  0.00    +0.000 OA
ATOM     27  O   UNL     1       1.923   3.750  19.230  0.00  0.00    +0.000 OA
ENDBRANCH  24  25
BRANCH  21  28
ATOM     28  O   UNL     1       6.630   6.944  16.509  0.00  0.00    +0.000 OA
ATOM     29  C   UNL     1       7.462   7.407  17.569  0.00  0.00    +0.000 C 
ENDBRANCH  21  28
BRANCH  22  30
ATOM     30  O   UNL     1       6.485   4.309  16.207  0.00  0.00    +0.000 OA
ATOM     31  C   UNL     1       6.419   3.892  14.848  0.00  0.00    +0.000 C 
ENDBRANCH  22  30
ENDBRANCH  18  19
ENDBRANCH   1  18
TORSDOF 9
ENDMDL
MODEL 5
REMARK VINA RESULT:      -7.7      0.309      1.391
REMARK  Name = 
REMARK  12 active torsions:
REMARK  status: ('A' for Active; 'I' for Inactive)
REMARK    1  A    between atoms: C_1  and  O_2
REMARK    2  A    between atoms: O_2  and  C_3
REMARK    3  A    between atoms: C_6  and  C_7
REMARK    4  A    between atoms: C_10  and  C_11
REMARK    5  A    between atoms: C_11  and  O_12
REMARK    6  A    between atoms: C_11  and  C_13
REMARK    7  A    between atoms: C_13  and  C_14
REMARK    8  A    between atoms: C_16  and  O_17
REMARK    9  A    between atoms: O_17  and  C_18
REMARK   10  A    between atoms: C_19  and  O_20
REMARK   11  A    between atoms: O_20  and  C_21
REMARK   12  A    between atoms: C_23  and  N_24
REMARK                            x       y       z     vdW  Elec       q    Type
REMARK                         _______ _______ _______ _____ _____    ______ ____
ROOT
ATOM      1  C   UNL     1       0.023  10.487  20.407  0.00  0.00    +0.000 C 
ENDROOT
BRANCH   1   5
ATOM      2  C   UNL     1       2.566   7.576  18.392  0.00  0.00    +0.000 A 
ATOM      3  C   UNL     1       2.180   7.431  19.733  0.00  0.00    +0.000 A 
ATOM      4  C   UNL     1       1.362   8.372  20.360  0.00  0.00    +0.000 A 
ATOM      5  C   UNL     1       0.902   9.502  19.672  0.00  0.00    +0.000 A 
ATOM      6  C   UNL     1       1.310   9.679  18.347  0.00  0.00    +0.000 A 
ATOM      7  C   UNL     1       2.114   8.723  17.715  0.00  0.00    +0.000 A 
BRANCH   2  11
ATOM      8  C   UNL     1       5.041   4.637  16.423  0.00  0.00    +0.000 A 
ATOM      9  C   UNL     1       3.997   4.237  17.252  0.00  0.00    +0.000 A 
ATOM     10  C   UNL     1       3.185   5.189  17.877  0.00  0.00    +0.000 A 
ATOM     11  C   UNL     1       3.417   6.567  17.722  0.00  0.00    +0.000 A 
ATOM     12  C   UNL     1       4.500   6.946  16.908  0.00  0.00    +0.000 A 
ATOM     13  C   UNL     1       5.300   5.996  16.262  0.00  0.00    +0.000 A 
BRANCH   8  15
ATOM     14  C   UNL     1       6.311   3.928  14.574  0.00  0.00    +0.000 C 
ATOM     15  O   UNL     1       5.766   3.628  15.855  0.00  0.00    +0.000 OA
ENDBRANCH   8  15
ENDBRANCH   2  11
ENDBRANCH   1   5
BRANCH   1  16
ATOM     16  O   UNL     1       0.655  10.808  21.643  0.00  0.00    +0.000 OA
ATOM     17  H   UNL     1       1.234  11.575  21.478  0.00  0.00    +0.000 HD
ENDBRANCH   1  16
BRANCH   1  18
ATOM     18  C   UNL     1      -0.331  11.758  19.610  0.00  0.00    +0.000 C 
BRANCH  18  19
ATOM     19  C   UNL     1      -1.803  11.809  19.256  0.00  0.00    +0.000 A 
ATOM     20  C   UNL     1      -2.154  11.226  18.020  0.00  0.00    +0.000 A 
ATOM     21  C   UNL     1      -3.476  11.182  17.567  0.00  0.00    +0.000 A 
ATOM     22  C   UNL     1      -4.488  11.768  18.340  0.00  0.00    +0.000 A 
ATOM     23  C   UNL     1      -4.163  12.333  19.578  0.00  0.00    +0.000 A 
ATOM     24  C   UNL     1      -2.833  12.344  20.052  0.00  0.00    +0.000 A 
BRANCH  24  25
ATOM     25  N   UNL     1      -2.610  12.937  21.392  0.00  0.00    +0.000 N 
ATOM     26  O   UNL     1      -2.877  12.269  22.401  0.00  0.00    +0.000 OA
ATOM     27  O   UNL     1      -2.168  14.094  21.436  0.00  0.00    +0.000 OA
ENDBRANCH  24  25
BRANCH  21  28
ATOM     28  O   UNL     1      -3.837  10.613  16.370  0.00  0.00    +0.000 OA
ATOM     29  C   UNL     1      -2.792  10.433  15.418  0.00  0.00    +0.000 C 
ENDBRANCH  21  28
BRANCH  22  30
ATOM     30  O   UNL     1      -5.759  11.731  17.822  0.00  0.00    +0.000 OA
ATOM     31  C   UNL     1      -6.243  12.911  17.190  0.00  0.00    +0.000 C 
ENDBRANCH  22  30
ENDBRANCH  18  19
ENDBRANCH   1  18
TORSDOF 9
ENDMDL
MODEL 6
REMARK VINA RESULT:      -7.7      1.608      1.932
REMARK  Name = 
REMARK  12 active torsions:
REMARK  status: ('A' for Active; 'I' for Inactive)
REMARK    1  A    between atoms: C_1  and  O_2
REMARK    2  A    between atoms: O_2  and  C_3
REMARK    3  A    between atoms: C_6  and  C_7
REMARK    4  A    between atoms: C_10  and  C_11
REMARK    5  A    between atoms: C_11  and  O_12
REMARK    6  A    between atoms: C_11  and  C_13
REMARK    7  A    between atoms: C_13  and  C_14
REMARK    8  A    between atoms: C_16  and  O_17
REMARK    9  A    between atoms: O_17  and  C_18
REMARK   10  A    between atoms: C_19  and  O_20
REMARK   11  A    between atoms: O_20  and  C_21
REMARK   12  A    between atoms: C_23  and  N_24
REMARK                            x       y       z     vdW  Elec       q    Type
REMARK                         _______ _______ _______ _____ _____    ______ ____
ROOT
ATOM      1  C   UNL     1       0.667   9.284  20.825  0.00  0.00    +0.000 C 
ENDROOT
BRANCH   1   5
ATOM      2  C   UNL     1       3.106   6.757  18.241  0.00  0.00    +0.000 A 
ATOM      3  C   UNL     1       2.631   8.011  17.829  0.00  0.00    +0.000 A 
ATOM      4  C   UNL     1       1.854   8.809  18.672  0.00  0.00    +0.000 A 
ATOM      5  C   UNL     1       1.514   8.379  19.961  0.00  0.00    +0.000 A 
ATOM      6  C   UNL     1       1.950   7.115  20.371  0.00  0.00    +0.000 A 
ATOM      7  C   UNL     1       2.745   6.328  19.531  0.00  0.00    +0.000 A 
BRANCH   2  11
ATOM      8  C   UNL     1       5.569   4.320  15.666  0.00  0.00    +0.000 A 
ATOM      9  C   UNL     1       5.534   5.702  15.506  0.00  0.00    +0.000 A 
ATOM     10  C   UNL     1       4.749   6.494  16.350  0.00  0.00    +0.000 A 
ATOM     11  C   UNL     1       3.947   5.923  17.354  0.00  0.00    +0.000 A 
ATOM     12  C   UNL     1       3.971   4.522  17.473  0.00  0.00    +0.000 A 
ATOM     13  C   UNL     1       4.774   3.729  16.645  0.00  0.00    +0.000 A 
BRANCH   8  15
ATOM     14  C   UNL     1       6.797   4.393  13.662  0.00  0.00    +0.000 C 
ATOM     15  O   UNL     1       6.375   3.643  14.796  0.00  0.00    +0.000 OA
ENDBRANCH   8  15
ENDBRANCH   2  11
ENDBRANCH   1   5
BRANCH   1  16
ATOM     16  O   UNL     1       1.067   9.102  22.180  0.00  0.00    +0.000 OA
ATOM     17  H   UNL     1       1.612   9.873  22.424  0.00  0.00    +0.000 HD
ENDBRANCH   1  16
BRANCH   1  18
ATOM     18  C   UNL     1       0.697  10.772  20.425  0.00  0.00    +0.000 C 
BRANCH  18  19
ATOM     19  C   UNL     1      -0.696  11.363  20.352  0.00  0.00    +0.000 A 
ATOM     20  C   UNL     1      -1.328  11.282  19.093  0.00  0.00    +0.000 A 
ATOM     21  C   UNL     1      -2.621  11.768  18.877  0.00  0.00    +0.000 A 
ATOM     22  C   UNL     1      -3.306  12.394  19.929  0.00  0.00    +0.000 A 
ATOM     23  C   UNL     1      -2.704  12.466  21.190  0.00  0.00    +0.000 A 
ATOM     24  C   UNL     1      -1.413  11.941  21.416  0.00  0.00    +0.000 A 
BRANCH  24  25
ATOM     25  N   UNL     1      -0.889  12.041  22.799  0.00  0.00    +0.000 N 
ATOM     26  O   UNL     1      -0.476  13.134  23.212  0.00  0.00    +0.000 OA
ATOM     27  O   UNL     1      -0.884  11.007  23.482  0.00  0.00    +0.000 OA
ENDBRANCH  24  25
BRANCH  21  28
ATOM     28  O   UNL     1      -3.254  11.693  17.660  0.00  0.00    +0.000 OA
ATOM     29  C   UNL     1      -3.534  10.383  17.177  0.00  0.00    +0.000 C 
ENDBRANCH  21  28
BRANCH  22  30
ATOM     30  O   UNL     1      -4.555  12.889  19.644  0.00  0.00    +0.000 OA
ATOM     31  C   UNL     1      -5.382  13.251  20.744  0.00  0.00    +0.000 C 
ENDBRANCH  22  30
ENDBRANCH  18  19
ENDBRANCH   1  18
TORSDOF 9
ENDMDL
MODEL 7
REMARK VINA RESULT:      -7.6      3.651     10.180
REMARK  Name = 
REMARK  12 active torsions:
REMARK  status: ('A' for Active; 'I' for Inactive)
REMARK    1  A    between atoms: C_1  and  O_2
REMARK    2  A    between atoms: O_2  and  C_3
REMARK    3  A    between atoms: C_6  and  C_7
REMARK    4  A    between atoms: C_10  and  C_11
REMARK    5  A    between atoms: C_11  and  O_12
REMARK    6  A    between atoms: C_11  and  C_13
REMARK    7  A    between atoms: C_13  and  C_14
REMARK    8  A    between atoms: C_16  and  O_17
REMARK    9  A    between atoms: O_17  and  C_18
REMARK   10  A    between atoms: C_19  and  O_20
REMARK   11  A    between atoms: O_20  and  C_21
REMARK   12  A    between atoms: C_23  and  N_24
REMARK                            x       y       z     vdW  Elec       q    Type
REMARK                         _______ _______ _______ _____ _____    ______ ____
ROOT
ATOM      1  C   UNL     1       2.438   7.395  19.808  0.00  0.00    +0.000 C 
ENDROOT
BRANCH   1   5
ATOM      2  C   UNL     1      -0.325  10.445  21.245  0.00  0.00    +0.000 A 
ATOM      3  C   UNL     1       0.096  10.387  19.908  0.00  0.00    +0.000 A 
ATOM      4  C   UNL     1       0.978   9.400  19.465  0.00  0.00    +0.000 A 
ATOM      5  C   UNL     1       1.482   8.435  20.346  0.00  0.00    +0.000 A 
ATOM      6  C   UNL     1       1.101   8.504  21.689  0.00  0.00    +0.000 A 
ATOM      7  C   UNL     1       0.200   9.482  22.124  0.00  0.00    +0.000 A 
BRANCH   2  11
ATOM      8  C   UNL     1      -3.093  13.474  22.591  0.00  0.00    +0.000 A 
ATOM      9  C   UNL     1      -2.659  12.478  23.462  0.00  0.00    +0.000 A 
ATOM     10  C   UNL     1      -1.750  11.506  23.031  0.00  0.00    +0.000 A 
ATOM     11  C   UNL     1      -1.278  11.480  21.707  0.00  0.00    +0.000 A 
ATOM     12  C   UNL     1      -1.758  12.474  20.836  0.00  0.00    +0.000 A 
ATOM     13  C   UNL     1      -2.649  13.463  21.271  0.00  0.00    +0.000 A 
BRANCH   8  15
ATOM     14  C   UNL     1      -3.375  15.419  23.883  0.00  0.00    +0.000 C 
ATOM     15  O   UNL     1      -3.972  14.378  23.116  0.00  0.00    +0.000 OA
ENDBRANCH   8  15
ENDBRANCH   2  11
ENDBRANCH   1   5
BRANCH   1  16
ATOM     16  O   UNL     1       2.369   6.251  20.655  0.00  0.00    +0.000 OA
ATOM     17  H   UNL     1       3.233   6.171  21.100  0.00  0.00    +0.000 HD
ENDBRANCH   1  16
BRANCH   1  18
ATOM     18  C   UNL     1       2.216   7.015  18.331  0.00  0.00    +0.000 C 
BRANCH  18  19
ATOM     19  C   UNL     1       3.406   6.275  17.755  0.00  0.00    +0.000 A 
ATOM     20  C   UNL     1       4.518   7.076  17.419  0.00  0.00    +0.000 A 
ATOM     21  C   UNL     1       5.694   6.533  16.895  0.00  0.00    +0.000 A 
ATOM     22  C   UNL     1       5.768   5.153  16.654  0.00  0.00    +0.000 A 
ATOM     23  C   UNL     1       4.683   4.340  16.999  0.00  0.00    +0.000 A 
ATOM     24  C   UNL     1       3.510   4.885  17.563  0.00  0.00    +0.000 A 
BRANCH  24  25
ATOM     25  N   UNL     1       2.438   3.925  17.923  0.00  0.00    +0.000 N 
ATOM     26  O   UNL     1       2.132   3.779  19.115  0.00  0.00    +0.000 OA
ATOM     27  O   UNL     1       1.898   3.302  16.998  0.00  0.00    +0.000 OA
ENDBRANCH  24  25
BRANCH  21  28
ATOM     28  O   UNL     1       6.789   7.296  16.568  0.00  0.00    +0.000 OA
ATOM     29  C   UNL     1       7.678   7.611  17.634  0.00  0.00    +0.000 C 
ENDBRANCH  21  28
BRANCH  22  30
ATOM     30  O   UNL     1       6.933   4.686  16.098  0.00  0.00    +0.000 OA
ATOM     31  C   UNL     1       6.907   4.343  14.716  0.00  0.00    +0.000 C 
ENDBRANCH  22  30
ENDBRANCH  18  19
ENDBRANCH   1  18
TORSDOF 9
ENDMDL
MODEL 8
REMARK VINA RESULT:      -7.6      3.524     10.124
REMARK  Name = 
REMARK  12 active torsions:
REMARK  status: ('A' for Active; 'I' for Inactive)
REMARK    1  A    between atoms: C_1  and  O_2
REMARK    2  A    between atoms: O_2  and  C_3
REMARK    3  A    between atoms: C_6  and  C_7
REMARK    4  A    between atoms: C_10  and  C_11
REMARK    5  A    between atoms: C_11  and  O_12
REMARK    6  A    between atoms: C_11  and  C_13
REMARK    7  A    between atoms: C_13  and  C_14
REMARK    8  A    between atoms: C_16  and  O_17
REMARK    9  A    between atoms: O_17  and  C_18
REMARK   10  A    between atoms: C_19  and  O_20
REMARK   11  A    between atoms: O_20  and  C_21
REMARK   12  A    between atoms: C_23  and  N_24
REMARK                            x       y       z     vdW  Elec       q    Type
REMARK                         _______ _______ _______ _____ _____    ______ ____
ROOT
ATOM      1  C   UNL     1       2.724   6.346  19.789  0.00  0.00    +0.000 C 
ENDROOT
BRANCH   1   5
ATOM      2  C   UNL     1       0.407  10.000  20.318  0.00  0.00    +0.000 A 
ATOM      3  C   UNL     1       1.147   9.745  19.153  0.00  0.00    +0.000 A 
ATOM      4  C   UNL     1       1.880   8.567  19.000  0.00  0.00    +0.000 A 
ATOM      5  C   UNL     1       1.909   7.598  20.012  0.00  0.00    +0.000 A 
ATOM      6  C   UNL     1       1.207   7.856  21.193  0.00  0.00    +0.000 A 
ATOM      7  C   UNL     1       0.457   9.029  21.334  0.00  0.00    +0.000 A 
BRANCH   2  11
ATOM      8  C   UNL     1      -1.895  13.626  20.756  0.00  0.00    +0.000 A 
ATOM      9  C   UNL     1      -1.702  12.778  21.843  0.00  0.00    +0.000 A 
ATOM     10  C   UNL     1      -0.943  11.612  21.706  0.00  0.00    +0.000 A 
ATOM     11  C   UNL     1      -0.387  11.240  20.469  0.00  0.00    +0.000 A 
ATOM     12  C   UNL     1      -0.625  12.094  19.377  0.00  0.00    +0.000 A 
ATOM     13  C   UNL     1      -1.364  13.275  19.517  0.00  0.00    +0.000 A 
BRANCH   8  15
ATOM     14  C   UNL     1      -4.049  14.525  21.045  0.00  0.00    +0.000 C 
ATOM     15  O   UNL     1      -2.643  14.743  21.000  0.00  0.00    +0.000 OA
ENDBRANCH   8  15
ENDBRANCH   2  11
ENDBRANCH   1   5
BRANCH   1  16
ATOM     16  O   UNL     1       2.568   5.508  20.931  0.00  0.00    +0.000 OA
ATOM     17  H   UNL     1       1.701   5.719  21.325  0.00  0.00    +0.000 HD
ENDBRANCH   1  16
BRANCH   1  18
ATOM     18  C   UNL     1       2.402   5.587  18.487  0.00  0.00    +0.000 C 
BRANCH  18  19
ATOM     19  C   UNL     1       3.655   5.259  17.701  0.00  0.00    +0.000 A 
ATOM     20  C   UNL     1       4.528   6.342  17.466  0.00  0.00    +0.000 A 
ATOM     21  C   UNL     1       5.731   6.189  16.771  0.00  0.00    +0.000 A 
ATOM     22  C   UNL     1       6.073   4.932  16.253  0.00  0.00    +0.000 A 
ATOM     23  C   UNL     1       5.230   3.841  16.494  0.00  0.00    +0.000 A 
ATOM     24  C   UNL     1       4.033   3.989  17.228  0.00  0.00    +0.000 A 
BRANCH  24  25
ATOM     25  N   UNL     1       3.237   2.759  17.452  0.00  0.00    +0.000 N 
ATOM     26  O   UNL     1       2.077   2.702  17.018  0.00  0.00    +0.000 OA
ATOM     27  O   UNL     1       3.777   1.837  18.080  0.00  0.00    +0.000 OA
ENDBRANCH  24  25
BRANCH  21  28
ATOM     28  O   UNL     1       6.596   7.231  16.537  0.00  0.00    +0.000 OA
ATOM     29  C   UNL     1       7.477   7.569  17.603  0.00  0.00    +0.000 C 
ENDBRANCH  21  28
BRANCH  22  30
ATOM     30  O   UNL     1       7.246   4.855  15.543  0.00  0.00    +0.000 OA
ATOM     31  C   UNL     1       7.148   4.745  14.128  0.00  0.00    +0.000 C 
ENDBRANCH  22  30
ENDBRANCH  18  19
ENDBRANCH   1  18
TORSDOF 9
ENDMDL
MODEL 9
REMARK VINA RESULT:      -7.6      3.946      9.958
REMARK  Name = 
REMARK  12 active torsions:
REMARK  status: ('A' for Active; 'I' for Inactive)
REMARK    1  A    between atoms: C_1  and  O_2
REMARK    2  A    between atoms: O_2  and  C_3
REMARK    3  A    between atoms: C_6  and  C_7
REMARK    4  A    between atoms: C_10  and  C_11
REMARK    5  A    between atoms: C_11  and  O_12
REMARK    6  A    between atoms: C_11  and  C_13
REMARK    7  A    between atoms: C_13  and  C_14
REMARK    8  A    between atoms: C_16  and  O_17
REMARK    9  A    between atoms: O_17  and  C_18
REMARK   10  A    between atoms: C_19  and  O_20
REMARK   11  A    between atoms: O_20  and  C_21
REMARK   12  A    between atoms: C_23  and  N_24
REMARK                            x       y       z     vdW  Elec       q    Type
REMARK                         _______ _______ _______ _____ _____    ______ ____
ROOT
ATOM      1  C   UNL     1       2.385   5.895  19.185  0.00  0.00    +0.000 C 
ENDROOT
BRANCH   1   5
ATOM      2  C   UNL     1       1.320  10.117  18.991  0.00  0.00    +0.000 A 
ATOM      3  C   UNL     1       1.819   9.420  17.881  0.00  0.00    +0.000 A 
ATOM      4  C   UNL     1       2.151   8.066  17.961  0.00  0.00    +0.000 A 
ATOM      5  C   UNL     1       2.005   7.357  19.160  0.00  0.00    +0.000 A 
ATOM      6  C   UNL     1       1.544   8.049  20.284  0.00  0.00    +0.000 A 
ATOM      7  C   UNL     1       1.193   9.400  20.194  0.00  0.00    +0.000 A 
BRANCH   2  11
ATOM      8  C   UNL     1       0.230  14.285  18.705  0.00  0.00    +0.000 A 
ATOM      9  C   UNL     1       1.566  13.913  18.831  0.00  0.00    +0.000 A 
ATOM     10  C   UNL     1       1.921  12.563  18.907  0.00  0.00    +0.000 A 
ATOM     11  C   UNL     1       0.949  11.547  18.898  0.00  0.00    +0.000 A 
ATOM     12  C   UNL     1      -0.396  11.949  18.807  0.00  0.00    +0.000 A 
ATOM     13  C   UNL     1      -0.753  13.299  18.706  0.00  0.00    +0.000 A 
BRANCH   8  15
ATOM     14  C   UNL     1       1.153  16.448  18.734  0.00  0.00    +0.000 C 
ATOM     15  O   UNL     1      -0.006  15.629  18.628  0.00  0.00    +0.000 OA
ENDBRANCH   8  15
ENDBRANCH   2  11
ENDBRANCH   1   5
BRANCH   1  16
ATOM     16  O   UNL     1       2.147   5.353  17.889  0.00  0.00    +0.000 OA
ATOM     17  H   UNL     1       3.017   5.145  17.501  0.00  0.00    +0.000 HD
ENDBRANCH   1  16
BRANCH   1  18
ATOM     18  C   UNL     1       3.824   5.610  19.657  0.00  0.00    +0.000 C 
BRANCH  18  19
ATOM     19  C   UNL     1       4.739   5.266  18.500  0.00  0.00    +0.000 A 
ATOM     20  C   UNL     1       5.606   6.297  18.080  0.00  0.00    +0.000 A 
ATOM     21  C   UNL     1       6.519   6.122  17.036  0.00  0.00    +0.000 A 
ATOM     22  C   UNL     1       6.557   4.899  16.352  0.00  0.00    +0.000 A 
ATOM     23  C   UNL     1       5.720   3.857  16.767  0.00  0.00    +0.000 A 
ATOM     24  C   UNL     1       4.824   4.023  17.845  0.00  0.00    +0.000 A 
BRANCH  24  25
ATOM     25  N   UNL     1       4.011   2.841  18.220  0.00  0.00    +0.000 N 
ATOM     26  O   UNL     1       3.055   2.513  17.504  0.00  0.00    +0.000 OA
ATOM     27  O   UNL     1       4.331   2.235  19.253  0.00  0.00    +0.000 OA
ENDBRANCH  24  25
BRANCH  21  28
ATOM     28  O   UNL     1       7.374   7.113  16.618  0.00  0.00    +0.000 OA
ATOM     29  C   UNL     1       7.752   8.074  17.598  0.00  0.00    +0.000 C 
ENDBRANCH  21  28
BRANCH  22  30
ATOM     30  O   UNL     1       7.445   4.803  15.309  0.00  0.00    +0.000 OA
ATOM     31  C   UNL     1       6.903   4.696  13.997  0.00  0.00    +0.000 C 
ENDBRANCH  22  30
ENDBRANCH  18  19
ENDBRANCH   1  18
TORSDOF 9
ENDMDL
