MODEL 1
REMARK VINA RESULT:      -7.6      0.000      0.000
REMARK  Name = 
REMARK  8 active torsions:
REMARK  status: ('A' for Active; 'I' for Inactive)
REMARK    1  A    between atoms: C_1  and  O_2
REMARK    2  A    between atoms: O_2  and  C_3
REMARK    3  A    between atoms: C_7  and  C_8
REMARK    4  A    between atoms: C_8  and  N_9
REMARK    5  A    between atoms: C_12  and  C_13
REMARK    6  A    between atoms: C_12  and  C_14
REMARK    7  A    between atoms: N_16  and  C_17
REMARK    8  A    between atoms: C_20  and  C_21
REMARK                            x       y       z     vdW  Elec       q    Type
REMARK                         _______ _______ _______ _____ _____    ______ ____
ROOT
ATOM      1  N   UNL     1       3.001   3.289  18.079  0.00  0.00    +0.000 NA
ATOM      2  C   UNL     1       2.160   2.119  17.757  0.00  0.00    +0.000 C 
ATOM      3  C   UNL     1       1.485   2.188  19.122  0.00  0.00    +0.000 C 
ATOM      4  C   UNL     1       2.470   3.325  19.491  0.00  0.00    +0.000 C 
ATOM      5  C   UNL     1       3.431   2.967  20.630  0.00  0.00    +0.000 C 
ENDROOT
BRANCH   4   6
ATOM      6  C   UNL     1       1.740   4.683  19.859  0.00  0.00    +0.000 C 
ATOM      7  O   UNL     1       0.666   4.690  20.466  0.00  0.00    +0.000 OA
ATOM      8  N   UNL     1       2.411   5.816  19.429  0.00  0.00    +0.000 N 
ATOM      9  H   UNL     1       3.173   5.639  18.782  0.00  0.00    +0.000 HD
BRANCH   8  10
ATOM     10  C   UNL     1       2.006   7.145  19.649  0.00  0.00    +0.000 A 
ATOM     11  C   UNL     1       1.599   7.613  20.902  0.00  0.00    +0.000 A 
ATOM     12  C   UNL     1       1.091   8.902  21.053  0.00  0.00    +0.000 A 
ATOM     13  C   UNL     1       0.996   9.754  19.953  0.00  0.00    +0.000 A 
ATOM     14  C   UNL     1       0.343  11.095  20.089  0.00  0.00    +0.000 C 
ATOM     15  C   UNL     1       1.477   9.316  18.713  0.00  0.00    +0.000 A 
ATOM     16  C   UNL     1       1.992   8.023  18.565  0.00  0.00    +0.000 A 
ENDBRANCH   8  10
ENDBRANCH   4   6
BRANCH   1  17
ATOM     17  C   UNL     1       4.427   2.924  17.995  0.00  0.00    +0.000 C 
BRANCH  17  22
ATOM     18  C   UNL     1       6.852   5.840  17.584  0.00  0.00    +0.000 A 
ATOM     19  C   UNL     1       6.922   5.966  16.200  0.00  0.00    +0.000 A 
ATOM     20  C   UNL     1       6.222   5.087  15.369  0.00  0.00    +0.000 A 
ATOM     21  C   UNL     1       5.424   4.080  15.922  0.00  0.00    +0.000 A 
ATOM     22  C   UNL     1       5.326   3.937  17.310  0.00  0.00    +0.000 A 
ATOM     23  C   UNL     1       6.040   4.838  18.127  0.00  0.00    +0.000 A 
ATOM     24  F   UNL     1       5.897   4.728  19.458  0.00  0.00    +0.000 F 
BRANCH  18  26
ATOM     25  C   UNL     1       7.789   8.014  17.609  0.00  0.00    +0.000 C 
ATOM     26  O   UNL     1       7.552   6.784  18.286  0.00  0.00    +0.000 OA
ENDBRANCH  18  26
ENDBRANCH  17  22
ENDBRANCH   1  17
TORSDOF 5
ENDMDL
MODEL 2
REMARK VINA RESULT:      -7.3      1.250      1.826
REMARK  Name = 
REMARK  8 active torsions:
REMARK  status: ('A' for Active; 'I' for Inactive)
REMARK    1  A    between atoms: C_1  and  O_2
REMARK    2  A    between atoms: O_2  and  C_3
REMARK    3  A    between atoms: C_7  and  C_8
REMARK    4  A    between atoms: C_8  and  N_9
REMARK    5  A    between atoms: C_12  and  C_13
REMARK    6  A    between atoms: C_12  and  C_14
REMARK    7  A    between atoms: N_16  and  C_17
REMARK    8  A    between atoms: C_20  and  C_21
REMARK                            x       y       z     vdW  Elec       q    Type
REMARK                         _______ _______ _______ _____ _____    ______ ____
ROOT
ATOM      1  N   UNL     1       3.093   3.558  18.411  0.00  0.00    +0.000 NA
ATOM      2  C   UNL     1       2.320   2.385  17.957  0.00  0.00    +0.000 C 
ATOM      3  C   UNL     1       1.474   2.411  19.223  0.00  0.00    +0.000 C 
ATOM      4  C   UNL     1       2.383   3.552  19.743  0.00  0.00    +0.000 C 
ATOM      5  C   UNL     1       3.195   3.180  20.988  0.00  0.00    +0.000 C 
ENDROOT
BRANCH   4   6
ATOM      6  C   UNL     1       1.589   4.891  20.043  0.00  0.00    +0.000 C 
ATOM      7  O   UNL     1       0.453   4.869  20.524  0.00  0.00    +0.000 OA
ATOM      8  N   UNL     1       2.281   6.042  19.706  0.00  0.00    +0.000 N 
ATOM      9  H   UNL     1       3.115   5.890  19.148  0.00  0.00    +0.000 HD
BRANCH   8  10
ATOM     10  C   UNL     1       1.827   7.360  19.897  0.00  0.00    +0.000 A 
ATOM     11  C   UNL     1       1.378   7.833  21.132  0.00  0.00    +0.000 A 
ATOM     12  C   UNL     1       0.824   9.107  21.253  0.00  0.00    +0.000 A 
ATOM     13  C   UNL     1       0.724   9.938  20.137  0.00  0.00    +0.000 A 
ATOM     14  C   UNL     1       0.024  11.258  20.237  0.00  0.00    +0.000 C 
ATOM     15  C   UNL     1       1.245   9.497  18.914  0.00  0.00    +0.000 A 
ATOM     16  C   UNL     1       1.807   8.221  18.798  0.00  0.00    +0.000 A 
ENDBRANCH   8  10
ENDBRANCH   4   6
BRANCH   1  17
ATOM     17  C   UNL     1       4.524   3.215  18.504  0.00  0.00    +0.000 C 
BRANCH  17  22
ATOM     18  C   UNL     1       6.481   5.501  16.159  0.00  0.00    +0.000 A 
ATOM     19  C   UNL     1       7.329   6.163  17.041  0.00  0.00    +0.000 A 
ATOM     20  C   UNL     1       7.258   5.919  18.415  0.00  0.00    +0.000 A 
ATOM     21  C   UNL     1       6.345   4.985  18.919  0.00  0.00    +0.000 A 
ATOM     22  C   UNL     1       5.489   4.296  18.054  0.00  0.00    +0.000 A 
ATOM     23  C   UNL     1       5.581   4.559  16.672  0.00  0.00    +0.000 A 
ATOM     24  F   UNL     1       4.794   3.854  15.844  0.00  0.00    +0.000 F 
BRANCH  18  26
ATOM     25  C   UNL     1       7.099   4.720  14.011  0.00  0.00    +0.000 C 
ATOM     26  O   UNL     1       6.674   5.799  14.838  0.00  0.00    +0.000 OA
ENDBRANCH  18  26
ENDBRANCH  17  22
ENDBRANCH   1  17
TORSDOF 5
ENDMDL
MODEL 3
REMARK VINA RESULT:      -7.1      2.374      6.126
REMARK  Name = 
REMARK  8 active torsions:
REMARK  status: ('A' for Active; 'I' for Inactive)
REMARK    1  A    between atoms: C_1  and  O_2
REMARK    2  A    between atoms: O_2  and  C_3
REMARK    3  A    between atoms: C_7  and  C_8
REMARK    4  A    between atoms: C_8  and  N_9
REMARK    5  A    between atoms: C_12  and  C_13
REMARK    6  A    between atoms: C_12  and  C_14
REMARK    7  A    between atoms: N_16  and  C_17
REMARK    8  A    between atoms: C_20  and  C_21
REMARK                            x       y       z     vdW  Elec       q    Type
REMARK                         _______ _______ _______ _____ _____    ______ ____
ROOT
ATOM      1  N   UNL     1       2.794   4.599  20.344  0.00  0.00    +0.000 NA
ATOM      2  C   UNL     1       2.796   3.690  21.508  0.00  0.00    +0.000 C 
ATOM      3  C   UNL     1       2.555   2.485  20.608  0.00  0.00    +0.000 C 
ATOM      4  C   UNL     1       2.419   3.467  19.418  0.00  0.00    +0.000 C 
ATOM      5  C   UNL     1       1.024   3.488  18.786  0.00  0.00    +0.000 C 
ENDROOT
BRANCH   4   6
ATOM      6  C   UNL     1       3.484   3.206  18.274  0.00  0.00    +0.000 C 
ATOM      7  O   UNL     1       3.727   2.065  17.871  0.00  0.00    +0.000 OA
ATOM      8  N   UNL     1       4.097   4.355  17.803  0.00  0.00    +0.000 N 
ATOM      9  H   UNL     1       3.932   5.185  18.363  0.00  0.00    +0.000 HD
BRANCH   8  10
ATOM     10  C   UNL     1       5.051   4.416  16.771  0.00  0.00    +0.000 A 
ATOM     11  C   UNL     1       6.405   4.668  17.008  0.00  0.00    +0.000 A 
ATOM     12  C   UNL     1       7.297   4.840  15.950  0.00  0.00    +0.000 A 
ATOM     13  C   UNL     1       6.850   4.745  14.632  0.00  0.00    +0.000 A 
ATOM     14  C   UNL     1       7.779   5.045  13.496  0.00  0.00    +0.000 C 
ATOM     15  C   UNL     1       5.511   4.413  14.392  0.00  0.00    +0.000 A 
ATOM     16  C   UNL     1       4.620   4.236  15.456  0.00  0.00    +0.000 A 
ENDBRANCH   8  10
ENDBRANCH   4   6
BRANCH   1  17
ATOM     17  C   UNL     1       1.735   5.612  20.495  0.00  0.00    +0.000 C 
BRANCH  17  22
ATOM     18  C   UNL     1       1.439   9.287  19.515  0.00  0.00    +0.000 A 
ATOM     19  C   UNL     1       2.062   9.306  18.271  0.00  0.00    +0.000 A 
ATOM     20  C   UNL     1       2.628   8.143  17.741  0.00  0.00    +0.000 A 
ATOM     21  C   UNL     1       2.556   6.938  18.448  0.00  0.00    +0.000 A 
ATOM     22  C   UNL     1       1.925   6.887  19.696  0.00  0.00    +0.000 A 
ATOM     23  C   UNL     1       1.360   8.073  20.208  0.00  0.00    +0.000 A 
ATOM     24  F   UNL     1       0.709   8.004  21.380  0.00  0.00    +0.000 F 
BRANCH  18  26
ATOM     25  C   UNL     1      -0.372  10.801  19.333  0.00  0.00    +0.000 C 
ATOM     26  O   UNL     1       0.892  10.479  19.905  0.00  0.00    +0.000 OA
ENDBRANCH  18  26
ENDBRANCH  17  22
ENDBRANCH   1  17
TORSDOF 5
ENDMDL
MODEL 4
REMARK VINA RESULT:      -7.1      1.194      2.038
REMARK  Name = 
REMARK  8 active torsions:
REMARK  status: ('A' for Active; 'I' for Inactive)
REMARK    1  A    between atoms: C_1  and  O_2
REMARK    2  A    between atoms: O_2  and  C_3
REMARK    3  A    between atoms: C_7  and  C_8
REMARK    4  A    between atoms: C_8  and  N_9
REMARK    5  A    between atoms: C_12  and  C_13
REMARK    6  A    between atoms: C_12  and  C_14
REMARK    7  A    between atoms: N_16  and  C_17
REMARK    8  A    between atoms: C_20  and  C_21
REMARK                            x       y       z     vdW  Elec       q    Type
REMARK                         _______ _______ _______ _____ _____    ______ ____
ROOT
ATOM      1  N   UNL     1       3.155   3.402  18.231  0.00  0.00    +0.000 NA
ATOM      2  C   UNL     1       2.387   2.233  17.760  0.00  0.00    +0.000 C 
ATOM      3  C   UNL     1       1.554   2.224  19.036  0.00  0.00    +0.000 C 
ATOM      4  C   UNL     1       2.460   3.361  19.570  0.00  0.00    +0.000 C 
ATOM      5  C   UNL     1       3.288   2.969  20.798  0.00  0.00    +0.000 C 
ENDROOT
BRANCH   4   6
ATOM      6  C   UNL     1       1.658   4.686  19.908  0.00  0.00    +0.000 C 
ATOM      7  O   UNL     1       0.555   4.645  20.460  0.00  0.00    +0.000 OA
ATOM      8  N   UNL     1       2.303   5.848  19.519  0.00  0.00    +0.000 N 
ATOM      9  H   UNL     1       3.103   5.707  18.911  0.00  0.00    +0.000 HD
BRANCH   8  10
ATOM     10  C   UNL     1       1.834   7.159  19.726  0.00  0.00    +0.000 A 
ATOM     11  C   UNL     1       1.809   8.120  18.713  0.00  0.00    +0.000 A 
ATOM     12  C   UNL     1       1.451   9.440  18.987  0.00  0.00    +0.000 A 
ATOM     13  C   UNL     1       1.096   9.816  20.282  0.00  0.00    +0.000 A 
ATOM     14  C   UNL     1       0.826  11.254  20.604  0.00  0.00    +0.000 C 
ATOM     15  C   UNL     1       1.044   8.838  21.283  0.00  0.00    +0.000 A 
ATOM     16  C   UNL     1       1.397   7.514  21.003  0.00  0.00    +0.000 A 
ENDBRANCH   8  10
ENDBRANCH   4   6
BRANCH   1  17
ATOM     17  C   UNL     1       4.589   3.070  18.301  0.00  0.00    +0.000 C 
BRANCH  17  22
ATOM     18  C   UNL     1       6.926   5.411  16.402  0.00  0.00    +0.000 A 
ATOM     19  C   UNL     1       7.425   6.214  17.424  0.00  0.00    +0.000 A 
ATOM     20  C   UNL     1       6.986   6.046  18.740  0.00  0.00    +0.000 A 
ATOM     21  C   UNL     1       6.053   5.050  19.050  0.00  0.00    +0.000 A 
ATOM     22  C   UNL     1       5.544   4.220  18.045  0.00  0.00    +0.000 A 
ATOM     23  C   UNL     1       6.003   4.410  16.725  0.00  0.00    +0.000 A 
ATOM     24  F   UNL     1       5.551   3.574  15.777  0.00  0.00    +0.000 F 
BRANCH  18  26
ATOM     25  C   UNL     1       7.030   4.781  14.123  0.00  0.00    +0.000 C 
ATOM     26  O   UNL     1       7.462   5.650  15.166  0.00  0.00    +0.000 OA
ENDBRANCH  18  26
ENDBRANCH  17  22
ENDBRANCH   1  17
TORSDOF 5
ENDMDL
MODEL 5
REMARK VINA RESULT:      -7.1      0.628      1.157
REMARK  Name = 
REMARK  8 active torsions:
REMARK  status: ('A' for Active; 'I' for Inactive)
REMARK    1  A    between atoms: C_1  and  O_2
REMARK    2  A    between atoms: O_2  and  C_3
REMARK    3  A    between atoms: C_7  and  C_8
REMARK    4  A    between atoms: C_8  and  N_9
REMARK    5  A    between atoms: C_12  and  C_13
REMARK    6  A    between atoms: C_12  and  C_14
REMARK    7  A    between atoms: N_16  and  C_17
REMARK    8  A    between atoms: C_20  and  C_21
REMARK                            x       y       z     vdW  Elec       q    Type
REMARK                         _______ _______ _______ _____ _____    ______ ____
ROOT
ATOM      1  N   UNL     1       3.089   3.401  18.059  0.00  0.00    +0.000 NA
ATOM      2  C   UNL     1       2.316   2.192  17.713  0.00  0.00    +0.000 C 
ATOM      3  C   UNL     1       1.623   2.207  19.070  0.00  0.00    +0.000 C 
ATOM      4  C   UNL     1       2.541   3.390  19.465  0.00  0.00    +0.000 C 
ATOM      5  C   UNL     1       3.506   3.071  20.611  0.00  0.00    +0.000 C 
ENDROOT
BRANCH   4   6
ATOM      6  C   UNL     1       1.734   4.702  19.840  0.00  0.00    +0.000 C 
ATOM      7  O   UNL     1       0.658   4.643  20.442  0.00  0.00    +0.000 OA
ATOM      8  N   UNL     1       2.341   5.874  19.422  0.00  0.00    +0.000 N 
ATOM      9  H   UNL     1       3.115   5.746  18.777  0.00  0.00    +0.000 HD
BRANCH   8  10
ATOM     10  C   UNL     1       1.861   7.177  19.651  0.00  0.00    +0.000 A 
ATOM     11  C   UNL     1       1.816   8.151  18.651  0.00  0.00    +0.000 A 
ATOM     12  C   UNL     1       1.448   9.463  18.946  0.00  0.00    +0.000 A 
ATOM     13  C   UNL     1       1.102   9.819  20.250  0.00  0.00    +0.000 A 
ATOM     14  C   UNL     1       0.820  11.250  20.594  0.00  0.00    +0.000 C 
ATOM     15  C   UNL     1       1.069   8.828  21.238  0.00  0.00    +0.000 A 
ATOM     16  C   UNL     1       1.434   7.511  20.936  0.00  0.00    +0.000 A 
ENDBRANCH   8  10
ENDBRANCH   4   6
BRANCH   1  17
ATOM     17  C   UNL     1       4.534   3.115  17.988  0.00  0.00    +0.000 C 
BRANCH  17  22
ATOM     18  C   UNL     1       6.369   6.147  16.576  0.00  0.00    +0.000 A 
ATOM     19  C   UNL     1       6.667   5.728  15.283  0.00  0.00    +0.000 A 
ATOM     20  C   UNL     1       6.321   4.445  14.852  0.00  0.00    +0.000 A 
ATOM     21  C   UNL     1       5.648   3.570  15.713  0.00  0.00    +0.000 A 
ATOM     22  C   UNL     1       5.325   3.969  17.015  0.00  0.00    +0.000 A 
ATOM     23  C   UNL     1       5.685   5.269  17.425  0.00  0.00    +0.000 A 
ATOM     24  F   UNL     1       5.322   5.662  18.656  0.00  0.00    +0.000 F 
BRANCH  18  26
ATOM     25  C   UNL     1       7.803   7.593  17.783  0.00  0.00    +0.000 C 
ATOM     26  O   UNL     1       6.726   7.436  16.863  0.00  0.00    +0.000 OA
ENDBRANCH  18  26
ENDBRANCH  17  22
ENDBRANCH   1  17
TORSDOF 5
ENDMDL
MODEL 6
REMARK VINA RESULT:      -7.1      0.972      1.040
REMARK  Name = 
REMARK  8 active torsions:
REMARK  status: ('A' for Active; 'I' for Inactive)
REMARK    1  A    between atoms: C_1  and  O_2
REMARK    2  A    between atoms: O_2  and  C_3
REMARK    3  A    between atoms: C_7  and  C_8
REMARK    4  A    between atoms: C_8  and  N_9
REMARK    5  A    between atoms: C_12  and  C_13
REMARK    6  A    between atoms: C_12  and  C_14
REMARK    7  A    between atoms: N_16  and  C_17
REMARK    8  A    between atoms: C_20  and  C_21
REMARK                            x       y       z     vdW  Elec       q    Type
REMARK                         _______ _______ _______ _____ _____    ______ ____
ROOT
ATOM      1  N   UNL     1       2.901   3.964  18.071  0.00  0.00    +0.000 NA
ATOM      2  C   UNL     1       1.834   2.978  17.808  0.00  0.00    +0.000 C 
ATOM      3  C   UNL     1       1.262   3.177  19.207  0.00  0.00    +0.000 C 
ATOM      4  C   UNL     1       2.467   4.102  19.510  0.00  0.00    +0.000 C 
ATOM      5  C   UNL     1       3.402   3.566  20.598  0.00  0.00    +0.000 C 
ENDROOT
BRANCH   4   6
ATOM      6  C   UNL     1       2.034   5.575  19.901  0.00  0.00    +0.000 C 
ATOM      7  O   UNL     1       1.566   5.833  21.014  0.00  0.00    +0.000 OA
ATOM      8  N   UNL     1       2.220   6.504  18.890  0.00  0.00    +0.000 N 
ATOM      9  H   UNL     1       2.429   6.105  17.981  0.00  0.00    +0.000 HD
BRANCH   8  10
ATOM     10  C   UNL     1       1.953   7.882  18.979  0.00  0.00    +0.000 A 
ATOM     11  C   UNL     1       1.325   8.460  20.086  0.00  0.00    +0.000 A 
ATOM     12  C   UNL     1       0.970   9.808  20.084  0.00  0.00    +0.000 A 
ATOM     13  C   UNL     1       1.253  10.607  18.976  0.00  0.00    +0.000 A 
ATOM     14  C   UNL     1       0.769  12.024  18.923  0.00  0.00    +0.000 C 
ATOM     15  C   UNL     1       1.953  10.051  17.899  0.00  0.00    +0.000 A 
ATOM     16  C   UNL     1       2.313   8.699  17.907  0.00  0.00    +0.000 A 
ENDBRANCH   8  10
ENDBRANCH   4   6
BRANCH   1  17
ATOM     17  C   UNL     1       4.224   3.330  17.914  0.00  0.00    +0.000 C 
BRANCH  17  22
ATOM     18  C   UNL     1       6.542   6.101  16.688  0.00  0.00    +0.000 A 
ATOM     19  C   UNL     1       6.913   5.632  15.431  0.00  0.00    +0.000 A 
ATOM     20  C   UNL     1       6.459   4.394  14.970  0.00  0.00    +0.000 A 
ATOM     21  C   UNL     1       5.604   3.618  15.761  0.00  0.00    +0.000 A 
ATOM     22  C   UNL     1       5.205   4.069  17.023  0.00  0.00    +0.000 A 
ATOM     23  C   UNL     1       5.676   5.323  17.465  0.00  0.00    +0.000 A 
ATOM     24  F   UNL     1       5.244   5.773  18.654  0.00  0.00    +0.000 F 
BRANCH  18  26
ATOM     25  C   UNL     1       7.965   7.388  18.073  0.00  0.00    +0.000 C 
ATOM     26  O   UNL     1       7.021   7.341  17.007  0.00  0.00    +0.000 OA
ENDBRANCH  18  26
ENDBRANCH  17  22
ENDBRANCH   1  17
TORSDOF 5
ENDMDL
MODEL 7
REMARK VINA RESULT:      -7.0      2.872      7.581
REMARK  Name = 
REMARK  8 active torsions:
REMARK  status: ('A' for Active; 'I' for Inactive)
REMARK    1  A    between atoms: C_1  and  O_2
REMARK    2  A    between atoms: O_2  and  C_3
REMARK    3  A    between atoms: C_7  and  C_8
REMARK    4  A    between atoms: C_8  and  N_9
REMARK    5  A    between atoms: C_12  and  C_13
REMARK    6  A    between atoms: C_12  and  C_14
REMARK    7  A    between atoms: N_16  and  C_17
REMARK    8  A    between atoms: C_20  and  C_21
REMARK                            x       y       z     vdW  Elec       q    Type
REMARK                         _______ _______ _______ _____ _____    ______ ____
ROOT
ATOM      1  N   UNL     1       4.941   6.423  17.407  0.00  0.00    +0.000 NA
ATOM      2  C   UNL     1       5.340   7.844  17.420  0.00  0.00    +0.000 C 
ATOM      3  C   UNL     1       6.816   7.463  17.394  0.00  0.00    +0.000 C 
ATOM      4  C   UNL     1       6.379   5.982  17.519  0.00  0.00    +0.000 C 
ATOM      5  C   UNL     1       6.827   5.312  18.822  0.00  0.00    +0.000 C 
ENDROOT
BRANCH   4   6
ATOM      6  C   UNL     1       6.864   5.088  16.303  0.00  0.00    +0.000 C 
ATOM      7  O   UNL     1       7.860   4.365  16.395  0.00  0.00    +0.000 OA
ATOM      8  N   UNL     1       6.083   5.213  15.166  0.00  0.00    +0.000 N 
ATOM      9  H   UNL     1       5.423   5.985  15.187  0.00  0.00    +0.000 HD
BRANCH   8  10
ATOM     10  C   UNL     1       6.266   4.513  13.960  0.00  0.00    +0.000 A 
ATOM     11  C   UNL     1       5.386   3.521  13.522  0.00  0.00    +0.000 A 
ATOM     12  C   UNL     1       5.667   2.766  12.383  0.00  0.00    +0.000 A 
ATOM     13  C   UNL     1       6.830   3.006  11.652  0.00  0.00    +0.000 A 
ATOM     14  C   UNL     1       7.193   2.122  10.499  0.00  0.00    +0.000 C 
ATOM     15  C   UNL     1       7.674   4.052  12.043  0.00  0.00    +0.000 A 
ATOM     16  C   UNL     1       7.386   4.811  13.183  0.00  0.00    +0.000 A 
ENDBRANCH   8  10
ENDBRANCH   4   6
BRANCH   1  17
ATOM     17  C   UNL     1       4.135   6.113  18.602  0.00  0.00    +0.000 C 
BRANCH  17  22
ATOM     18  C   UNL     1       1.610   3.438  19.614  0.00  0.00    +0.000 A 
ATOM     19  C   UNL     1       1.650   2.576  18.523  0.00  0.00    +0.000 A 
ATOM     20  C   UNL     1       2.459   2.859  17.420  0.00  0.00    +0.000 A 
ATOM     21  C   UNL     1       3.258   4.008  17.409  0.00  0.00    +0.000 A 
ATOM     22  C   UNL     1       3.247   4.887  18.497  0.00  0.00    +0.000 A 
ATOM     23  C   UNL     1       2.423   4.578  19.598  0.00  0.00    +0.000 A 
ATOM     24  F   UNL     1       2.460   5.398  20.661  0.00  0.00    +0.000 F 
BRANCH  18  26
ATOM     25  C   UNL     1       1.483   2.536  21.799  0.00  0.00    +0.000 C 
ATOM     26  O   UNL     1       0.809   3.031  20.645  0.00  0.00    +0.000 OA
ENDBRANCH  18  26
ENDBRANCH  17  22
ENDBRANCH   1  17
TORSDOF 5
ENDMDL
MODEL 8
REMARK VINA RESULT:      -6.8      0.781      1.269
REMARK  Name = 
REMARK  8 active torsions:
REMARK  status: ('A' for Active; 'I' for Inactive)
REMARK    1  A    between atoms: C_1  and  O_2
REMARK    2  A    between atoms: O_2  and  C_3
REMARK    3  A    between atoms: C_7  and  C_8
REMARK    4  A    between atoms: C_8  and  N_9
REMARK    5  A    between atoms: C_12  and  C_13
REMARK    6  A    between atoms: C_12  and  C_14
REMARK    7  A    between atoms: N_16  and  C_17
REMARK    8  A    between atoms: C_20  and  C_21
REMARK                            x       y       z     vdW  Elec       q    Type
REMARK                         _______ _______ _______ _____ _____    ______ ____
ROOT
ATOM      1  N   UNL     1       2.836   3.799  18.313  0.00  0.00    +0.000 NA
ATOM      2  C   UNL     1       1.821   2.748  18.101  0.00  0.00    +0.000 C 
ATOM      3  C   UNL     1       1.187   3.041  19.456  0.00  0.00    +0.000 C 
ATOM      4  C   UNL     1       2.340   4.042  19.717  0.00  0.00    +0.000 C 
ATOM      5  C   UNL     1       3.254   3.645  20.881  0.00  0.00    +0.000 C 
ENDROOT
BRANCH   4   6
ATOM      6  C   UNL     1       1.832   5.523  19.961  0.00  0.00    +0.000 C 
ATOM      7  O   UNL     1       1.179   5.821  20.966  0.00  0.00    +0.000 OA
ATOM      8  N   UNL     1       2.177   6.409  18.954  0.00  0.00    +0.000 N 
ATOM      9  H   UNL     1       2.542   5.975  18.113  0.00  0.00    +0.000 HD
BRANCH   8  10
ATOM     10  C   UNL     1       1.885   7.785  18.933  0.00  0.00    +0.000 A 
ATOM     11  C   UNL     1       2.135   8.593  17.820  0.00  0.00    +0.000 A 
ATOM     12  C   UNL     1       1.944   9.973  17.880  0.00  0.00    +0.000 A 
ATOM     13  C   UNL     1       1.481  10.568  19.054  0.00  0.00    +0.000 A 
ATOM     14  C   UNL     1       1.387  12.059  19.160  0.00  0.00    +0.000 C 
ATOM     15  C   UNL     1       1.154   9.752  20.144  0.00  0.00    +0.000 A 
ATOM     16  C   UNL     1       1.341   8.367  20.079  0.00  0.00    +0.000 A 
ENDBRANCH   8  10
ENDBRANCH   4   6
BRANCH   1  17
ATOM     17  C   UNL     1       4.188   3.214  18.258  0.00  0.00    +0.000 C 
BRANCH  17  22
ATOM     18  C   UNL     1       6.960   5.750  17.595  0.00  0.00    +0.000 A 
ATOM     19  C   UNL     1       7.084   5.687  16.210  0.00  0.00    +0.000 A 
ATOM     20  C   UNL     1       6.307   4.795  15.466  0.00  0.00    +0.000 A 
ATOM     21  C   UNL     1       5.377   3.968  16.104  0.00  0.00    +0.000 A 
ATOM     22  C   UNL     1       5.222   4.018  17.493  0.00  0.00    +0.000 A 
ATOM     23  C   UNL     1       6.017   4.927  18.222  0.00  0.00    +0.000 A 
ATOM     24  F   UNL     1       5.823   5.008  19.548  0.00  0.00    +0.000 F 
BRANCH  18  26
ATOM     25  C   UNL     1       7.742   7.984  17.612  0.00  0.00    +0.000 C 
ATOM     26  O   UNL     1       7.747   6.688  18.204  0.00  0.00    +0.000 OA
ENDBRANCH  18  26
ENDBRANCH  17  22
ENDBRANCH   1  17
TORSDOF 5
ENDMDL
MODEL 9
REMARK VINA RESULT:      -6.7      1.506      1.925
REMARK  Name = 
REMARK  8 active torsions:
REMARK  status: ('A' for Active; 'I' for Inactive)
REMARK    1  A    between atoms: C_1  and  O_2
REMARK    2  A    between atoms: O_2  and  C_3
REMARK    3  A    between atoms: C_7  and  C_8
REMARK    4  A    between atoms: C_8  and  N_9
REMARK    5  A    between atoms: C_12  and  C_13
REMARK    6  A    between atoms: C_12  and  C_14
REMARK    7  A    between atoms: N_16  and  C_17
REMARK    8  A    between atoms: C_20  and  C_21
REMARK                            x       y       z     vdW  Elec       q    Type
REMARK                         _______ _______ _______ _____ _____    ______ ____
ROOT
ATOM      1  N   UNL     1       2.741   3.524  18.010  0.00  0.00    +0.000 NA
ATOM      2  C   UNL     1       1.873   2.330  18.036  0.00  0.00    +0.000 C 
ATOM      3  C   UNL     1       1.914   2.294  19.559  0.00  0.00    +0.000 C 
ATOM      4  C   UNL     1       2.933   3.460  19.505  0.00  0.00    +0.000 C 
ATOM      5  C   UNL     1       4.322   3.094  20.037  0.00  0.00    +0.000 C 
ENDROOT
BRANCH   4   6
ATOM      6  C   UNL     1       2.430   4.757  20.264  0.00  0.00    +0.000 C 
ATOM      7  O   UNL     1       2.219   4.748  21.480  0.00  0.00    +0.000 OA
ATOM      8  N   UNL     1       2.252   5.856  19.441  0.00  0.00    +0.000 N 
ATOM      9  H   UNL     1       2.281   5.652  18.447  0.00  0.00    +0.000 HD
BRANCH   8  10
ATOM     10  C   UNL     1       1.848   7.138  19.856  0.00  0.00    +0.000 A 
ATOM     11  C   UNL     1       1.355   7.397  21.138  0.00  0.00    +0.000 A 
ATOM     12  C   UNL     1       0.853   8.654  21.471  0.00  0.00    +0.000 A 
ATOM     13  C   UNL     1       0.849   9.682  20.528  0.00  0.00    +0.000 A 
ATOM     14  C   UNL     1       0.204  10.996  20.845  0.00  0.00    +0.000 C 
ATOM     15  C   UNL     1       1.414   9.449  19.268  0.00  0.00    +0.000 A 
ATOM     16  C   UNL     1       1.923   8.187  18.939  0.00  0.00    +0.000 A 
ENDBRANCH   8  10
ENDBRANCH   4   6
BRANCH   1  17
ATOM     17  C   UNL     1       3.969   3.238  17.246  0.00  0.00    +0.000 C 
BRANCH  17  22
ATOM     18  C   UNL     1       6.717   5.298  15.584  0.00  0.00    +0.000 A 
ATOM     19  C   UNL     1       6.530   6.550  16.162  0.00  0.00    +0.000 A 
ATOM     20  C   UNL     1       5.487   6.768  17.067  0.00  0.00    +0.000 A 
ATOM     21  C   UNL     1       4.630   5.720  17.420  0.00  0.00    +0.000 A 
ATOM     22  C   UNL     1       4.802   4.447  16.864  0.00  0.00    +0.000 A 
ATOM     23  C   UNL     1       5.862   4.253  15.955  0.00  0.00    +0.000 A 
ATOM     24  F   UNL     1       6.054   3.017  15.468  0.00  0.00    +0.000 F 
BRANCH  18  26
ATOM     25  C   UNL     1       7.492   5.003  13.367  0.00  0.00    +0.000 C 
ATOM     26  O   UNL     1       7.793   5.204  14.745  0.00  0.00    +0.000 OA
ENDBRANCH  18  26
ENDBRANCH  17  22
ENDBRANCH   1  17
TORSDOF 5
ENDMDL
