MODEL 1
REMARK VINA RESULT:      -7.7      0.000      0.000
REMARK  Name = 
REMARK  5 active torsions:
REMARK  status: ('A' for Active; 'I' for Inactive)
REMARK    1  A    between atoms: N_1  and  C_2
REMARK    2  A    between atoms: C_5  and  N_6
REMARK    3  A    between atoms: N_6  and  C_7
REMARK    4  A    between atoms: C_9  and  C_10
REMARK    5  A    between atoms: C_13  and  C_14
REMARK                            x       y       z     vdW  Elec       q    Type
REMARK                         _______ _______ _______ _____ _____    ______ ____
ROOT
ATOM      1  C   UNL     1       5.338   5.784  18.480  0.00  0.00    +0.000 C 
ATOM      2  C   UNL     1       6.794   6.124  18.412  0.00  0.00    +0.000 C 
ATOM      3  C   UNL     1       6.322   4.784  17.903  0.00  0.00    +0.000 C 
ENDROOT
BRANCH   3   4
ATOM      4  C   UNL     1       6.381   4.484  16.424  0.00  0.00    +0.000 A 
ATOM      5  C   UNL     1       5.405   3.676  15.821  0.00  0.00    +0.000 A 
ATOM      6  C   UNL     1       5.409   3.419  14.447  0.00  0.00    +0.000 A 
ATOM      7  C   UNL     1       6.398   3.972  13.625  0.00  0.00    +0.000 A 
ATOM      8  C   UNL     1       7.377   4.787  14.211  0.00  0.00    +0.000 A 
ATOM      9  C   UNL     1       7.361   5.040  15.588  0.00  0.00    +0.000 A 
BRANCH   7  10
ATOM     10  C   UNL     1       6.417   3.705  12.140  0.00  0.00    +0.000 C 
ATOM     11  F   UNL     1       5.184   3.740  11.562  0.00  0.00    +0.000 F 
ATOM     12  F   UNL     1       7.173   4.610  11.456  0.00  0.00    +0.000 F 
ATOM     13  F   UNL     1       6.934   2.483  11.836  0.00  0.00    +0.000 F 
ENDBRANCH   7  10
ENDBRANCH   3   4
BRANCH   1  14
ATOM     14  N   UNL     1       4.689   5.424  19.749  0.00  0.00    +0.000 NA
ATOM     15  H   UNL     1       5.316   4.858  20.322  0.00  0.00    +0.000 HD
BRANCH  14  19
ATOM     16  C   UNL     1       1.664   2.643  18.463  0.00  0.00    +0.000 C 
ATOM     17  C   UNL     1       1.457   4.120  18.119  0.00  0.00    +0.000 C 
ATOM     18  C   UNL     1       2.764   4.905  18.237  0.00  0.00    +0.000 C 
ATOM     19  C   UNL     1       3.380   4.770  19.638  0.00  0.00    +0.000 C 
ATOM     20  C   UNL     1       3.564   3.285  20.004  0.00  0.00    +0.000 C 
ATOM     21  C   UNL     1       2.267   2.487  19.861  0.00  0.00    +0.000 C 
BRANCH  16  22
ATOM     22  N   UNL     1       0.399   1.914  18.387  0.00  0.00    +0.000 NA
ATOM     23  H   UNL     1       0.214   1.642  17.422  0.00  0.00    +0.000 HD
ATOM     24  H   UNL     1      -0.373   2.521  18.662  0.00  0.00    +0.000 HD
ENDBRANCH  16  22
ENDBRANCH  14  19
ENDBRANCH   1  14
TORSDOF 5
ENDMDL
MODEL 2
REMARK VINA RESULT:      -7.6      0.070      1.327
REMARK  Name = 
REMARK  5 active torsions:
REMARK  status: ('A' for Active; 'I' for Inactive)
REMARK    1  A    between atoms: N_1  and  C_2
REMARK    2  A    between atoms: C_5  and  N_6
REMARK    3  A    between atoms: N_6  and  C_7
REMARK    4  A    between atoms: C_9  and  C_10
REMARK    5  A    between atoms: C_13  and  C_14
REMARK                            x       y       z     vdW  Elec       q    Type
REMARK                         _______ _______ _______ _____ _____    ______ ____
ROOT
ATOM      1  C   UNL     1       5.312   5.787  18.500  0.00  0.00    +0.000 C 
ATOM      2  C   UNL     1       6.774   6.098  18.416  0.00  0.00    +0.000 C 
ATOM      3  C   UNL     1       6.263   4.788  17.869  0.00  0.00    +0.000 C 
ENDROOT
BRANCH   3   4
ATOM      4  C   UNL     1       6.287   4.540  16.380  0.00  0.00    +0.000 A 
ATOM      5  C   UNL     1       7.328   5.050  15.589  0.00  0.00    +0.000 A 
ATOM      6  C   UNL     1       7.401   4.797  14.215  0.00  0.00    +0.000 A 
ATOM      7  C   UNL     1       6.425   4.015  13.586  0.00  0.00    +0.000 A 
ATOM      8  C   UNL     1       5.382   3.492  14.363  0.00  0.00    +0.000 A 
ATOM      9  C   UNL     1       5.322   3.750  15.739  0.00  0.00    +0.000 A 
BRANCH   7  10
ATOM     10  C   UNL     1       6.488   3.731  12.106  0.00  0.00    +0.000 C 
ATOM     11  F   UNL     1       7.208   4.651  11.403  0.00  0.00    +0.000 F 
ATOM     12  F   UNL     1       7.057   2.525  11.828  0.00  0.00    +0.000 F 
ATOM     13  F   UNL     1       5.256   3.704  11.527  0.00  0.00    +0.000 F 
ENDBRANCH   7  10
ENDBRANCH   3   4
BRANCH   1  14
ATOM     14  N   UNL     1       4.679   5.395  19.768  0.00  0.00    +0.000 NA
ATOM     15  H   UNL     1       5.314   4.816  20.319  0.00  0.00    +0.000 HD
BRANCH  14  19
ATOM     16  C   UNL     1       1.643   2.633  18.467  0.00  0.00    +0.000 C 
ATOM     17  C   UNL     1       1.435   4.115  18.144  0.00  0.00    +0.000 C 
ATOM     18  C   UNL     1       2.743   4.898  18.263  0.00  0.00    +0.000 C 
ATOM     19  C   UNL     1       3.369   4.743  19.658  0.00  0.00    +0.000 C 
ATOM     20  C   UNL     1       3.555   3.254  20.003  0.00  0.00    +0.000 C 
ATOM     21  C   UNL     1       2.257   2.458  19.858  0.00  0.00    +0.000 C 
BRANCH  16  22
ATOM     22  N   UNL     1       0.378   1.905  18.390  0.00  0.00    +0.000 NA
ATOM     23  H   UNL     1      -0.188   2.108  19.213  0.00  0.00    +0.000 HD
ATOM     24  H   UNL     1       0.551   0.900  18.407  0.00  0.00    +0.000 HD
ENDBRANCH  16  22
ENDBRANCH  14  19
ENDBRANCH   1  14
TORSDOF 5
ENDMDL
MODEL 3
REMARK VINA RESULT:      -7.3      4.378      6.843
REMARK  Name = 
REMARK  5 active torsions:
REMARK  status: ('A' for Active; 'I' for Inactive)
REMARK    1  A    between atoms: N_1  and  C_2
REMARK    2  A    between atoms: C_5  and  N_6
REMARK    3  A    between atoms: N_6  and  C_7
REMARK    4  A    between atoms: C_9  and  C_10
REMARK    5  A    between atoms: C_13  and  C_14
REMARK                            x       y       z     vdW  Elec       q    Type
REMARK                         _______ _______ _______ _____ _____    ______ ____
ROOT
ATOM      1  C   UNL     1       6.956   4.912  16.813  0.00  0.00    +0.000 C 
ATOM      2  C   UNL     1       7.321   5.404  18.180  0.00  0.00    +0.000 C 
ATOM      3  C   UNL     1       5.958   5.723  17.617  0.00  0.00    +0.000 C 
ENDROOT
BRANCH   3   4
ATOM      4  C   UNL     1       4.729   5.096  18.232  0.00  0.00    +0.000 A 
ATOM      5  C   UNL     1       3.447   5.471  17.803  0.00  0.00    +0.000 A 
ATOM      6  C   UNL     1       2.293   4.874  18.322  0.00  0.00    +0.000 A 
ATOM      7  C   UNL     1       2.391   3.872  19.294  0.00  0.00    +0.000 A 
ATOM      8  C   UNL     1       3.665   3.481  19.729  0.00  0.00    +0.000 A 
ATOM      9  C   UNL     1       4.813   4.084  19.199  0.00  0.00    +0.000 A 
BRANCH   7  10
ATOM     10  C   UNL     1       1.157   3.216  19.865  0.00  0.00    +0.000 C 
ATOM     11  F   UNL     1       1.425   2.297  20.835  0.00  0.00    +0.000 F 
ATOM     12  F   UNL     1       0.302   4.114  20.431  0.00  0.00    +0.000 F 
ATOM     13  F   UNL     1       0.432   2.557  18.919  0.00  0.00    +0.000 F 
ENDBRANCH   7  10
ENDBRANCH   3   4
BRANCH   1  14
ATOM     14  N   UNL     1       7.499   5.537  15.599  0.00  0.00    +0.000 NA
ATOM     15  H   UNL     1       7.543   6.550  15.709  0.00  0.00    +0.000 HD
BRANCH  14  19
ATOM     16  C   UNL     1       6.080   3.168  12.296  0.00  0.00    +0.000 C 
ATOM     17  C   UNL     1       7.060   4.300  11.983  0.00  0.00    +0.000 C 
ATOM     18  C   UNL     1       7.800   4.758  13.241  0.00  0.00    +0.000 C 
ATOM     19  C   UNL     1       6.823   5.195  14.343  0.00  0.00    +0.000 C 
ATOM     20  C   UNL     1       5.813   4.071  14.644  0.00  0.00    +0.000 C 
ATOM     21  C   UNL     1       5.090   3.587  13.386  0.00  0.00    +0.000 C 
BRANCH  16  22
ATOM     22  N   UNL     1       5.350   2.768  11.094  0.00  0.00    +0.000 NA
ATOM     23  H   UNL     1       6.005   2.443  10.384  0.00  0.00    +0.000 HD
ATOM     24  H   UNL     1       4.874   3.574  10.690  0.00  0.00    +0.000 HD
ENDBRANCH  16  22
ENDBRANCH  14  19
ENDBRANCH   1  14
TORSDOF 5
ENDMDL
MODEL 4
REMARK VINA RESULT:      -7.1      4.439      6.917
REMARK  Name = 
REMARK  5 active torsions:
REMARK  status: ('A' for Active; 'I' for Inactive)
REMARK    1  A    between atoms: N_1  and  C_2
REMARK    2  A    between atoms: C_5  and  N_6
REMARK    3  A    between atoms: N_6  and  C_7
REMARK    4  A    between atoms: C_9  and  C_10
REMARK    5  A    between atoms: C_13  and  C_14
REMARK                            x       y       z     vdW  Elec       q    Type
REMARK                         _______ _______ _______ _____ _____    ______ ____
ROOT
ATOM      1  C   UNL     1       6.928   5.027  16.830  0.00  0.00    +0.000 C 
ATOM      2  C   UNL     1       7.248   5.574  18.186  0.00  0.00    +0.000 C 
ATOM      3  C   UNL     1       5.890   5.835  17.584  0.00  0.00    +0.000 C 
ENDROOT
BRANCH   3   4
ATOM      4  C   UNL     1       4.666   5.194  18.194  0.00  0.00    +0.000 A 
ATOM      5  C   UNL     1       4.793   4.265  19.238  0.00  0.00    +0.000 A 
ATOM      6  C   UNL     1       3.676   3.690  19.851  0.00  0.00    +0.000 A 
ATOM      7  C   UNL     1       2.384   4.034  19.436  0.00  0.00    +0.000 A 
ATOM      8  C   UNL     1       2.240   4.966  18.399  0.00  0.00    +0.000 A 
ATOM      9  C   UNL     1       3.366   5.537  17.794  0.00  0.00    +0.000 A 
BRANCH   7  10
ATOM     10  C   UNL     1       1.167   3.424  20.087  0.00  0.00    +0.000 C 
ATOM     11  F   UNL     1       1.456   2.659  21.177  0.00  0.00    +0.000 F 
ATOM     12  F   UNL     1       0.278   4.363  20.518  0.00  0.00    +0.000 F 
ATOM     13  F   UNL     1       0.472   2.615  19.240  0.00  0.00    +0.000 F 
ENDBRANCH   7  10
ENDBRANCH   3   4
BRANCH   1  14
ATOM     14  N   UNL     1       7.481   5.627  15.608  0.00  0.00    +0.000 NA
ATOM     15  H   UNL     1       7.522   6.643  15.696  0.00  0.00    +0.000 HD
BRANCH  14  19
ATOM     16  C   UNL     1       6.127   3.192  12.325  0.00  0.00    +0.000 C 
ATOM     17  C   UNL     1       7.081   4.344  12.003  0.00  0.00    +0.000 C 
ATOM     18  C   UNL     1       7.806   4.831  13.258  0.00  0.00    +0.000 C 
ATOM     19  C   UNL     1       6.816   5.256  14.353  0.00  0.00    +0.000 C 
ATOM     20  C   UNL     1       5.832   4.112  14.663  0.00  0.00    +0.000 C 
ATOM     21  C   UNL     1       5.124   3.599  13.408  0.00  0.00    +0.000 C 
BRANCH  16  22
ATOM     22  N   UNL     1       5.410   2.763  11.125  0.00  0.00    +0.000 NA
ATOM     23  H   UNL     1       4.716   3.464  10.869  0.00  0.00    +0.000 HD
ATOM     24  H   UNL     1       4.890   1.907  11.315  0.00  0.00    +0.000 HD
ENDBRANCH  16  22
ENDBRANCH  14  19
ENDBRANCH   1  14
TORSDOF 5
ENDMDL
MODEL 5
REMARK VINA RESULT:      -7.1      4.568      7.008
REMARK  Name = 
REMARK  5 active torsions:
REMARK  status: ('A' for Active; 'I' for Inactive)
REMARK    1  A    between atoms: N_1  and  C_2
REMARK    2  A    between atoms: C_5  and  N_6
REMARK    3  A    between atoms: N_6  and  C_7
REMARK    4  A    between atoms: C_9  and  C_10
REMARK    5  A    between atoms: C_13  and  C_14
REMARK                            x       y       z     vdW  Elec       q    Type
REMARK                         _______ _______ _______ _____ _____    ______ ____
ROOT
ATOM      1  C   UNL     1       6.985   4.958  16.934  0.00  0.00    +0.000 C 
ATOM      2  C   UNL     1       7.518   5.296  18.292  0.00  0.00    +0.000 C 
ATOM      3  C   UNL     1       6.141   5.771  17.898  0.00  0.00    +0.000 C 
ENDROOT
BRANCH   3   4
ATOM      4  C   UNL     1       4.927   5.191  18.582  0.00  0.00    +0.000 A 
ATOM      5  C   UNL     1       4.964   3.898  19.125  0.00  0.00    +0.000 A 
ATOM      6  C   UNL     1       3.869   3.353  19.804  0.00  0.00    +0.000 A 
ATOM      7  C   UNL     1       2.693   4.096  19.963  0.00  0.00    +0.000 A 
ATOM      8  C   UNL     1       2.642   5.392  19.432  0.00  0.00    +0.000 A 
ATOM      9  C   UNL     1       3.746   5.928  18.757  0.00  0.00    +0.000 A 
BRANCH   7  10
ATOM     10  C   UNL     1       1.503   3.524  20.693  0.00  0.00    +0.000 C 
ATOM     11  F   UNL     1       0.381   4.292  20.596  0.00  0.00    +0.000 F 
ATOM     12  F   UNL     1       1.148   2.292  20.232  0.00  0.00    +0.000 F 
ATOM     13  F   UNL     1       1.733   3.370  22.027  0.00  0.00    +0.000 F 
ENDBRANCH   7  10
ENDBRANCH   3   4
BRANCH   1  14
ATOM     14  N   UNL     1       7.464   5.644  15.726  0.00  0.00    +0.000 NA
ATOM     15  H   UNL     1       7.439   6.656  15.857  0.00  0.00    +0.000 HD
BRANCH  14  19
ATOM     16  C   UNL     1       6.079   3.225  12.444  0.00  0.00    +0.000 C 
ATOM     17  C   UNL     1       7.043   4.369  12.121  0.00  0.00    +0.000 C 
ATOM     18  C   UNL     1       7.776   4.848  13.375  0.00  0.00    +0.000 C 
ATOM     19  C   UNL     1       6.792   5.281  14.472  0.00  0.00    +0.000 C 
ATOM     20  C   UNL     1       5.799   4.146  14.783  0.00  0.00    +0.000 C 
ATOM     21  C   UNL     1       5.083   3.641  13.530  0.00  0.00    +0.000 C 
BRANCH  16  22
ATOM     22  N   UNL     1       5.355   2.805  11.245  0.00  0.00    +0.000 NA
ATOM     23  H   UNL     1       5.504   1.810  11.083  0.00  0.00    +0.000 HD
ATOM     24  H   UNL     1       5.728   3.283  10.426  0.00  0.00    +0.000 HD
ENDBRANCH  16  22
ENDBRANCH  14  19
ENDBRANCH   1  14
TORSDOF 5
ENDMDL
MODEL 6
REMARK VINA RESULT:      -7.1      0.573      1.026
REMARK  Name = 
REMARK  5 active torsions:
REMARK  status: ('A' for Active; 'I' for Inactive)
REMARK    1  A    between atoms: N_1  and  C_2
REMARK    2  A    between atoms: C_5  and  N_6
REMARK    3  A    between atoms: N_6  and  C_7
REMARK    4  A    between atoms: C_9  and  C_10
REMARK    5  A    between atoms: C_13  and  C_14
REMARK                            x       y       z     vdW  Elec       q    Type
REMARK                         _______ _______ _______ _____ _____    ______ ____
ROOT
ATOM      1  C   UNL     1       5.152   6.088  18.194  0.00  0.00    +0.000 C 
ATOM      2  C   UNL     1       6.606   6.444  18.153  0.00  0.00    +0.000 C 
ATOM      3  C   UNL     1       6.167   5.069  17.711  0.00  0.00    +0.000 C 
ENDROOT
BRANCH   3   4
ATOM      4  C   UNL     1       6.279   4.681  16.256  0.00  0.00    +0.000 A 
ATOM      5  C   UNL     1       5.286   3.897  15.649  0.00  0.00    +0.000 A 
ATOM      6  C   UNL     1       5.340   3.561  14.293  0.00  0.00    +0.000 A 
ATOM      7  C   UNL     1       6.400   4.007  13.494  0.00  0.00    +0.000 A 
ATOM      8  C   UNL     1       7.397   4.797  14.083  0.00  0.00    +0.000 A 
ATOM      9  C   UNL     1       7.330   5.129  15.442  0.00  0.00    +0.000 A 
BRANCH   7  10
ATOM     10  C   UNL     1       6.475   3.654  12.029  0.00  0.00    +0.000 C 
ATOM     11  F   UNL     1       7.081   2.458  11.784  0.00  0.00    +0.000 F 
ATOM     12  F   UNL     1       5.245   3.572  11.447  0.00  0.00    +0.000 F 
ATOM     13  F   UNL     1       7.168   4.576  11.305  0.00  0.00    +0.000 F 
ENDBRANCH   7  10
ENDBRANCH   3   4
BRANCH   1  14
ATOM     14  N   UNL     1       4.466   5.796  19.460  0.00  0.00    +0.000 NA
ATOM     15  H   UNL     1       5.037   5.181  20.041  0.00  0.00    +0.000 HD
BRANCH  14  19
ATOM     16  C   UNL     1       1.274   2.928  19.114  0.00  0.00    +0.000 C 
ATOM     17  C   UNL     1       1.468   3.911  17.957  0.00  0.00    +0.000 C 
ATOM     18  C   UNL     1       2.855   4.555  18.004  0.00  0.00    +0.000 C 
ATOM     19  C   UNL     1       3.104   5.261  19.345  0.00  0.00    +0.000 C 
ATOM     20  C   UNL     1       2.882   4.287  20.517  0.00  0.00    +0.000 C 
ATOM     21  C   UNL     1       1.508   3.616  20.462  0.00  0.00    +0.000 C 
BRANCH  16  22
ATOM     22  N   UNL     1      -0.069   2.351  19.082  0.00  0.00    +0.000 NA
ATOM     23  H   UNL     1      -0.758   3.086  18.924  0.00  0.00    +0.000 HD
ATOM     24  H   UNL     1      -0.296   1.942  19.988  0.00  0.00    +0.000 HD
ENDBRANCH  16  22
ENDBRANCH  14  19
ENDBRANCH   1  14
TORSDOF 5
ENDMDL
MODEL 7
REMARK VINA RESULT:      -7.0      5.258      7.524
REMARK  Name = 
REMARK  5 active torsions:
REMARK  status: ('A' for Active; 'I' for Inactive)
REMARK    1  A    between atoms: N_1  and  C_2
REMARK    2  A    between atoms: C_5  and  N_6
REMARK    3  A    between atoms: N_6  and  C_7
REMARK    4  A    between atoms: C_9  and  C_10
REMARK    5  A    between atoms: C_13  and  C_14
REMARK                            x       y       z     vdW  Elec       q    Type
REMARK                         _______ _______ _______ _____ _____    ______ ____
ROOT
ATOM      1  C   UNL     1       2.516   4.365  19.367  0.00  0.00    +0.000 C 
ATOM      2  C   UNL     1       1.518   4.408  20.482  0.00  0.00    +0.000 C 
ATOM      3  C   UNL     1       2.522   5.526  20.343  0.00  0.00    +0.000 C 
ENDROOT
BRANCH   3   4
ATOM      4  C   UNL     1       2.055   6.906  19.946  0.00  0.00    +0.000 A 
ATOM      5  C   UNL     1       1.356   7.711  20.858  0.00  0.00    +0.000 A 
ATOM      6  C   UNL     1       0.951   9.010  20.533  0.00  0.00    +0.000 A 
ATOM      7  C   UNL     1       1.240   9.548  19.273  0.00  0.00    +0.000 A 
ATOM      8  C   UNL     1       1.944   8.759  18.353  0.00  0.00    +0.000 A 
ATOM      9  C   UNL     1       2.347   7.461  18.691  0.00  0.00    +0.000 A 
BRANCH   7  10
ATOM     10  C   UNL     1       0.812  10.948  18.906  0.00  0.00    +0.000 C 
ATOM     11  F   UNL     1       0.504  11.726  19.982  0.00  0.00    +0.000 F 
ATOM     12  F   UNL     1       1.775  11.626  18.221  0.00  0.00    +0.000 F 
ATOM     13  F   UNL     1      -0.293  10.963  18.110  0.00  0.00    +0.000 F 
ENDBRANCH   7  10
ENDBRANCH   3   4
BRANCH   1  14
ATOM     14  N   UNL     1       3.672   3.458  19.403  0.00  0.00    +0.000 NA
ATOM     15  H   UNL     1       4.120   3.488  20.320  0.00  0.00    +0.000 HD
BRANCH  14  19
ATOM     16  C   UNL     1       6.256   5.475  16.611  0.00  0.00    +0.000 C 
ATOM     17  C   UNL     1       5.165   4.569  16.036  0.00  0.00    +0.000 C 
ATOM     18  C   UNL     1       4.081   4.278  17.075  0.00  0.00    +0.000 C 
ATOM     19  C   UNL     1       4.673   3.650  18.346  0.00  0.00    +0.000 C 
ATOM     20  C   UNL     1       5.793   4.541  18.916  0.00  0.00    +0.000 C 
ATOM     21  C   UNL     1       6.866   4.861  17.875  0.00  0.00    +0.000 C 
BRANCH  16  22
ATOM     22  N   UNL     1       7.306   5.712  15.622  0.00  0.00    +0.000 NA
ATOM     23  H   UNL     1       6.903   5.717  14.685  0.00  0.00    +0.000 HD
ATOM     24  H   UNL     1       7.979   4.946  15.635  0.00  0.00    +0.000 HD
ENDBRANCH  16  22
ENDBRANCH  14  19
ENDBRANCH   1  14
TORSDOF 5
ENDMDL
MODEL 8
REMARK VINA RESULT:      -7.0      5.188      7.475
REMARK  Name = 
REMARK  5 active torsions:
REMARK  status: ('A' for Active; 'I' for Inactive)
REMARK    1  A    between atoms: N_1  and  C_2
REMARK    2  A    between atoms: C_5  and  N_6
REMARK    3  A    between atoms: N_6  and  C_7
REMARK    4  A    between atoms: C_9  and  C_10
REMARK    5  A    between atoms: C_13  and  C_14
REMARK                            x       y       z     vdW  Elec       q    Type
REMARK                         _______ _______ _______ _____ _____    ______ ____
ROOT
ATOM      1  C   UNL     1       2.430   4.264  19.236  0.00  0.00    +0.000 C 
ATOM      2  C   UNL     1       1.427   4.313  20.346  0.00  0.00    +0.000 C 
ATOM      3  C   UNL     1       2.496   5.374  20.267  0.00  0.00    +0.000 C 
ENDROOT
BRANCH   3   4
ATOM      4  C   UNL     1       2.115   6.797  19.936  0.00  0.00    +0.000 A 
ATOM      5  C   UNL     1       2.396   7.334  18.670  0.00  0.00    +0.000 A 
ATOM      6  C   UNL     1       2.014   8.632  18.320  0.00  0.00    +0.000 A 
ATOM      7  C   UNL     1       1.327   9.440  19.235  0.00  0.00    +0.000 A 
ATOM      8  C   UNL     1       1.032   8.916  20.501  0.00  0.00    +0.000 A 
ATOM      9  C   UNL     1       1.418   7.612  20.839  0.00  0.00    +0.000 A 
BRANCH   7  10
ATOM     10  C   UNL     1       0.906  10.843  18.874  0.00  0.00    +0.000 C 
ATOM     11  F   UNL     1      -0.266  10.901  18.181  0.00  0.00    +0.000 F 
ATOM     12  F   UNL     1       0.729  11.634  19.969  0.00  0.00    +0.000 F 
ATOM     13  F   UNL     1       1.827  11.481  18.098  0.00  0.00    +0.000 F 
ENDBRANCH   7  10
ENDBRANCH   3   4
BRANCH   1  14
ATOM     14  N   UNL     1       3.530   3.289  19.234  0.00  0.00    +0.000 NA
ATOM     15  H   UNL     1       3.938   3.211  20.166  0.00  0.00    +0.000 HD
BRANCH  14  19
ATOM     16  C   UNL     1       6.223   5.389  16.611  0.00  0.00    +0.000 C 
ATOM     17  C   UNL     1       5.189   4.462  15.967  0.00  0.00    +0.000 C 
ATOM     18  C   UNL     1       4.054   4.136  16.939  0.00  0.00    +0.000 C 
ATOM     19  C   UNL     1       4.586   3.513  18.239  0.00  0.00    +0.000 C 
ATOM     20  C   UNL     1       5.648   4.426  18.879  0.00  0.00    +0.000 C 
ATOM     21  C   UNL     1       6.772   4.780  17.904  0.00  0.00    +0.000 C 
BRANCH  16  22
ATOM     22  N   UNL     1       7.322   5.658  15.686  0.00  0.00    +0.000 NA
ATOM     23  H   UNL     1       8.167   5.185  16.006  0.00  0.00    +0.000 HD
ATOM     24  H   UNL     1       7.541   6.654  15.683  0.00  0.00    +0.000 HD
ENDBRANCH  16  22
ENDBRANCH  14  19
ENDBRANCH   1  14
TORSDOF 5
ENDMDL
MODEL 9
REMARK VINA RESULT:      -7.0      0.605      1.136
REMARK  Name = 
REMARK  5 active torsions:
REMARK  status: ('A' for Active; 'I' for Inactive)
REMARK    1  A    between atoms: N_1  and  C_2
REMARK    2  A    between atoms: C_5  and  N_6
REMARK    3  A    between atoms: N_6  and  C_7
REMARK    4  A    between atoms: C_9  and  C_10
REMARK    5  A    between atoms: C_13  and  C_14
REMARK                            x       y       z     vdW  Elec       q    Type
REMARK                         _______ _______ _______ _____ _____    ______ ____
ROOT
ATOM      1  C   UNL     1       5.437   5.866  18.444  0.00  0.00    +0.000 C 
ATOM      2  C   UNL     1       6.924   6.039  18.433  0.00  0.00    +0.000 C 
ATOM      3  C   UNL     1       6.322   4.769  17.883  0.00  0.00    +0.000 C 
ENDROOT
BRANCH   3   4
ATOM      4  C   UNL     1       6.400   4.485  16.402  0.00  0.00    +0.000 A 
ATOM      5  C   UNL     1       5.463   3.640  15.788  0.00  0.00    +0.000 A 
ATOM      6  C   UNL     1       5.483   3.396  14.411  0.00  0.00    +0.000 A 
ATOM      7  C   UNL     1       6.450   3.999  13.599  0.00  0.00    +0.000 A 
ATOM      8  C   UNL     1       7.389   4.852  14.195  0.00  0.00    +0.000 A 
ATOM      9  C   UNL     1       7.357   5.092  15.575  0.00  0.00    +0.000 A 
BRANCH   7  10
ATOM     10  C   UNL     1       6.487   3.748  12.111  0.00  0.00    +0.000 C 
ATOM     11  F   UNL     1       5.256   3.757  11.525  0.00  0.00    +0.000 F 
ATOM     12  F   UNL     1       7.223   4.678  11.441  0.00  0.00    +0.000 F 
ATOM     13  F   UNL     1       7.037   2.542  11.800  0.00  0.00    +0.000 F 
ENDBRANCH   7  10
ENDBRANCH   3   4
BRANCH   1  14
ATOM     14  N   UNL     1       4.706   5.565  19.683  0.00  0.00    +0.000 NA
ATOM     15  H   UNL     1       5.358   5.417  20.455  0.00  0.00    +0.000 HD
BRANCH  14  19
ATOM     16  C   UNL     1       0.943   3.492  19.393  0.00  0.00    +0.000 C 
ATOM     17  C   UNL     1       1.760   3.297  20.673  0.00  0.00    +0.000 C 
ATOM     18  C   UNL     1       2.816   4.392  20.829  0.00  0.00    +0.000 C 
ATOM     19  C   UNL     1       3.750   4.453  19.611  0.00  0.00    +0.000 C 
ATOM     20  C   UNL     1       2.934   4.620  18.315  0.00  0.00    +0.000 C 
ATOM     21  C   UNL     1       1.856   3.546  18.165  0.00  0.00    +0.000 C 
BRANCH  16  22
ATOM     22  N   UNL     1      -0.034   2.417  19.235  0.00  0.00    +0.000 NA
ATOM     23  H   UNL     1      -0.842   2.593  19.831  0.00  0.00    +0.000 HD
ATOM     24  H   UNL     1       0.363   1.533  19.554  0.00  0.00    +0.000 HD
ENDBRANCH  16  22
ENDBRANCH  14  19
ENDBRANCH   1  14
TORSDOF 5
ENDMDL
