MODEL 1
REMARK VINA RESULT:      -7.8      0.000      0.000
REMARK  Name = 
REMARK  4 active torsions:
REMARK  status: ('A' for Active; 'I' for Inactive)
REMARK    1  A    between atoms: C_1  and  N_2
REMARK    2  A    between atoms: C_3  and  C_5
REMARK    3  A    between atoms: C_5  and  N_6
REMARK    4  A    between atoms: C_8  and  C_9
REMARK                            x       y       z     vdW  Elec       q    Type
REMARK                         _______ _______ _______ _____ _____    ______ ____
ROOT
ATOM      1  N   UNL     1       6.073   5.426  16.271  0.00  0.00    +0.000 N 
ATOM      2  C   UNL     1       5.318   4.895  17.278  0.00  0.00    +0.000 A 
ATOM      3  C   UNL     1       4.288   5.786  17.512  0.00  0.00    +0.000 A 
ATOM      4  C   UNL     1       4.496   6.795  16.540  0.00  0.00    +0.000 A 
ATOM      5  N   UNL     1       5.588   6.590  15.796  0.00  0.00    +0.000 NA
ENDROOT
BRANCH   3   6
ATOM      6  C   UNL     1       3.245   5.611  18.524  0.00  0.00    +0.000 A 
ATOM      7  C   UNL     1       2.969   6.692  19.387  0.00  0.00    +0.000 A 
ATOM      8  C   UNL     1       2.011   6.588  20.393  0.00  0.00    +0.000 A 
ATOM      9  C   UNL     1       1.321   5.395  20.566  0.00  0.00    +0.000 A 
ATOM     10  C   UNL     1       1.571   4.297  19.728  0.00  0.00    +0.000 A 
ATOM     11  C   UNL     1       0.881   3.094  19.902  0.00  0.00    +0.000 A 
ATOM     12  N   UNL     1       1.046   1.989  19.142  0.00  0.00    +0.000 NA
ATOM     13  C   UNL     1       1.929   2.091  18.137  0.00  0.00    +0.000 A 
ATOM     14  C   UNL     1       2.658   3.238  17.865  0.00  0.00    +0.000 A 
ATOM     15  C   UNL     1       2.522   4.385  18.683  0.00  0.00    +0.000 A 
ENDBRANCH   3   6
BRANCH   1  16
ATOM     16  C   UNL     1       7.272   4.864  15.686  0.00  0.00    +0.000 C 
BRANCH  16  19
ATOM     17  C   UNL     1       6.046   3.396  12.412  0.00  0.00    +0.000 C 
ATOM     18  N   UNL     1       6.231   3.720  13.804  0.00  0.00    +0.000 N 
ATOM     19  C   UNL     1       7.115   4.700  14.191  0.00  0.00    +0.000 C 
ATOM     20  O   UNL     1       7.708   5.426  13.396  0.00  0.00    +0.000 OA
ATOM     21  H   UNL     1       5.916   3.055  14.508  0.00  0.00    +0.000 HD
ENDBRANCH  16  19
ENDBRANCH   1  16
TORSDOF 3
ENDMDL
MODEL 2
REMARK VINA RESULT:      -7.8      1.536      2.235
REMARK  Name = 
REMARK  4 active torsions:
REMARK  status: ('A' for Active; 'I' for Inactive)
REMARK    1  A    between atoms: C_1  and  N_2
REMARK    2  A    between atoms: C_3  and  C_5
REMARK    3  A    between atoms: C_5  and  N_6
REMARK    4  A    between atoms: C_8  and  C_9
REMARK                            x       y       z     vdW  Elec       q    Type
REMARK                         _______ _______ _______ _____ _____    ______ ____
ROOT
ATOM      1  N   UNL     1       6.641   4.738  14.305  0.00  0.00    +0.000 N 
ATOM      2  C   UNL     1       5.380   5.024  14.742  0.00  0.00    +0.000 A 
ATOM      3  C   UNL     1       5.464   5.184  16.113  0.00  0.00    +0.000 A 
ATOM      4  C   UNL     1       6.846   5.027  16.380  0.00  0.00    +0.000 A 
ATOM      5  N   UNL     1       7.562   4.738  15.289  0.00  0.00    +0.000 NA
ENDROOT
BRANCH   3   6
ATOM      6  C   UNL     1       4.333   5.492  16.990  0.00  0.00    +0.000 A 
ATOM      7  C   UNL     1       4.106   6.842  17.331  0.00  0.00    +0.000 A 
ATOM      8  C   UNL     1       3.067   7.209  18.183  0.00  0.00    +0.000 A 
ATOM      9  C   UNL     1       2.244   6.229  18.725  0.00  0.00    +0.000 A 
ATOM     10  C   UNL     1       2.442   4.876  18.411  0.00  0.00    +0.000 A 
ATOM     11  C   UNL     1       1.618   3.888  18.958  0.00  0.00    +0.000 A 
ATOM     12  N   UNL     1       1.724   2.564  18.708  0.00  0.00    +0.000 NA
ATOM     13  C   UNL     1       2.689   2.201  17.848  0.00  0.00    +0.000 A 
ATOM     14  C   UNL     1       3.553   3.098  17.238  0.00  0.00    +0.000 A 
ATOM     15  C   UNL     1       3.475   4.480  17.528  0.00  0.00    +0.000 A 
ENDBRANCH   3   6
BRANCH   1  16
ATOM     16  C   UNL     1       7.056   4.473  12.943  0.00  0.00    +0.000 C 
BRANCH  16  19
ATOM     17  C   UNL     1       6.104   1.259  11.170  0.00  0.00    +0.000 C 
ATOM     18  N   UNL     1       6.814   2.297  11.874  0.00  0.00    +0.000 N 
ATOM     19  C   UNL     1       6.165   3.432  12.303  0.00  0.00    +0.000 C 
ATOM     20  O   UNL     1       4.948   3.585  12.220  0.00  0.00    +0.000 OA
ATOM     21  H   UNL     1       7.831   2.318  11.821  0.00  0.00    +0.000 HD
ENDBRANCH  16  19
ENDBRANCH   1  16
TORSDOF 3
ENDMDL
MODEL 3
REMARK VINA RESULT:      -7.6      4.394      6.340
REMARK  Name = 
REMARK  4 active torsions:
REMARK  status: ('A' for Active; 'I' for Inactive)
REMARK    1  A    between atoms: C_1  and  N_2
REMARK    2  A    between atoms: C_3  and  C_5
REMARK    3  A    between atoms: C_5  and  N_6
REMARK    4  A    between atoms: C_8  and  C_9
REMARK                            x       y       z     vdW  Elec       q    Type
REMARK                         _______ _______ _______ _____ _____    ______ ____
ROOT
ATOM      1  N   UNL     1       1.489   9.276  18.827  0.00  0.00    +0.000 N 
ATOM      2  C   UNL     1       2.094   8.469  17.906  0.00  0.00    +0.000 A 
ATOM      3  C   UNL     1       2.503   7.334  18.581  0.00  0.00    +0.000 A 
ATOM      4  C   UNL     1       2.034   7.549  19.901  0.00  0.00    +0.000 A 
ATOM      5  N   UNL     1       1.435   8.733  20.060  0.00  0.00    +0.000 NA
ENDROOT
BRANCH   3   6
ATOM      6  C   UNL     1       3.208   6.207  17.971  0.00  0.00    +0.000 A 
ATOM      7  C   UNL     1       4.375   6.478  17.227  0.00  0.00    +0.000 A 
ATOM      8  C   UNL     1       5.082   5.459  16.592  0.00  0.00    +0.000 A 
ATOM      9  C   UNL     1       4.625   4.149  16.676  0.00  0.00    +0.000 A 
ATOM     10  C   UNL     1       3.466   3.842  17.404  0.00  0.00    +0.000 A 
ATOM     11  C   UNL     1       3.002   2.527  17.487  0.00  0.00    +0.000 A 
ATOM     12  N   UNL     1       1.904   2.133  18.170  0.00  0.00    +0.000 NA
ATOM     13  C   UNL     1       1.242   3.097  18.828  0.00  0.00    +0.000 A 
ATOM     14  C   UNL     1       1.620   4.431  18.826  0.00  0.00    +0.000 A 
ATOM     15  C   UNL     1       2.743   4.857  18.078  0.00  0.00    +0.000 A 
ENDBRANCH   3   6
BRANCH   1  16
ATOM     16  C   UNL     1       0.911  10.584  18.600  0.00  0.00    +0.000 C 
BRANCH  16  19
ATOM     17  C   UNL     1      -2.522   9.956  17.118  0.00  0.00    +0.000 C 
ATOM     18  N   UNL     1      -1.101  10.010  17.353  0.00  0.00    +0.000 N 
ATOM     19  C   UNL     1      -0.597  10.502  18.535  0.00  0.00    +0.000 C 
ATOM     20  O   UNL     1      -1.304  10.814  19.491  0.00  0.00    +0.000 OA
ATOM     21  H   UNL     1      -0.470   9.938  16.557  0.00  0.00    +0.000 HD
ENDBRANCH  16  19
ENDBRANCH   1  16
TORSDOF 3
ENDMDL
MODEL 4
REMARK VINA RESULT:      -7.5      4.299      6.834
REMARK  Name = 
REMARK  4 active torsions:
REMARK  status: ('A' for Active; 'I' for Inactive)
REMARK    1  A    between atoms: C_1  and  N_2
REMARK    2  A    between atoms: C_3  and  C_5
REMARK    3  A    between atoms: C_5  and  N_6
REMARK    4  A    between atoms: C_8  and  C_9
REMARK                            x       y       z     vdW  Elec       q    Type
REMARK                         _______ _______ _______ _____ _____    ______ ____
ROOT
ATOM      1  N   UNL     1       1.655   9.008  18.780  0.00  0.00    +0.000 N 
ATOM      2  C   UNL     1       2.186   8.152  17.858  0.00  0.00    +0.000 A 
ATOM      3  C   UNL     1       2.562   7.014  18.547  0.00  0.00    +0.000 A 
ATOM      4  C   UNL     1       2.153   7.282  19.876  0.00  0.00    +0.000 A 
ATOM      5  N   UNL     1       1.618   8.497  20.027  0.00  0.00    +0.000 NA
ENDROOT
BRANCH   3   6
ATOM      6  C   UNL     1       3.189   5.838  17.940  0.00  0.00    +0.000 A 
ATOM      7  C   UNL     1       2.410   4.671  17.797  0.00  0.00    +0.000 A 
ATOM      8  C   UNL     1       2.946   3.505  17.256  0.00  0.00    +0.000 A 
ATOM      9  C   UNL     1       4.278   3.479  16.862  0.00  0.00    +0.000 A 
ATOM     10  C   UNL     1       5.084   4.620  16.992  0.00  0.00    +0.000 A 
ATOM     11  C   UNL     1       6.426   4.595  16.600  0.00  0.00    +0.000 A 
ATOM     12  N   UNL     1       7.275   5.643  16.678  0.00  0.00    +0.000 NA
ATOM     13  C   UNL     1       6.758   6.789  17.150  0.00  0.00    +0.000 A 
ATOM     14  C   UNL     1       5.440   6.928  17.555  0.00  0.00    +0.000 A 
ATOM     15  C   UNL     1       4.556   5.825  17.517  0.00  0.00    +0.000 A 
ENDBRANCH   3   6
BRANCH   1  16
ATOM     16  C   UNL     1       1.134  10.338  18.541  0.00  0.00    +0.000 C 
BRANCH  16  19
ATOM     17  C   UNL     1      -2.386   9.987  17.175  0.00  0.00    +0.000 C 
ATOM     18  N   UNL     1      -0.955   9.957  17.348  0.00  0.00    +0.000 N 
ATOM     19  C   UNL     1      -0.378  10.331  18.539  0.00  0.00    +0.000 C 
ATOM     20  O   UNL     1      -1.027  10.601  19.547  0.00  0.00    +0.000 OA
ATOM     21  H   UNL     1      -0.363   9.918  16.520  0.00  0.00    +0.000 HD
ENDBRANCH  16  19
ENDBRANCH   1  16
TORSDOF 3
ENDMDL
MODEL 5
REMARK VINA RESULT:      -7.5      4.245      7.101
REMARK  Name = 
REMARK  4 active torsions:
REMARK  status: ('A' for Active; 'I' for Inactive)
REMARK    1  A    between atoms: C_1  and  N_2
REMARK    2  A    between atoms: C_3  and  C_5
REMARK    3  A    between atoms: C_5  and  N_6
REMARK    4  A    between atoms: C_8  and  C_9
REMARK                            x       y       z     vdW  Elec       q    Type
REMARK                         _______ _______ _______ _____ _____    ______ ____
ROOT
ATOM      1  N   UNL     1       1.673   8.346  19.962  0.00  0.00    +0.000 N 
ATOM      2  C   UNL     1       2.232   7.108  19.824  0.00  0.00    +0.000 A 
ATOM      3  C   UNL     1       2.589   6.982  18.494  0.00  0.00    +0.000 A 
ATOM      4  C   UNL     1       2.243   8.238  17.939  0.00  0.00    +0.000 A 
ATOM      5  N   UNL     1       1.670   9.063  18.821  0.00  0.00    +0.000 NA
ENDROOT
BRANCH   3   6
ATOM      6  C   UNL     1       3.217   5.798  17.906  0.00  0.00    +0.000 A 
ATOM      7  C   UNL     1       2.439   4.629  17.776  0.00  0.00    +0.000 A 
ATOM      8  C   UNL     1       2.977   3.455  17.253  0.00  0.00    +0.000 A 
ATOM      9  C   UNL     1       4.311   3.424  16.865  0.00  0.00    +0.000 A 
ATOM     10  C   UNL     1       5.116   4.566  16.983  0.00  0.00    +0.000 A 
ATOM     11  C   UNL     1       6.460   4.536  16.598  0.00  0.00    +0.000 A 
ATOM     12  N   UNL     1       7.309   5.585  16.665  0.00  0.00    +0.000 NA
ATOM     13  C   UNL     1       6.791   6.737  17.119  0.00  0.00    +0.000 A 
ATOM     14  C   UNL     1       5.470   6.882  17.516  0.00  0.00    +0.000 A 
ATOM     15  C   UNL     1       4.586   5.778  17.489  0.00  0.00    +0.000 A 
ENDBRANCH   3   6
BRANCH   1  16
ATOM     16  C   UNL     1       1.131   8.932  21.171  0.00  0.00    +0.000 C 
BRANCH  16  19
ATOM     17  C   UNL     1      -1.144  11.615  19.757  0.00  0.00    +0.000 C 
ATOM     18  N   UNL     1      -0.566  10.359  20.161  0.00  0.00    +0.000 N 
ATOM     19  C   UNL     1       0.593  10.319  20.902  0.00  0.00    +0.000 C 
ATOM     20  O   UNL     1       1.138  11.323  21.355  0.00  0.00    +0.000 OA
ATOM     21  H   UNL     1      -0.857   9.508  19.682  0.00  0.00    +0.000 HD
ENDBRANCH  16  19
ENDBRANCH   1  16
TORSDOF 3
ENDMDL
MODEL 6
REMARK VINA RESULT:      -7.4      4.363      6.665
REMARK  Name = 
REMARK  4 active torsions:
REMARK  status: ('A' for Active; 'I' for Inactive)
REMARK    1  A    between atoms: C_1  and  N_2
REMARK    2  A    between atoms: C_3  and  C_5
REMARK    3  A    between atoms: C_5  and  N_6
REMARK    4  A    between atoms: C_8  and  C_9
REMARK                            x       y       z     vdW  Elec       q    Type
REMARK                         _______ _______ _______ _____ _____    ______ ____
ROOT
ATOM      1  N   UNL     1       1.490   8.660  19.928  0.00  0.00    +0.000 N 
ATOM      2  C   UNL     1       2.155   7.474  19.812  0.00  0.00    +0.000 A 
ATOM      3  C   UNL     1       2.485   7.334  18.476  0.00  0.00    +0.000 A 
ATOM      4  C   UNL     1       2.011   8.535  17.892  0.00  0.00    +0.000 A 
ATOM      5  N   UNL     1       1.391   9.335  18.765  0.00  0.00    +0.000 NA
ENDROOT
BRANCH   3   6
ATOM      6  C   UNL     1       3.201   6.192  17.907  0.00  0.00    +0.000 A 
ATOM      7  C   UNL     1       4.373   6.447  17.164  0.00  0.00    +0.000 A 
ATOM      8  C   UNL     1       5.091   5.413  16.567  0.00  0.00    +0.000 A 
ATOM      9  C   UNL     1       4.641   4.104  16.688  0.00  0.00    +0.000 A 
ATOM     10  C   UNL     1       3.478   3.813  17.417  0.00  0.00    +0.000 A 
ATOM     11  C   UNL     1       3.020   2.498  17.537  0.00  0.00    +0.000 A 
ATOM     12  N   UNL     1       1.920   2.119  18.224  0.00  0.00    +0.000 NA
ATOM     13  C   UNL     1       1.246   3.099  18.846  0.00  0.00    +0.000 A 
ATOM     14  C   UNL     1       1.617   4.434  18.805  0.00  0.00    +0.000 A 
ATOM     15  C   UNL     1       2.743   4.843  18.053  0.00  0.00    +0.000 A 
ENDBRANCH   3   6
BRANCH   1  16
ATOM     16  C   UNL     1       0.931   9.236  21.134  0.00  0.00    +0.000 C 
BRANCH  16  19
ATOM     17  C   UNL     1      -1.138  12.156  19.883  0.00  0.00    +0.000 C 
ATOM     18  N   UNL     1      -0.669  10.843  20.244  0.00  0.00    +0.000 N 
ATOM     19  C   UNL     1       0.526  10.675  20.905  0.00  0.00    +0.000 C 
ATOM     20  O   UNL     1       1.203  11.612  21.322  0.00  0.00    +0.000 OA
ATOM     21  H   UNL     1      -1.080  10.032  19.784  0.00  0.00    +0.000 HD
ENDBRANCH  16  19
ENDBRANCH   1  16
TORSDOF 3
ENDMDL
MODEL 7
REMARK VINA RESULT:      -7.3      2.025      3.423
REMARK  Name = 
REMARK  4 active torsions:
REMARK  status: ('A' for Active; 'I' for Inactive)
REMARK    1  A    between atoms: C_1  and  N_2
REMARK    2  A    between atoms: C_3  and  C_5
REMARK    3  A    between atoms: C_5  and  N_6
REMARK    4  A    between atoms: C_8  and  C_9
REMARK                            x       y       z     vdW  Elec       q    Type
REMARK                         _______ _______ _______ _____ _____    ______ ____
ROOT
ATOM      1  N   UNL     1       6.555   4.464  14.146  0.00  0.00    +0.000 N 
ATOM      2  C   UNL     1       5.332   4.311  14.735  0.00  0.00    +0.000 A 
ATOM      3  C   UNL     1       5.530   4.446  16.097  0.00  0.00    +0.000 A 
ATOM      4  C   UNL     1       6.912   4.736  16.203  0.00  0.00    +0.000 A 
ATOM      5  N   UNL     1       7.542   4.730  15.024  0.00  0.00    +0.000 NA
ENDROOT
BRANCH   3   6
ATOM      6  C   UNL     1       4.477   4.343  17.109  0.00  0.00    +0.000 A 
ATOM      7  C   UNL     1       4.108   3.056  17.554  0.00  0.00    +0.000 A 
ATOM      8  C   UNL     1       3.094   2.878  18.492  0.00  0.00    +0.000 A 
ATOM      9  C   UNL     1       2.418   3.985  18.992  0.00  0.00    +0.000 A 
ATOM     10  C   UNL     1       2.756   5.279  18.570  0.00  0.00    +0.000 A 
ATOM     11  C   UNL     1       2.075   6.393  19.069  0.00  0.00    +0.000 A 
ATOM     12  N   UNL     1       2.334   7.676  18.731  0.00  0.00    +0.000 NA
ATOM     13  C   UNL     1       3.343   7.866  17.865  0.00  0.00    +0.000 A 
ATOM     14  C   UNL     1       4.092   6.835  17.319  0.00  0.00    +0.000 A 
ATOM     15  C   UNL     1       3.799   5.488  17.636  0.00  0.00    +0.000 A 
ENDBRANCH   3   6
BRANCH   1  16
ATOM     16  C   UNL     1       6.861   4.391  12.733  0.00  0.00    +0.000 C 
BRANCH  16  19
ATOM     17  C   UNL     1       6.258   1.043  11.057  0.00  0.00    +0.000 C 
ATOM     18  N   UNL     1       6.841   2.156  11.764  0.00  0.00    +0.000 N 
ATOM     19  C   UNL     1       6.092   3.267  12.074  0.00  0.00    +0.000 C 
ATOM     20  O   UNL     1       4.881   3.341  11.877  0.00  0.00    +0.000 OA
ATOM     21  H   UNL     1       7.855   2.237  11.798  0.00  0.00    +0.000 HD
ENDBRANCH  16  19
ENDBRANCH   1  16
TORSDOF 3
ENDMDL
MODEL 8
REMARK VINA RESULT:      -7.3      4.459      6.886
REMARK  Name = 
REMARK  4 active torsions:
REMARK  status: ('A' for Active; 'I' for Inactive)
REMARK    1  A    between atoms: C_1  and  N_2
REMARK    2  A    between atoms: C_3  and  C_5
REMARK    3  A    between atoms: C_5  and  N_6
REMARK    4  A    between atoms: C_8  and  C_9
REMARK                            x       y       z     vdW  Elec       q    Type
REMARK                         _______ _______ _______ _____ _____    ______ ____
ROOT
ATOM      1  N   UNL     1       1.363   9.179  19.440  0.00  0.00    +0.000 N 
ATOM      2  C   UNL     1       1.921   8.459  18.423  0.00  0.00    +0.000 A 
ATOM      3  C   UNL     1       2.364   7.272  18.977  0.00  0.00    +0.000 A 
ATOM      4  C   UNL     1       1.962   7.369  20.331  0.00  0.00    +0.000 A 
ATOM      5  N   UNL     1       1.370   8.532  20.622  0.00  0.00    +0.000 NA
ENDROOT
BRANCH   3   6
ATOM      6  C   UNL     1       3.038   6.204  18.236  0.00  0.00    +0.000 A 
ATOM      7  C   UNL     1       4.140   6.552  17.427  0.00  0.00    +0.000 A 
ATOM      8  C   UNL     1       4.812   5.595  16.670  0.00  0.00    +0.000 A 
ATOM      9  C   UNL     1       4.385   4.273  16.696  0.00  0.00    +0.000 A 
ATOM     10  C   UNL     1       3.291   3.891  17.486  0.00  0.00    +0.000 A 
ATOM     11  C   UNL     1       2.856   2.563  17.511  0.00  0.00    +0.000 A 
ATOM     12  N   UNL     1       1.821   2.100  18.246  0.00  0.00    +0.000 NA
ATOM     13  C   UNL     1       1.195   3.001  19.019  0.00  0.00    +0.000 A 
ATOM     14  C   UNL     1       1.551   4.339  19.082  0.00  0.00    +0.000 A 
ATOM     15  C   UNL     1       2.605   4.841  18.283  0.00  0.00    +0.000 A 
ENDBRANCH   3   6
BRANCH   1  16
ATOM     16  C   UNL     1       0.774  10.500  19.356  0.00  0.00    +0.000 C 
BRANCH  16  19
ATOM     17  C   UNL     1      -0.963  11.060  22.680  0.00  0.00    +0.000 C 
ATOM     18  N   UNL     1      -0.562  10.551  21.393  0.00  0.00    +0.000 N 
ATOM     19  C   UNL     1       0.531  11.068  20.737  0.00  0.00    +0.000 C 
ATOM     20  O   UNL     1       1.287  11.898  21.236  0.00  0.00    +0.000 OA
ATOM     21  H   UNL     1      -1.229  10.003  20.853  0.00  0.00    +0.000 HD
ENDBRANCH  16  19
ENDBRANCH   1  16
TORSDOF 3
ENDMDL
MODEL 9
REMARK VINA RESULT:      -7.3      4.340      6.357
REMARK  Name = 
REMARK  4 active torsions:
REMARK  status: ('A' for Active; 'I' for Inactive)
REMARK    1  A    between atoms: C_1  and  N_2
REMARK    2  A    between atoms: C_3  and  C_5
REMARK    3  A    between atoms: C_5  and  N_6
REMARK    4  A    between atoms: C_8  and  C_9
REMARK                            x       y       z     vdW  Elec       q    Type
REMARK                         _______ _______ _______ _____ _____    ______ ____
ROOT
ATOM      1  N   UNL     1       1.224   9.269  18.804  0.00  0.00    +0.000 N 
ATOM      2  C   UNL     1       1.866   8.503  17.873  0.00  0.00    +0.000 A 
ATOM      3  C   UNL     1       2.445   7.451  18.558  0.00  0.00    +0.000 A 
ATOM      4  C   UNL     1       2.032   7.661  19.897  0.00  0.00    +0.000 A 
ATOM      5  N   UNL     1       1.307   8.773  20.055  0.00  0.00    +0.000 NA
ENDROOT
BRANCH   3   6
ATOM      6  C   UNL     1       3.242   6.390  17.942  0.00  0.00    +0.000 A 
ATOM      7  C   UNL     1       4.423   6.756  17.262  0.00  0.00    +0.000 A 
ATOM      8  C   UNL     1       5.217   5.805  16.626  0.00  0.00    +0.000 A 
ATOM      9  C   UNL     1       4.835   4.468  16.642  0.00  0.00    +0.000 A 
ATOM     10  C   UNL     1       3.666   4.068  17.306  0.00  0.00    +0.000 A 
ATOM     11  C   UNL     1       3.278   2.725  17.321  0.00  0.00    +0.000 A 
ATOM     12  N   UNL     1       2.177   2.243  17.939  0.00  0.00    +0.000 NA
ATOM     13  C   UNL     1       1.430   3.141  18.599  0.00  0.00    +0.000 A 
ATOM     14  C   UNL     1       1.728   4.494  18.661  0.00  0.00    +0.000 A 
ATOM     15  C   UNL     1       2.855   5.012  17.981  0.00  0.00    +0.000 A 
ENDBRANCH   3   6
BRANCH   1  16
ATOM     16  C   UNL     1       0.483  10.491  18.571  0.00  0.00    +0.000 C 
BRANCH  16  19
ATOM     17  C   UNL     1       2.851  13.437  18.275  0.00  0.00    +0.000 C 
ATOM     18  N   UNL     1       1.977  12.326  17.994  0.00  0.00    +0.000 N 
ATOM     19  C   UNL     1       1.286  11.697  19.003  0.00  0.00    +0.000 C 
ATOM     20  O   UNL     1       1.277  12.098  20.166  0.00  0.00    +0.000 OA
ATOM     21  H   UNL     1       2.073  11.840  17.104  0.00  0.00    +0.000 HD
ENDBRANCH  16  19
ENDBRANCH   1  16
TORSDOF 3
ENDMDL
