MODEL 1
REMARK VINA RESULT:      -7.9      0.000      0.000
REMARK  Name = 
REMARK  3 active torsions:
REMARK  status: ('A' for Active; 'I' for Inactive)
REMARK    1  A    between atoms: C_1  and  N_2
REMARK    2  A    between atoms: N_2  and  C_3
REMARK    3  A    between atoms: C_13  and  C_15
REMARK                            x       y       z     vdW  Elec       q    Type
REMARK                         _______ _______ _______ _____ _____    ______ ____
ROOT
ATOM      1  C   UNL     1       2.052   3.925  21.169  0.00  0.00    +0.000 C 
ATOM      2  N   UNL     1       3.097   4.598  20.410  0.00  0.00    +0.000 N 
ATOM      3  C   UNL     1       4.029   3.761  19.665  0.00  0.00    +0.000 C 
ATOM      4  C   UNL     1       2.759   5.808  19.784  0.00  0.00    +0.000 A 
ATOM      5  C   UNL     1       1.929   6.729  20.416  0.00  0.00    +0.000 A 
ATOM      6  C   UNL     1       1.617   7.952  19.812  0.00  0.00    +0.000 A 
ATOM      7  C   UNL     1       2.117   8.198  18.541  0.00  0.00    +0.000 A 
ATOM      8  N   UNL     1       2.933   7.315  17.934  0.00  0.00    +0.000 NA
ATOM      9  N   UNL     1       3.259   6.129  18.571  0.00  0.00    +0.000 NA
ATOM     10  C   UNL     1       1.800   9.480  17.818  0.00  0.00    +0.000 C 
ATOM     11  C   UNL     1       0.517  10.084  18.395  0.00  0.00    +0.000 C 
ATOM     12  N   UNL     1       0.670  10.234  19.842  0.00  0.00    +0.000 N 
ATOM     13  C   UNL     1       0.858  11.386  20.596  0.00  0.00    +0.000 C 
ATOM     14  O   UNL     1       0.908  11.295  21.832  0.00  0.00    +0.000 OA
ATOM     15  C   UNL     1       0.734   8.943  20.529  0.00  0.00    +0.000 C 
ENDROOT
BRANCH  13  16
ATOM     16  C   UNL     1       0.974  12.763  19.991  0.00  0.00    +0.000 A 
ATOM     17  C   UNL     1       2.199  13.103  19.519  0.00  0.00    +0.000 A 
ATOM     18  C   UNL     1       2.423  14.390  18.854  0.00  0.00    +0.000 A 
ATOM     19  C   UNL     1       3.517  14.633  18.025  0.00  0.00    +0.000 A 
ATOM     20  C   UNL     1       3.630  15.864  17.367  0.00  0.00    +0.000 A 
ATOM     21  C   UNL     1       2.692  16.875  17.588  0.00  0.00    +0.000 A 
ATOM     22  C   UNL     1       1.613  16.650  18.437  0.00  0.00    +0.000 A 
ATOM     23  C   UNL     1       1.466  15.395  19.020  0.00  0.00    +0.000 A 
ATOM     24  N   UNL     1       0.254  15.065  19.635  0.00  0.00    +0.000 N 
ATOM     25  C   UNL     1      -0.110  13.746  19.750  0.00  0.00    +0.000 A 
ATOM     26  O   UNL     1      -1.296  13.457  19.619  0.00  0.00    +0.000 OA
ATOM     27  H   UNL     1      -0.518  15.711  19.544  0.00  0.00    +0.000 HD
ENDBRANCH  13  16
TORSDOF 1
ENDMDL
MODEL 2
REMARK VINA RESULT:      -7.8      3.600      8.141
REMARK  Name = 
REMARK  3 active torsions:
REMARK  status: ('A' for Active; 'I' for Inactive)
REMARK    1  A    between atoms: C_1  and  N_2
REMARK    2  A    between atoms: N_2  and  C_3
REMARK    3  A    between atoms: C_13  and  C_15
REMARK                            x       y       z     vdW  Elec       q    Type
REMARK                         _______ _______ _______ _____ _____    ______ ____
ROOT
ATOM      1  C   UNL     1      -3.075  14.063  21.753  0.00  0.00    +0.000 C 
ATOM      2  N   UNL     1      -3.679  13.051  20.898  0.00  0.00    +0.000 N 
ATOM      3  C   UNL     1      -4.931  13.394  20.234  0.00  0.00    +0.000 C 
ATOM      4  C   UNL     1      -2.812  12.245  20.145  0.00  0.00    +0.000 A 
ATOM      5  C   UNL     1      -1.612  11.791  20.685  0.00  0.00    +0.000 A 
ATOM      6  C   UNL     1      -0.761  10.959  19.951  0.00  0.00    +0.000 A 
ATOM      7  C   UNL     1      -1.121  10.640  18.649  0.00  0.00    +0.000 A 
ATOM      8  N   UNL     1      -2.289  11.065  18.130  0.00  0.00    +0.000 NA
ATOM      9  N   UNL     1      -3.134  11.855  18.892  0.00  0.00    +0.000 NA
ATOM     10  C   UNL     1      -0.241   9.773  17.790  0.00  0.00    +0.000 C 
ATOM     11  C   UNL     1       1.195   9.823  18.322  0.00  0.00    +0.000 C 
ATOM     12  N   UNL     1       1.190   9.457  19.739  0.00  0.00    +0.000 N 
ATOM     13  C   UNL     1       1.624   8.287  20.350  0.00  0.00    +0.000 C 
ATOM     14  O   UNL     1       1.583   8.203  21.587  0.00  0.00    +0.000 OA
ATOM     15  C   UNL     1       0.523  10.461  20.568  0.00  0.00    +0.000 C 
ENDROOT
BRANCH  13  16
ATOM     16  C   UNL     1       2.180   7.110  19.587  0.00  0.00    +0.000 A 
ATOM     17  C   UNL     1       2.947   7.408  18.510  0.00  0.00    +0.000 A 
ATOM     18  C   UNL     1       3.593   6.352  17.725  0.00  0.00    +0.000 A 
ATOM     19  C   UNL     1       4.673   6.592  16.876  0.00  0.00    +0.000 A 
ATOM     20  C   UNL     1       5.284   5.523  16.211  0.00  0.00    +0.000 A 
ATOM     21  C   UNL     1       4.779   4.227  16.337  0.00  0.00    +0.000 A 
ATOM     22  C   UNL     1       3.684   3.983  17.159  0.00  0.00    +0.000 A 
ATOM     23  C   UNL     1       3.135   5.040  17.880  0.00  0.00    +0.000 A 
ATOM     24  N   UNL     1       2.234   4.767  18.914  0.00  0.00    +0.000 N 
ATOM     25  C   UNL     1       2.082   5.671  19.936  0.00  0.00    +0.000 A 
ATOM     26  O   UNL     1       1.904   5.241  21.072  0.00  0.00    +0.000 OA
ATOM     27  H   UNL     1       2.089   3.802  19.178  0.00  0.00    +0.000 HD
ENDBRANCH  13  16
TORSDOF 1
ENDMDL
MODEL 3
REMARK VINA RESULT:      -7.7      3.540      8.667
REMARK  Name = 
REMARK  3 active torsions:
REMARK  status: ('A' for Active; 'I' for Inactive)
REMARK    1  A    between atoms: C_1  and  N_2
REMARK    2  A    between atoms: N_2  and  C_3
REMARK    3  A    between atoms: C_13  and  C_15
REMARK                            x       y       z     vdW  Elec       q    Type
REMARK                         _______ _______ _______ _____ _____    ______ ____
ROOT
ATOM      1  C   UNL     1      -2.856  14.307  21.672  0.00  0.00    +0.000 C 
ATOM      2  N   UNL     1      -3.534  13.259  20.923  0.00  0.00    +0.000 N 
ATOM      3  C   UNL     1      -4.802  13.599  20.290  0.00  0.00    +0.000 C 
ATOM      4  C   UNL     1      -2.731  12.366  20.196  0.00  0.00    +0.000 A 
ATOM      5  C   UNL     1      -1.524  11.908  20.716  0.00  0.00    +0.000 A 
ATOM      6  C   UNL     1      -0.737  10.992  20.011  0.00  0.00    +0.000 A 
ATOM      7  C   UNL     1      -1.168  10.592  18.754  0.00  0.00    +0.000 A 
ATOM      8  N   UNL     1      -2.343  11.022  18.256  0.00  0.00    +0.000 NA
ATOM      9  N   UNL     1      -3.124  11.897  18.992  0.00  0.00    +0.000 NA
ATOM     10  C   UNL     1      -0.359   9.630  17.926  0.00  0.00    +0.000 C 
ATOM     11  C   UNL     1       1.100   9.665  18.390  0.00  0.00    +0.000 C 
ATOM     12  N   UNL     1       1.148   9.405  19.829  0.00  0.00    +0.000 N 
ATOM     13  C   UNL     1       1.570   8.268  20.507  0.00  0.00    +0.000 C 
ATOM     14  O   UNL     1       1.582   8.278  21.748  0.00  0.00    +0.000 OA
ATOM     15  C   UNL     1       0.556  10.493  20.608  0.00  0.00    +0.000 C 
ENDROOT
BRANCH  13  16
ATOM     16  C   UNL     1       2.048   7.017  19.813  0.00  0.00    +0.000 A 
ATOM     17  C   UNL     1       1.452   5.861  20.195  0.00  0.00    +0.000 A 
ATOM     18  C   UNL     1       1.788   4.588  19.550  0.00  0.00    +0.000 A 
ATOM     19  C   UNL     1       0.963   3.466  19.614  0.00  0.00    +0.000 A 
ATOM     20  C   UNL     1       1.315   2.305  18.916  0.00  0.00    +0.000 A 
ATOM     21  C   UNL     1       2.518   2.238  18.211  0.00  0.00    +0.000 A 
ATOM     22  C   UNL     1       3.362   3.343  18.166  0.00  0.00    +0.000 A 
ATOM     23  C   UNL     1       2.963   4.520  18.795  0.00  0.00    +0.000 A 
ATOM     24  N   UNL     1       3.648   5.707  18.521  0.00  0.00    +0.000 N 
ATOM     25  C   UNL     1       3.011   6.912  18.688  0.00  0.00    +0.000 A 
ATOM     26  O   UNL     1       3.250   7.812  17.890  0.00  0.00    +0.000 OA
ATOM     27  H   UNL     1       4.348   5.697  17.791  0.00  0.00    +0.000 HD
ENDBRANCH  13  16
TORSDOF 1
ENDMDL
MODEL 4
REMARK VINA RESULT:      -7.6      2.980      4.271
REMARK  Name = 
REMARK  3 active torsions:
REMARK  status: ('A' for Active; 'I' for Inactive)
REMARK    1  A    between atoms: C_1  and  N_2
REMARK    2  A    between atoms: N_2  and  C_3
REMARK    3  A    between atoms: C_13  and  C_15
REMARK                            x       y       z     vdW  Elec       q    Type
REMARK                         _______ _______ _______ _____ _____    ______ ____
ROOT
ATOM      1  C   UNL     1       3.541   4.631  19.184  0.00  0.00    +0.000 C 
ATOM      2  N   UNL     1       4.020   5.907  18.674  0.00  0.00    +0.000 N 
ATOM      3  C   UNL     1       4.895   5.878  17.509  0.00  0.00    +0.000 C 
ATOM      4  C   UNL     1       3.131   6.992  18.719  0.00  0.00    +0.000 A 
ATOM      5  C   UNL     1       2.285   7.176  19.808  0.00  0.00    +0.000 A 
ATOM      6  C   UNL     1       1.421   8.274  19.874  0.00  0.00    +0.000 A 
ATOM      7  C   UNL     1       1.394   9.148  18.796  0.00  0.00    +0.000 A 
ATOM      8  N   UNL     1       2.222   8.981  17.748  0.00  0.00    +0.000 NA
ATOM      9  N   UNL     1       3.097   7.908  17.726  0.00  0.00    +0.000 NA
ATOM     10  C   UNL     1       0.470  10.336  18.784  0.00  0.00    +0.000 C 
ATOM     11  C   UNL     1      -0.695  10.082  19.745  0.00  0.00    +0.000 C 
ATOM     12  N   UNL     1      -0.159   9.753  21.066  0.00  0.00    +0.000 N 
ATOM     13  C   UNL     1      -0.133  10.519  22.225  0.00  0.00    +0.000 C 
ATOM     14  O   UNL     1       0.324  10.020  23.265  0.00  0.00    +0.000 OA
ATOM     15  C   UNL     1       0.531   8.462  21.077  0.00  0.00    +0.000 C 
ENDROOT
BRANCH  13  16
ATOM     16  C   UNL     1      -0.665  11.929  22.299  0.00  0.00    +0.000 A 
ATOM     17  C   UNL     1      -1.812  12.095  23.003  0.00  0.00    +0.000 A 
ATOM     18  C   UNL     1      -2.393  13.426  23.199  0.00  0.00    +0.000 A 
ATOM     19  C   UNL     1      -3.317  13.708  24.205  0.00  0.00    +0.000 A 
ATOM     20  C   UNL     1      -3.778  15.019  24.376  0.00  0.00    +0.000 A 
ATOM     21  C   UNL     1      -3.372  16.033  23.505  0.00  0.00    +0.000 A 
ATOM     22  C   UNL     1      -2.473  15.754  22.481  0.00  0.00    +0.000 A 
ATOM     23  C   UNL     1      -1.958  14.465  22.371  0.00  0.00    +0.000 A 
ATOM     24  N   UNL     1      -0.854  14.239  21.543  0.00  0.00    +0.000 N 
ATOM     25  C   UNL     1      -0.029  13.169  21.791  0.00  0.00    +0.000 A 
ATOM     26  O   UNL     1       1.176  13.309  21.606  0.00  0.00    +0.000 OA
ATOM     27  H   UNL     1      -0.395  15.040  21.131  0.00  0.00    +0.000 HD
ENDBRANCH  13  16
TORSDOF 1
ENDMDL
MODEL 5
REMARK VINA RESULT:      -7.5      1.200      1.837
REMARK  Name = 
REMARK  3 active torsions:
REMARK  status: ('A' for Active; 'I' for Inactive)
REMARK    1  A    between atoms: C_1  and  N_2
REMARK    2  A    between atoms: N_2  and  C_3
REMARK    3  A    between atoms: C_13  and  C_15
REMARK                            x       y       z     vdW  Elec       q    Type
REMARK                         _______ _______ _______ _____ _____    ______ ____
ROOT
ATOM      1  C   UNL     1       1.633   3.769  20.869  0.00  0.00    +0.000 C 
ATOM      2  N   UNL     1       2.818   4.399  20.305  0.00  0.00    +0.000 N 
ATOM      3  C   UNL     1       3.782   3.536  19.632  0.00  0.00    +0.000 C 
ATOM      4  C   UNL     1       2.658   5.669  19.728  0.00  0.00    +0.000 A 
ATOM      5  C   UNL     1       1.818   6.614  20.308  0.00  0.00    +0.000 A 
ATOM      6  C   UNL     1       1.682   7.892  19.757  0.00  0.00    +0.000 A 
ATOM      7  C   UNL     1       2.369   8.174  18.584  0.00  0.00    +0.000 A 
ATOM      8  N   UNL     1       3.194   7.266  18.030  0.00  0.00    +0.000 NA
ATOM      9  N   UNL     1       3.343   6.022  18.618  0.00  0.00    +0.000 NA
ATOM     10  C   UNL     1       2.248   9.519  17.919  0.00  0.00    +0.000 C 
ATOM     11  C   UNL     1       0.944  10.189  18.362  0.00  0.00    +0.000 C 
ATOM     12  N   UNL     1       0.907  10.238  19.824  0.00  0.00    +0.000 N 
ATOM     13  C   UNL     1       1.072  11.323  20.676  0.00  0.00    +0.000 C 
ATOM     14  O   UNL     1       0.945  11.153  21.898  0.00  0.00    +0.000 OA
ATOM     15  C   UNL     1       0.783   8.907  20.419  0.00  0.00    +0.000 C 
ENDROOT
BRANCH  13  16
ATOM     16  C   UNL     1       1.370  12.721  20.191  0.00  0.00    +0.000 A 
ATOM     17  C   UNL     1       0.374  13.338  19.509  0.00  0.00    +0.000 A 
ATOM     18  C   UNL     1       0.522  14.719  19.041  0.00  0.00    +0.000 A 
ATOM     19  C   UNL     1      -0.565  15.521  18.694  0.00  0.00    +0.000 A 
ATOM     20  C   UNL     1      -0.354  16.853  18.321  0.00  0.00    +0.000 A 
ATOM     21  C   UNL     1       0.942  17.367  18.229  0.00  0.00    +0.000 A 
ATOM     22  C   UNL     1       2.033  16.566  18.545  0.00  0.00    +0.000 A 
ATOM     23  C   UNL     1       1.807  15.267  18.994  0.00  0.00    +0.000 A 
ATOM     24  N   UNL     1       2.857  14.555  19.582  0.00  0.00    +0.000 N 
ATOM     25  C   UNL     1       2.576  13.541  20.464  0.00  0.00    +0.000 A 
ATOM     26  O   UNL     1       3.315  13.391  21.432  0.00  0.00    +0.000 OA
ATOM     27  H   UNL     1       3.723  15.043  19.761  0.00  0.00    +0.000 HD
ENDBRANCH  13  16
TORSDOF 1
ENDMDL
MODEL 6
REMARK VINA RESULT:      -7.3      2.264      8.769
REMARK  Name = 
REMARK  3 active torsions:
REMARK  status: ('A' for Active; 'I' for Inactive)
REMARK    1  A    between atoms: C_1  and  N_2
REMARK    2  A    between atoms: N_2  and  C_3
REMARK    3  A    between atoms: C_13  and  C_15
REMARK                            x       y       z     vdW  Elec       q    Type
REMARK                         _______ _______ _______ _____ _____    ______ ____
ROOT
ATOM      1  C   UNL     1       2.487  15.895  18.551  0.00  0.00    +0.000 C 
ATOM      2  N   UNL     1       2.624  15.295  19.871  0.00  0.00    +0.000 N 
ATOM      3  C   UNL     1       2.507  16.179  21.024  0.00  0.00    +0.000 C 
ATOM      4  C   UNL     1       2.086  14.012  20.052  0.00  0.00    +0.000 A 
ATOM      5  C   UNL     1       2.188  13.049  19.053  0.00  0.00    +0.000 A 
ATOM      6  C   UNL     1       1.685  11.758  19.242  0.00  0.00    +0.000 A 
ATOM      7  C   UNL     1       1.034  11.479  20.436  0.00  0.00    +0.000 A 
ATOM      8  N   UNL     1       0.948  12.404  21.410  0.00  0.00    +0.000 NA
ATOM      9  N   UNL     1       1.490  13.663  21.213  0.00  0.00    +0.000 NA
ATOM     10  C   UNL     1       0.443  10.120  20.698  0.00  0.00    +0.000 C 
ATOM     11  C   UNL     1       0.183   9.413  19.364  0.00  0.00    +0.000 C 
ATOM     12  N   UNL     1       1.424   9.389  18.589  0.00  0.00    +0.000 N 
ATOM     13  C   UNL     1       2.275   8.325  18.319  0.00  0.00    +0.000 C 
ATOM     14  O   UNL     1       3.257   8.511  17.583  0.00  0.00    +0.000 OA
ATOM     15  C   UNL     1       1.830  10.725  18.151  0.00  0.00    +0.000 C 
ENDROOT
BRANCH  13  16
ATOM     16  C   UNL     1       2.054   6.930  18.850  0.00  0.00    +0.000 A 
ATOM     17  C   UNL     1       2.203   5.923  17.955  0.00  0.00    +0.000 A 
ATOM     18  C   UNL     1       2.075   4.521  18.365  0.00  0.00    +0.000 A 
ATOM     19  C   UNL     1       2.586   3.463  17.614  0.00  0.00    +0.000 A 
ATOM     20  C   UNL     1       2.487   2.154  18.102  0.00  0.00    +0.000 A 
ATOM     21  C   UNL     1       1.821   1.893  19.301  0.00  0.00    +0.000 A 
ATOM     22  C   UNL     1       1.282   2.940  20.042  0.00  0.00    +0.000 A 
ATOM     23  C   UNL     1       1.459   4.245  19.589  0.00  0.00    +0.000 A 
ATOM     24  N   UNL     1       1.182   5.311  20.451  0.00  0.00    +0.000 N 
ATOM     25  C   UNL     1       1.802   6.520  20.253  0.00  0.00    +0.000 A 
ATOM     26  O   UNL     1       2.134   7.171  21.239  0.00  0.00    +0.000 OA
ATOM     27  H   UNL     1       0.963   5.100  21.415  0.00  0.00    +0.000 HD
ENDBRANCH  13  16
TORSDOF 1
ENDMDL
MODEL 7
REMARK VINA RESULT:      -7.3      1.142      1.366
REMARK  Name = 
REMARK  3 active torsions:
REMARK  status: ('A' for Active; 'I' for Inactive)
REMARK    1  A    between atoms: C_1  and  N_2
REMARK    2  A    between atoms: N_2  and  C_3
REMARK    3  A    between atoms: C_13  and  C_15
REMARK                            x       y       z     vdW  Elec       q    Type
REMARK                         _______ _______ _______ _____ _____    ______ ____
ROOT
ATOM      1  C   UNL     1       3.349   3.551  19.770  0.00  0.00    +0.000 C 
ATOM      2  N   UNL     1       4.188   4.559  19.139  0.00  0.00    +0.000 N 
ATOM      3  C   UNL     1       5.169   4.099  18.163  0.00  0.00    +0.000 C 
ATOM      4  C   UNL     1       3.596   5.796  18.844  0.00  0.00    +0.000 A 
ATOM      5  C   UNL     1       2.691   6.381  19.725  0.00  0.00    +0.000 A 
ATOM      6  C   UNL     1       2.124   7.630  19.454  0.00  0.00    +0.000 A 
ATOM      7  C   UNL     1       2.449   8.248  18.253  0.00  0.00    +0.000 A 
ATOM      8  N   UNL     1       3.336   7.691  17.407  0.00  0.00    +0.000 NA
ATOM      9  N   UNL     1       3.914   6.472  17.719  0.00  0.00    +0.000 NA
ATOM     10  C   UNL     1       1.856   9.579  17.881  0.00  0.00    +0.000 C 
ATOM     11  C   UNL     1       0.553   9.790  18.658  0.00  0.00    +0.000 C 
ATOM     12  N   UNL     1       0.821   9.631  20.088  0.00  0.00    +0.000 N 
ATOM     13  C   UNL     1       0.888  10.596  21.085  0.00  0.00    +0.000 C 
ATOM     14  O   UNL     1       1.074  10.236  22.259  0.00  0.00    +0.000 OA
ATOM     15  C   UNL     1       1.164   8.252  20.437  0.00  0.00    +0.000 C 
ENDROOT
BRANCH  13  16
ATOM     16  C   UNL     1       0.716  12.072  20.826  0.00  0.00    +0.000 A 
ATOM     17  C   UNL     1       1.739  12.685  20.181  0.00  0.00    +0.000 A 
ATOM     18  C   UNL     1       1.662  14.103  19.817  0.00  0.00    +0.000 A 
ATOM     19  C   UNL     1       2.475  14.680  18.842  0.00  0.00    +0.000 A 
ATOM     20  C   UNL     1       2.299  16.025  18.498  0.00  0.00    +0.000 A 
ATOM     21  C   UNL     1       1.362  16.813  19.171  0.00  0.00    +0.000 A 
ATOM     22  C   UNL     1       0.567  16.253  20.166  0.00  0.00    +0.000 A 
ATOM     23  C   UNL     1       0.693  14.894  20.442  0.00  0.00    +0.000 A 
ATOM     24  N   UNL     1      -0.281  14.262  21.221  0.00  0.00    +0.000 N 
ATOM     25  C   UNL     1      -0.480  12.910  21.091  0.00  0.00    +0.000 A 
ATOM     26  O   UNL     1      -1.626  12.480  21.173  0.00  0.00    +0.000 OA
ATOM     27  H   UNL     1      -1.106  14.789  21.473  0.00  0.00    +0.000 HD
ENDBRANCH  13  16
TORSDOF 1
ENDMDL
MODEL 8
REMARK VINA RESULT:      -7.2      3.731      8.128
REMARK  Name = 
REMARK  3 active torsions:
REMARK  status: ('A' for Active; 'I' for Inactive)
REMARK    1  A    between atoms: C_1  and  N_2
REMARK    2  A    between atoms: N_2  and  C_3
REMARK    3  A    between atoms: C_13  and  C_15
REMARK                            x       y       z     vdW  Elec       q    Type
REMARK                         _______ _______ _______ _____ _____    ______ ____
ROOT
ATOM      1  C   UNL     1      -6.319  14.747  19.336  0.00  0.00    +0.000 C 
ATOM      2  N   UNL     1      -6.576  13.325  19.159  0.00  0.00    +0.000 N 
ATOM      3  C   UNL     1      -7.850  12.942  18.563  0.00  0.00    +0.000 C 
ATOM      4  C   UNL     1      -5.488  12.515  18.800  0.00  0.00    +0.000 A 
ATOM      5  C   UNL     1      -4.227  12.730  19.349  0.00  0.00    +0.000 A 
ATOM      6  C   UNL     1      -3.147  11.905  19.021  0.00  0.00    +0.000 A 
ATOM      7  C   UNL     1      -3.356  10.895  18.091  0.00  0.00    +0.000 A 
ATOM      8  N   UNL     1      -4.578  10.675  17.571  0.00  0.00    +0.000 NA
ATOM      9  N   UNL     1      -5.640  11.482  17.943  0.00  0.00    +0.000 NA
ATOM     10  C   UNL     1      -2.233   9.986  17.669  0.00  0.00    +0.000 C 
ATOM     11  C   UNL     1      -0.892  10.675  17.939  0.00  0.00    +0.000 C 
ATOM     12  N   UNL     1      -0.840  11.081  19.344  0.00  0.00    +0.000 N 
ATOM     13  C   UNL     1      -0.108  10.538  20.392  0.00  0.00    +0.000 C 
ATOM     14  O   UNL     1      -0.166  11.077  21.509  0.00  0.00    +0.000 OA
ATOM     15  C   UNL     1      -1.796  12.146  19.649  0.00  0.00    +0.000 C 
ENDROOT
BRANCH  13  16
ATOM     16  C   UNL     1       0.790   9.335  20.242  0.00  0.00    +0.000 A 
ATOM     17  C   UNL     1       1.285   9.115  18.999  0.00  0.00    +0.000 A 
ATOM     18  C   UNL     1       2.218   8.013  18.741  0.00  0.00    +0.000 A 
ATOM     19  C   UNL     1       3.043   7.968  17.619  0.00  0.00    +0.000 A 
ATOM     20  C   UNL     1       3.959   6.919  17.472  0.00  0.00    +0.000 A 
ATOM     21  C   UNL     1       4.005   5.882  18.407  0.00  0.00    +0.000 A 
ATOM     22  C   UNL     1       3.164   5.905  19.514  0.00  0.00    +0.000 A 
ATOM     23  C   UNL     1       2.316   6.994  19.693  0.00  0.00    +0.000 A 
ATOM     24  N   UNL     1       1.683   7.172  20.927  0.00  0.00    +0.000 N 
ATOM     25  C   UNL     1       1.284   8.430  21.309  0.00  0.00    +0.000 A 
ATOM     26  O   UNL     1       1.385   8.738  22.492  0.00  0.00    +0.000 OA
ATOM     27  H   UNL     1       1.945   6.562  21.690  0.00  0.00    +0.000 HD
ENDBRANCH  13  16
TORSDOF 1
ENDMDL
MODEL 9
REMARK VINA RESULT:      -7.1      1.474      2.308
REMARK  Name = 
REMARK  3 active torsions:
REMARK  status: ('A' for Active; 'I' for Inactive)
REMARK    1  A    between atoms: C_1  and  N_2
REMARK    2  A    between atoms: N_2  and  C_3
REMARK    3  A    between atoms: C_13  and  C_15
REMARK                            x       y       z     vdW  Elec       q    Type
REMARK                         _______ _______ _______ _____ _____    ______ ____
ROOT
ATOM      1  C   UNL     1       2.688   3.993  20.773  0.00  0.00    +0.000 C 
ATOM      2  N   UNL     1       3.617   4.821  20.018  0.00  0.00    +0.000 N 
ATOM      3  C   UNL     1       4.609   4.138  19.196  0.00  0.00    +0.000 C 
ATOM      4  C   UNL     1       3.118   6.014  19.473  0.00  0.00    +0.000 A 
ATOM      5  C   UNL     1       2.214   6.799  20.184  0.00  0.00    +0.000 A 
ATOM      6  C   UNL     1       1.740   8.006  19.661  0.00  0.00    +0.000 A 
ATOM      7  C   UNL     1       2.157   8.375  18.389  0.00  0.00    +0.000 A 
ATOM      8  N   UNL     1       3.044   7.626  17.706  0.00  0.00    +0.000 NA
ATOM      9  N   UNL     1       3.529   6.455  18.264  0.00  0.00    +0.000 NA
ATOM     10  C   UNL     1       1.667   9.646  17.750  0.00  0.00    +0.000 C 
ATOM     11  C   UNL     1       0.347  10.066  18.404  0.00  0.00    +0.000 C 
ATOM     12  N   UNL     1       0.540  10.157  19.851  0.00  0.00    +0.000 N 
ATOM     13  C   UNL     1       0.625  11.283  20.661  0.00  0.00    +0.000 C 
ATOM     14  O   UNL     1       0.735  11.134  21.889  0.00  0.00    +0.000 OA
ATOM     15  C   UNL     1       0.779   8.849  20.462  0.00  0.00    +0.000 C 
ENDROOT
BRANCH  13  16
ATOM     16  C   UNL     1       0.558  12.694  20.131  0.00  0.00    +0.000 A 
ATOM     17  C   UNL     1      -0.609  13.352  20.337  0.00  0.00    +0.000 A 
ATOM     18  C   UNL     1      -0.774  14.748  19.923  0.00  0.00    +0.000 A 
ATOM     19  C   UNL     1      -1.769  15.578  20.437  0.00  0.00    +0.000 A 
ATOM     20  C   UNL     1      -1.824  16.921  20.047  0.00  0.00    +0.000 A 
ATOM     21  C   UNL     1      -0.932  17.420  19.095  0.00  0.00    +0.000 A 
ATOM     22  C   UNL     1       0.046  16.591  18.555  0.00  0.00    +0.000 A 
ATOM     23  C   UNL     1       0.144  15.279  19.012  0.00  0.00    +0.000 A 
ATOM     24  N   UNL     1       1.281  14.530  18.699  0.00  0.00    +0.000 N 
ATOM     25  C   UNL     1       1.649  13.486  19.511  0.00  0.00    +0.000 A 
ATOM     26  O   UNL     1       2.846  13.288  19.698  0.00  0.00    +0.000 OA
ATOM     27  H   UNL     1       2.050  14.998  18.239  0.00  0.00    +0.000 HD
ENDBRANCH  13  16
TORSDOF 1
ENDMDL
