MODEL 1
REMARK VINA RESULT:      -7.7      0.000      0.000
REMARK  Name = 
REMARK  5 active torsions:
REMARK  status: ('A' for Active; 'I' for Inactive)
REMARK    1  A    between atoms: C_1  and  O_2
REMARK    2  A    between atoms: O_2  and  C_3
REMARK    3  A    between atoms: C_4  and  O_5
REMARK    4  A    between atoms: C_9  and  C_10
REMARK    5  A    between atoms: C_21  and  O_22
REMARK                            x       y       z     vdW  Elec       q    Type
REMARK                         _______ _______ _______ _____ _____    ______ ____
ROOT
ATOM      1  C   UNL     1       0.502  10.706  21.346  0.00  0.00    +0.000 A 
ATOM      2  C   UNL     1       0.588   9.652  22.272  0.00  0.00    +0.000 A 
ATOM      3  C   UNL     1       1.075   8.399  21.922  0.00  0.00    +0.000 A 
ATOM      4  C   UNL     1       1.484   8.176  20.610  0.00  0.00    +0.000 A 
ATOM      5  O   UNL     1       1.907   6.909  20.292  0.00  0.00    +0.000 OA
ATOM      6  C   UNL     1       2.289   6.643  18.984  0.00  0.00    +0.000 A 
ATOM      7  C   UNL     1       2.317   7.566  18.013  0.00  0.00    +0.000 A 
ATOM      8  C   UNL     1       1.885   8.936  18.315  0.00  0.00    +0.000 A 
ATOM      9  O   UNL     1       1.882   9.804  17.449  0.00  0.00    +0.000 OA
ATOM     10  C   UNL     1       1.446   9.217  19.684  0.00  0.00    +0.000 A 
ATOM     11  C   UNL     1       0.977  10.491  20.046  0.00  0.00    +0.000 A 
ENDROOT
BRANCH   6  12
ATOM     12  C   UNL     1       2.700   5.242  18.735  0.00  0.00    +0.000 A 
ATOM     13  C   UNL     1       1.968   4.443  17.842  0.00  0.00    +0.000 A 
ATOM     14  C   UNL     1       2.334   3.114  17.602  0.00  0.00    +0.000 A 
ATOM     15  C   UNL     1       3.438   2.581  18.252  0.00  0.00    +0.000 A 
ATOM     16  F   UNL     1       3.785   1.305  18.026  0.00  0.00    +0.000 F 
ATOM     17  C   UNL     1       4.189   3.351  19.128  0.00  0.00    +0.000 A 
ATOM     18  C   UNL     1       3.827   4.679  19.363  0.00  0.00    +0.000 A 
ENDBRANCH   6  12
BRANCH   1  20
ATOM     19  C   UNL     1      -1.410  12.098  21.504  0.00  0.00    +0.000 C 
ATOM     20  O   UNL     1      -0.046  11.860  21.847  0.00  0.00    +0.000 OA
ENDBRANCH   1  20
BRANCH   2  21
ATOM     21  O   UNL     1       0.157   9.836  23.560  0.00  0.00    +0.000 OA
ATOM     22  H   UNL     1      -0.806   9.671  23.537  0.00  0.00    +0.000 HD
ENDBRANCH   2  21
BRANCH  11  23
ATOM     23  O   UNL     1       0.991  11.524  19.144  0.00  0.00    +0.000 OA
ATOM     24  H   UNL     1       1.919  11.696  18.864  0.00  0.00    +0.000 HD
ENDBRANCH  11  23
TORSDOF 4
ENDMDL
MODEL 2
REMARK VINA RESULT:      -7.7      0.179      1.036
REMARK  Name = 
REMARK  5 active torsions:
REMARK  status: ('A' for Active; 'I' for Inactive)
REMARK    1  A    between atoms: C_1  and  O_2
REMARK    2  A    between atoms: O_2  and  C_3
REMARK    3  A    between atoms: C_4  and  O_5
REMARK    4  A    between atoms: C_9  and  C_10
REMARK    5  A    between atoms: C_21  and  O_22
REMARK                            x       y       z     vdW  Elec       q    Type
REMARK                         _______ _______ _______ _____ _____    ______ ____
ROOT
ATOM      1  C   UNL     1       0.637  10.712  21.271  0.00  0.00    +0.000 A 
ATOM      2  C   UNL     1       0.700   9.644  22.182  0.00  0.00    +0.000 A 
ATOM      3  C   UNL     1       1.158   8.385  21.814  0.00  0.00    +0.000 A 
ATOM      4  C   UNL     1       1.560   8.171  20.499  0.00  0.00    +0.000 A 
ATOM      5  O   UNL     1       1.954   6.898  20.163  0.00  0.00    +0.000 OA
ATOM      6  C   UNL     1       2.327   6.641  18.850  0.00  0.00    +0.000 A 
ATOM      7  C   UNL     1       2.374   7.578  17.892  0.00  0.00    +0.000 A 
ATOM      8  C   UNL     1       1.973   8.953  18.213  0.00  0.00    +0.000 A 
ATOM      9  O   UNL     1       1.989   9.832  17.359  0.00  0.00    +0.000 OA
ATOM     10  C   UNL     1       1.543   9.225  19.586  0.00  0.00    +0.000 A 
ATOM     11  C   UNL     1       1.104  10.504  19.967  0.00  0.00    +0.000 A 
ENDROOT
BRANCH   6  12
ATOM     12  C   UNL     1       2.705   5.236  18.581  0.00  0.00    +0.000 A 
ATOM     13  C   UNL     1       3.934   4.737  19.045  0.00  0.00    +0.000 A 
ATOM     14  C   UNL     1       4.313   3.415  18.792  0.00  0.00    +0.000 A 
ATOM     15  C   UNL     1       3.462   2.584  18.078  0.00  0.00    +0.000 A 
ATOM     16  F   UNL     1       3.829   1.318  17.830  0.00  0.00    +0.000 F 
ATOM     17  C   UNL     1       2.236   3.044  17.620  0.00  0.00    +0.000 A 
ATOM     18  C   UNL     1       1.855   4.362  17.877  0.00  0.00    +0.000 A 
ENDBRANCH   6  12
BRANCH   1  20
ATOM     19  C   UNL     1      -1.249  12.135  21.468  0.00  0.00    +0.000 C 
ATOM     20  O   UNL     1       0.116  11.871  21.789  0.00  0.00    +0.000 OA
ENDBRANCH   1  20
BRANCH   2  21
ATOM     21  O   UNL     1       0.276   9.819  23.474  0.00  0.00    +0.000 OA
ATOM     22  H   UNL     1       1.067  10.114  23.968  0.00  0.00    +0.000 HD
ENDBRANCH   2  21
BRANCH  11  23
ATOM     23  O   UNL     1       1.140  11.549  19.080  0.00  0.00    +0.000 OA
ATOM     24  H   UNL     1       1.902  12.132  19.298  0.00  0.00    +0.000 HD
ENDBRANCH  11  23
TORSDOF 4
ENDMDL
MODEL 3
REMARK VINA RESULT:      -7.5      3.483      7.201
REMARK  Name = 
REMARK  5 active torsions:
REMARK  status: ('A' for Active; 'I' for Inactive)
REMARK    1  A    between atoms: C_1  and  O_2
REMARK    2  A    between atoms: O_2  and  C_3
REMARK    3  A    between atoms: C_4  and  O_5
REMARK    4  A    between atoms: C_9  and  C_10
REMARK    5  A    between atoms: C_21  and  O_22
REMARK                            x       y       z     vdW  Elec       q    Type
REMARK                         _______ _______ _______ _____ _____    ______ ____
ROOT
ATOM      1  C   UNL     1       3.428   3.854  19.274  0.00  0.00    +0.000 A 
ATOM      2  C   UNL     1       2.735   3.718  20.489  0.00  0.00    +0.000 A 
ATOM      3  C   UNL     1       2.024   4.769  21.055  0.00  0.00    +0.000 A 
ATOM      4  C   UNL     1       2.004   5.999  20.404  0.00  0.00    +0.000 A 
ATOM      5  O   UNL     1       1.336   7.026  21.024  0.00  0.00    +0.000 OA
ATOM      6  C   UNL     1       1.326   8.276  20.419  0.00  0.00    +0.000 A 
ATOM      7  C   UNL     1       1.892   8.533  19.232  0.00  0.00    +0.000 A 
ATOM      8  C   UNL     1       2.604   7.459  18.530  0.00  0.00    +0.000 A 
ATOM      9  O   UNL     1       3.147   7.661  17.449  0.00  0.00    +0.000 OA
ATOM     10  C   UNL     1       2.651   6.147  19.178  0.00  0.00    +0.000 A 
ATOM     11  C   UNL     1       3.348   5.076  18.594  0.00  0.00    +0.000 A 
ENDROOT
BRANCH   6  12
ATOM     12  C   UNL     1       0.606   9.322  21.180  0.00  0.00    +0.000 A 
ATOM     13  C   UNL     1       0.552  10.637  20.688  0.00  0.00    +0.000 A 
ATOM     14  C   UNL     1      -0.114  11.642  21.398  0.00  0.00    +0.000 A 
ATOM     15  C   UNL     1      -0.733  11.334  22.601  0.00  0.00    +0.000 A 
ATOM     16  F   UNL     1      -1.366  12.299  23.284  0.00  0.00    +0.000 F 
ATOM     17  C   UNL     1      -0.708  10.041  23.105  0.00  0.00    +0.000 A 
ATOM     18  C   UNL     1      -0.048   9.037  22.393  0.00  0.00    +0.000 A 
ENDBRANCH   6  12
BRANCH   1  20
ATOM     19  C   UNL     1       3.421   1.859  17.993  0.00  0.00    +0.000 C 
ATOM     20  O   UNL     1       4.115   2.732  18.882  0.00  0.00    +0.000 OA
ENDBRANCH   1  20
BRANCH   2  21
ATOM     21  O   UNL     1       2.769   2.528  21.168  0.00  0.00    +0.000 OA
ATOM     22  H   UNL     1       1.920   2.480  21.650  0.00  0.00    +0.000 HD
ENDBRANCH   2  21
BRANCH  11  23
ATOM     23  O   UNL     1       3.937   5.213  17.363  0.00  0.00    +0.000 OA
ATOM     24  H   UNL     1       4.576   4.476  17.228  0.00  0.00    +0.000 HD
ENDBRANCH  11  23
TORSDOF 4
ENDMDL
MODEL 4
REMARK VINA RESULT:      -7.5      5.311      6.813
REMARK  Name = 
REMARK  5 active torsions:
REMARK  status: ('A' for Active; 'I' for Inactive)
REMARK    1  A    between atoms: C_1  and  O_2
REMARK    2  A    between atoms: O_2  and  C_3
REMARK    3  A    between atoms: C_4  and  O_5
REMARK    4  A    between atoms: C_9  and  C_10
REMARK    5  A    between atoms: C_21  and  O_22
REMARK                            x       y       z     vdW  Elec       q    Type
REMARK                         _______ _______ _______ _____ _____    ______ ____
ROOT
ATOM      1  C   UNL     1       1.854   3.598  19.713  0.00  0.00    +0.000 A 
ATOM      2  C   UNL     1       1.453   2.897  18.562  0.00  0.00    +0.000 A 
ATOM      3  C   UNL     1       2.210   2.897  17.397  0.00  0.00    +0.000 A 
ATOM      4  C   UNL     1       3.399   3.620  17.364  0.00  0.00    +0.000 A 
ATOM      5  O   UNL     1       4.088   3.638  16.176  0.00  0.00    +0.000 OA
ATOM      6  C   UNL     1       5.261   4.379  16.098  0.00  0.00    +0.000 A 
ATOM      7  C   UNL     1       5.792   5.044  17.133  0.00  0.00    +0.000 A 
ATOM      8  C   UNL     1       5.093   5.038  18.424  0.00  0.00    +0.000 A 
ATOM      9  O   UNL     1       5.541   5.648  19.389  0.00  0.00    +0.000 OA
ATOM     10  C   UNL     1       3.837   4.290  18.505  0.00  0.00    +0.000 A 
ATOM     11  C   UNL     1       3.083   4.268  19.691  0.00  0.00    +0.000 A 
ENDROOT
BRANCH   6  12
ATOM     12  C   UNL     1       5.914   4.360  14.770  0.00  0.00    +0.000 A 
ATOM     13  C   UNL     1       5.363   3.598  13.726  0.00  0.00    +0.000 A 
ATOM     14  C   UNL     1       5.971   3.559  12.467  0.00  0.00    +0.000 A 
ATOM     15  C   UNL     1       7.131   4.287  12.245  0.00  0.00    +0.000 A 
ATOM     16  F   UNL     1       7.717   4.245  11.039  0.00  0.00    +0.000 F 
ATOM     17  C   UNL     1       7.690   5.061  13.252  0.00  0.00    +0.000 A 
ATOM     18  C   UNL     1       7.080   5.104  14.508  0.00  0.00    +0.000 A 
ENDBRANCH   6  12
BRANCH   1  20
ATOM     19  C   UNL     1       1.325   2.647  21.819  0.00  0.00    +0.000 C 
ATOM     20  O   UNL     1       0.967   3.530  20.757  0.00  0.00    +0.000 OA
ENDBRANCH   1  20
BRANCH   2  21
ATOM     21  O   UNL     1       0.268   2.208  18.557  0.00  0.00    +0.000 OA
ATOM     22  H   UNL     1      -0.401   2.841  18.886  0.00  0.00    +0.000 HD
ENDBRANCH   2  21
BRANCH  11  23
ATOM     23  O   UNL     1       3.545   4.885  20.824  0.00  0.00    +0.000 OA
ATOM     24  H   UNL     1       4.317   4.384  21.174  0.00  0.00    +0.000 HD
ENDBRANCH  11  23
TORSDOF 4
ENDMDL
MODEL 5
REMARK VINA RESULT:      -7.5      3.482      7.215
REMARK  Name = 
REMARK  5 active torsions:
REMARK  status: ('A' for Active; 'I' for Inactive)
REMARK    1  A    between atoms: C_1  and  O_2
REMARK    2  A    between atoms: O_2  and  C_3
REMARK    3  A    between atoms: C_4  and  O_5
REMARK    4  A    between atoms: C_9  and  C_10
REMARK    5  A    between atoms: C_21  and  O_22
REMARK                            x       y       z     vdW  Elec       q    Type
REMARK                         _______ _______ _______ _____ _____    ______ ____
ROOT
ATOM      1  C   UNL     1       3.436   3.819  19.299  0.00  0.00    +0.000 A 
ATOM      2  C   UNL     1       2.750   3.697  20.519  0.00  0.00    +0.000 A 
ATOM      3  C   UNL     1       2.045   4.756  21.078  0.00  0.00    +0.000 A 
ATOM      4  C   UNL     1       2.024   5.979  20.414  0.00  0.00    +0.000 A 
ATOM      5  O   UNL     1       1.362   7.014  21.027  0.00  0.00    +0.000 OA
ATOM      6  C   UNL     1       1.351   8.258  20.408  0.00  0.00    +0.000 A 
ATOM      7  C   UNL     1       1.911   8.501  19.215  0.00  0.00    +0.000 A 
ATOM      8  C   UNL     1       2.617   7.417  18.520  0.00  0.00    +0.000 A 
ATOM      9  O   UNL     1       3.154   7.606  17.435  0.00  0.00    +0.000 OA
ATOM     10  C   UNL     1       2.664   6.112  19.183  0.00  0.00    +0.000 A 
ATOM     11  C   UNL     1       3.355   5.033  18.606  0.00  0.00    +0.000 A 
ENDROOT
BRANCH   6  12
ATOM     12  C   UNL     1       0.639   9.314  21.161  0.00  0.00    +0.000 A 
ATOM     13  C   UNL     1       0.052   9.019  22.402  0.00  0.00    +0.000 A 
ATOM     14  C   UNL     1      -0.634  10.001  23.124  0.00  0.00    +0.000 A 
ATOM     15  C   UNL     1      -0.732  11.286  22.609  0.00  0.00    +0.000 A 
ATOM     16  F   UNL     1      -1.396  12.226  23.298  0.00  0.00    +0.000 F 
ATOM     17  C   UNL     1      -0.150  11.611  21.392  0.00  0.00    +0.000 A 
ATOM     18  C   UNL     1       0.540  10.631  20.674  0.00  0.00    +0.000 A 
ENDBRANCH   6  12
BRANCH   1  20
ATOM     19  C   UNL     1       3.447   1.847  17.983  0.00  0.00    +0.000 C 
ATOM     20  O   UNL     1       4.119   2.691  18.916  0.00  0.00    +0.000 OA
ENDBRANCH   1  20
BRANCH   2  21
ATOM     21  O   UNL     1       2.785   2.515  21.211  0.00  0.00    +0.000 OA
ATOM     22  H   UNL     1       2.052   1.980  20.847  0.00  0.00    +0.000 HD
ENDBRANCH   2  21
BRANCH  11  23
ATOM     23  O   UNL     1       3.938   5.155  17.371  0.00  0.00    +0.000 OA
ATOM     24  H   UNL     1       3.242   5.355  16.704  0.00  0.00    +0.000 HD
ENDBRANCH  11  23
TORSDOF 4
ENDMDL
MODEL 6
REMARK VINA RESULT:      -7.5      5.356      6.903
REMARK  Name = 
REMARK  5 active torsions:
REMARK  status: ('A' for Active; 'I' for Inactive)
REMARK    1  A    between atoms: C_1  and  O_2
REMARK    2  A    between atoms: O_2  and  C_3
REMARK    3  A    between atoms: C_4  and  O_5
REMARK    4  A    between atoms: C_9  and  C_10
REMARK    5  A    between atoms: C_21  and  O_22
REMARK                            x       y       z     vdW  Elec       q    Type
REMARK                         _______ _______ _______ _____ _____    ______ ____
ROOT
ATOM      1  C   UNL     1       1.864   3.571  19.718  0.00  0.00    +0.000 A 
ATOM      2  C   UNL     1       1.447   2.892  18.560  0.00  0.00    +0.000 A 
ATOM      3  C   UNL     1       2.198   2.895  17.391  0.00  0.00    +0.000 A 
ATOM      4  C   UNL     1       3.398   3.601  17.362  0.00  0.00    +0.000 A 
ATOM      5  O   UNL     1       4.082   3.624  16.171  0.00  0.00    +0.000 OA
ATOM      6  C   UNL     1       5.265   4.348  16.097  0.00  0.00    +0.000 A 
ATOM      7  C   UNL     1       5.811   4.992  17.138  0.00  0.00    +0.000 A 
ATOM      8  C   UNL     1       5.118   4.980  18.431  0.00  0.00    +0.000 A 
ATOM      9  O   UNL     1       5.579   5.570  19.402  0.00  0.00    +0.000 OA
ATOM     10  C   UNL     1       3.851   4.250  18.509  0.00  0.00    +0.000 A 
ATOM     11  C   UNL     1       3.103   4.224  19.698  0.00  0.00    +0.000 A 
ENDROOT
BRANCH   6  12
ATOM     12  C   UNL     1       5.910   4.337  14.765  0.00  0.00    +0.000 A 
ATOM     13  C   UNL     1       7.090   5.069  14.549  0.00  0.00    +0.000 A 
ATOM     14  C   UNL     1       7.709   5.079  13.294  0.00  0.00    +0.000 A 
ATOM     15  C   UNL     1       7.153   4.353  12.251  0.00  0.00    +0.000 A 
ATOM     16  F   UNL     1       7.743   4.368  11.047  0.00  0.00    +0.000 F 
ATOM     17  C   UNL     1       5.996   3.609  12.438  0.00  0.00    +0.000 A 
ATOM     18  C   UNL     1       5.382   3.594  13.692  0.00  0.00    +0.000 A 
ENDBRANCH   6  12
BRANCH   1  20
ATOM     19  C   UNL     1       1.334   2.604  21.816  0.00  0.00    +0.000 C 
ATOM     20  O   UNL     1       0.981   3.503  20.766  0.00  0.00    +0.000 OA
ENDBRANCH   1  20
BRANCH   2  21
ATOM     21  O   UNL     1       0.252   2.220  18.553  0.00  0.00    +0.000 OA
ATOM     22  H   UNL     1      -0.380   2.822  18.112  0.00  0.00    +0.000 HD
ENDBRANCH   2  21
BRANCH  11  23
ATOM     23  O   UNL     1       3.580   4.819  20.838  0.00  0.00    +0.000 OA
ATOM     24  H   UNL     1       2.963   4.631  21.582  0.00  0.00    +0.000 HD
ENDBRANCH  11  23
TORSDOF 4
ENDMDL
MODEL 7
REMARK VINA RESULT:      -7.4      1.223      1.382
REMARK  Name = 
REMARK  5 active torsions:
REMARK  status: ('A' for Active; 'I' for Inactive)
REMARK    1  A    between atoms: C_1  and  O_2
REMARK    2  A    between atoms: O_2  and  C_3
REMARK    3  A    between atoms: C_4  and  O_5
REMARK    4  A    between atoms: C_9  and  C_10
REMARK    5  A    between atoms: C_21  and  O_22
REMARK                            x       y       z     vdW  Elec       q    Type
REMARK                         _______ _______ _______ _____ _____    ______ ____
ROOT
ATOM      1  C   UNL     1      -0.054  11.146  20.805  0.00  0.00    +0.000 A 
ATOM      2  C   UNL     1       0.003  10.335  21.952  0.00  0.00    +0.000 A 
ATOM      3  C   UNL     1       0.632   9.096  21.949  0.00  0.00    +0.000 A 
ATOM      4  C   UNL     1       1.216   8.638  20.772  0.00  0.00    +0.000 A 
ATOM      5  O   UNL     1       1.779   7.385  20.797  0.00  0.00    +0.000 OA
ATOM      6  C   UNL     1       2.340   6.883  19.630  0.00  0.00    +0.000 A 
ATOM      7  C   UNL     1       2.411   7.571  18.482  0.00  0.00    +0.000 A 
ATOM      8  C   UNL     1       1.833   8.919  18.417  0.00  0.00    +0.000 A 
ATOM      9  O   UNL     1       1.866   9.572  17.380  0.00  0.00    +0.000 OA
ATOM     10  C   UNL     1       1.207   9.442  19.633  0.00  0.00    +0.000 A 
ATOM     11  C   UNL     1       0.594  10.706  19.644  0.00  0.00    +0.000 A 
ENDROOT
BRANCH   6  12
ATOM     12  C   UNL     1       2.892   5.515  19.752  0.00  0.00    +0.000 A 
ATOM     13  C   UNL     1       4.105   5.188  19.123  0.00  0.00    +0.000 A 
ATOM     14  C   UNL     1       4.637   3.898  19.218  0.00  0.00    +0.000 A 
ATOM     15  C   UNL     1       3.960   2.930  19.946  0.00  0.00    +0.000 A 
ATOM     16  F   UNL     1       4.468   1.692  20.032  0.00  0.00    +0.000 F 
ATOM     17  C   UNL     1       2.767   3.228  20.590  0.00  0.00    +0.000 A 
ATOM     18  C   UNL     1       2.239   4.518  20.500  0.00  0.00    +0.000 A 
ENDBRANCH   6  12
BRANCH   1  20
ATOM     19  C   UNL     1      -2.066  12.336  20.415  0.00  0.00    +0.000 C 
ATOM     20  O   UNL     1      -0.753  12.315  20.970  0.00  0.00    +0.000 OA
ENDBRANCH   1  20
BRANCH   2  21
ATOM     21  O   UNL     1      -0.597  10.747  23.113  0.00  0.00    +0.000 OA
ATOM     22  H   UNL     1      -1.552  10.588  22.982  0.00  0.00    +0.000 HD
ENDBRANCH   2  21
BRANCH  11  23
ATOM     23  O   UNL     1       0.634  11.513  18.537  0.00  0.00    +0.000 OA
ATOM     24  H   UNL     1       1.570  11.626  18.253  0.00  0.00    +0.000 HD
ENDBRANCH  11  23
TORSDOF 4
ENDMDL
MODEL 8
REMARK VINA RESULT:      -7.4      1.286      1.331
REMARK  Name = 
REMARK  5 active torsions:
REMARK  status: ('A' for Active; 'I' for Inactive)
REMARK    1  A    between atoms: C_1  and  O_2
REMARK    2  A    between atoms: O_2  and  C_3
REMARK    3  A    between atoms: C_4  and  O_5
REMARK    4  A    between atoms: C_9  and  C_10
REMARK    5  A    between atoms: C_21  and  O_22
REMARK                            x       y       z     vdW  Elec       q    Type
REMARK                         _______ _______ _______ _____ _____    ______ ____
ROOT
ATOM      1  C   UNL     1      -0.204  11.093  20.686  0.00  0.00    +0.000 A 
ATOM      2  C   UNL     1      -0.214  10.257  21.815  0.00  0.00    +0.000 A 
ATOM      3  C   UNL     1       0.436   9.029  21.830  0.00  0.00    +0.000 A 
ATOM      4  C   UNL     1       1.111   8.608  20.688  0.00  0.00    +0.000 A 
ATOM      5  O   UNL     1       1.693   7.365  20.726  0.00  0.00    +0.000 OA
ATOM      6  C   UNL     1       2.344   6.899  19.591  0.00  0.00    +0.000 A 
ATOM      7  C   UNL     1       2.484   7.614  18.466  0.00  0.00    +0.000 A 
ATOM      8  C   UNL     1       1.888   8.954  18.389  0.00  0.00    +0.000 A 
ATOM      9  O   UNL     1       1.982   9.631  17.372  0.00  0.00    +0.000 OA
ATOM     10  C   UNL     1       1.168   9.438  19.569  0.00  0.00    +0.000 A 
ATOM     11  C   UNL     1       0.532  10.691  19.564  0.00  0.00    +0.000 A 
ENDROOT
BRANCH   6  12
ATOM     12  C   UNL     1       2.911   5.538  19.721  0.00  0.00    +0.000 A 
ATOM     13  C   UNL     1       2.217   4.553  20.443  0.00  0.00    +0.000 A 
ATOM     14  C   UNL     1       2.742   3.264  20.586  0.00  0.00    +0.000 A 
ATOM     15  C   UNL     1       3.962   2.954  20.003  0.00  0.00    +0.000 A 
ATOM     16  F   UNL     1       4.468   1.720  20.146  0.00  0.00    +0.000 F 
ATOM     17  C   UNL     1       4.664   3.902  19.273  0.00  0.00    +0.000 A 
ATOM     18  C   UNL     1       4.137   5.187  19.125  0.00  0.00    +0.000 A 
ENDBRANCH   6  12
BRANCH   1  20
ATOM     19  C   UNL     1      -2.189  12.273  20.149  0.00  0.00    +0.000 C 
ATOM     20  O   UNL     1      -0.934  12.247  20.826  0.00  0.00    +0.000 OA
ENDBRANCH   1  20
BRANCH   2  21
ATOM     21  O   UNL     1      -0.901  10.632  22.940  0.00  0.00    +0.000 OA
ATOM     22  H   UNL     1      -1.287   9.807  23.294  0.00  0.00    +0.000 HD
ENDBRANCH   2  21
BRANCH  11  23
ATOM     23  O   UNL     1       0.636  11.524  18.480  0.00  0.00    +0.000 OA
ATOM     24  H   UNL     1      -0.123  12.152  18.482  0.00  0.00    +0.000 HD
ENDBRANCH  11  23
TORSDOF 4
ENDMDL
MODEL 9
REMARK VINA RESULT:      -7.3      1.628      1.958
REMARK  Name = 
REMARK  5 active torsions:
REMARK  status: ('A' for Active; 'I' for Inactive)
REMARK    1  A    between atoms: C_1  and  O_2
REMARK    2  A    between atoms: O_2  and  C_3
REMARK    3  A    between atoms: C_4  and  O_5
REMARK    4  A    between atoms: C_9  and  C_10
REMARK    5  A    between atoms: C_21  and  O_22
REMARK                            x       y       z     vdW  Elec       q    Type
REMARK                         _______ _______ _______ _____ _____    ______ ____
ROOT
ATOM      1  C   UNL     1      -0.641  10.610  22.023  0.00  0.00    +0.000 A 
ATOM      2  C   UNL     1       0.100   9.630  22.705  0.00  0.00    +0.000 A 
ATOM      3  C   UNL     1       0.956   8.758  22.042  0.00  0.00    +0.000 A 
ATOM      4  C   UNL     1       1.077   8.853  20.659  0.00  0.00    +0.000 A 
ATOM      5  O   UNL     1       1.891   7.937  20.037  0.00  0.00    +0.000 OA
ATOM      6  C   UNL     1       2.007   7.981  18.654  0.00  0.00    +0.000 A 
ATOM      7  C   UNL     1       1.406   8.899  17.884  0.00  0.00    +0.000 A 
ATOM      8  C   UNL     1       0.539   9.904  18.511  0.00  0.00    +0.000 A 
ATOM      9  O   UNL     1      -0.039  10.750  17.838  0.00  0.00    +0.000 OA
ATOM     10  C   UNL     1       0.382   9.843  19.966  0.00  0.00    +0.000 A 
ATOM     11  C   UNL     1      -0.463  10.740  20.640  0.00  0.00    +0.000 A 
ENDROOT
BRANCH   6  12
ATOM     12  C   UNL     1       2.882   6.936  18.076  0.00  0.00    +0.000 A 
ATOM     13  C   UNL     1       2.512   5.583  18.162  0.00  0.00    +0.000 A 
ATOM     14  C   UNL     1       3.331   4.580  17.632  0.00  0.00    +0.000 A 
ATOM     15  C   UNL     1       4.521   4.927  17.008  0.00  0.00    +0.000 A 
ATOM     16  F   UNL     1       5.308   3.965  16.505  0.00  0.00    +0.000 F 
ATOM     17  C   UNL     1       4.905   6.256  16.896  0.00  0.00    +0.000 A 
ATOM     18  C   UNL     1       4.085   7.257  17.420  0.00  0.00    +0.000 A 
ENDBRANCH   6  12
BRANCH   1  20
ATOM     19  C   UNL     1      -1.092  12.715  23.016  0.00  0.00    +0.000 C 
ATOM     20  O   UNL     1      -1.471  11.354  22.824  0.00  0.00    +0.000 OA
ENDBRANCH   1  20
BRANCH   2  21
ATOM     21  O   UNL     1      -0.029   9.493  24.062  0.00  0.00    +0.000 OA
ATOM     22  H   UNL     1      -0.583  10.247  24.347  0.00  0.00    +0.000 HD
ENDBRANCH   2  21
BRANCH  11  23
ATOM     23  O   UNL     1      -1.103  11.744  19.960  0.00  0.00    +0.000 OA
ATOM     24  H   UNL     1      -1.491  12.377  20.608  0.00  0.00    +0.000 HD
ENDBRANCH  11  23
TORSDOF 4
ENDMDL
