MODEL 1
REMARK VINA RESULT:      -7.6      0.000      0.000
REMARK  Name = 
REMARK  4 active torsions:
REMARK  status: ('A' for Active; 'I' for Inactive)
REMARK    1  A    between atoms: N_1  and  C_2
REMARK    2  A    between atoms: C_2  and  C_3
REMARK    3  A    between atoms: C_8  and  N_9
REMARK    4  A    between atoms: C_10  and  C_12
REMARK                            x       y       z     vdW  Elec       q    Type
REMARK                         _______ _______ _______ _____ _____    ______ ____
ROOT
ATOM      1  N   UNL     1       3.647   3.827  17.923  0.00  0.00    +0.000 N 
ATOM      2  C   UNL     1       4.733   4.689  17.821  0.00  0.00    +0.000 C 
ATOM      3  O   UNL     1       5.180   5.372  18.743  0.00  0.00    +0.000 OA
ATOM      4  H   UNL     1       3.451   3.270  17.101  0.00  0.00    +0.000 HD
ENDROOT
BRANCH   2   5
ATOM      5  C   UNL     1       5.451   4.802  16.501  0.00  0.00    +0.000 A 
ATOM      6  C   UNL     1       6.642   5.528  16.508  0.00  0.00    +0.000 A 
ATOM      7  C   UNL     1       7.374   5.639  15.340  0.00  0.00    +0.000 A 
ATOM      8  C   UNL     1       6.946   4.964  14.204  0.00  0.00    +0.000 A 
ATOM      9  C   UNL     1       7.741   4.994  13.045  0.00  0.00    +0.000 A 
ATOM     10  C   UNL     1       7.392   4.230  11.940  0.00  0.00    +0.000 A 
ATOM     11  C   UNL     1       6.226   3.474  11.984  0.00  0.00    +0.000 A 
ATOM     12  C   UNL     1       5.404   3.499  13.124  0.00  0.00    +0.000 A 
ATOM     13  C   UNL     1       5.739   4.220  14.271  0.00  0.00    +0.000 A 
ATOM     14  N   UNL     1       4.969   4.165  15.398  0.00  0.00    +0.000 NA
ENDBRANCH   2   5
BRANCH   1  20
ATOM     15  C   UNL     1       3.257   2.622  20.057  0.00  0.00    +0.000 A 
ATOM     16  C   UNL     1       2.495   2.468  21.246  0.00  0.00    +0.000 A 
ATOM     17  C   UNL     1       1.386   3.270  21.514  0.00  0.00    +0.000 A 
ATOM     18  C   UNL     1       1.003   4.222  20.587  0.00  0.00    +0.000 A 
ATOM     19  C   UNL     1       1.736   4.373  19.403  0.00  0.00    +0.000 A 
ATOM     20  C   UNL     1       2.883   3.605  19.116  0.00  0.00    +0.000 A 
BRANCH  15  21
ATOM     21  C   UNL     1       4.455   1.715  19.929  0.00  0.00    +0.000 C 
BRANCH  21  22
ATOM     22  N   UNL     1       4.340   0.835  18.775  0.00  0.00    +0.000 NA
ATOM     23  H   UNL     1       3.519   1.090  18.230  0.00  0.00    +0.000 HD
ATOM     24  H   UNL     1       4.201  -0.123  19.091  0.00  0.00    +0.000 HD
ENDBRANCH  21  22
ENDBRANCH  15  21
ENDBRANCH   1  20
TORSDOF 4
ENDMDL
MODEL 2
REMARK VINA RESULT:      -7.5      3.873      7.825
REMARK  Name = 
REMARK  4 active torsions:
REMARK  status: ('A' for Active; 'I' for Inactive)
REMARK    1  A    between atoms: N_1  and  C_2
REMARK    2  A    between atoms: C_2  and  C_3
REMARK    3  A    between atoms: C_8  and  N_9
REMARK    4  A    between atoms: C_10  and  C_12
REMARK                            x       y       z     vdW  Elec       q    Type
REMARK                         _______ _______ _______ _____ _____    ______ ____
ROOT
ATOM      1  N   UNL     1       4.486   7.022  17.313  0.00  0.00    +0.000 N 
ATOM      2  C   UNL     1       3.279   6.669  17.906  0.00  0.00    +0.000 C 
ATOM      3  O   UNL     1       2.815   5.528  17.934  0.00  0.00    +0.000 OA
ATOM      4  H   UNL     1       4.775   7.983  17.447  0.00  0.00    +0.000 HD
ENDROOT
BRANCH   2   5
ATOM      5  C   UNL     1       2.465   7.735  18.590  0.00  0.00    +0.000 A 
ATOM      6  C   UNL     1       2.034   8.791  17.788  0.00  0.00    +0.000 A 
ATOM      7  C   UNL     1       1.248   9.786  18.341  0.00  0.00    +0.000 A 
ATOM      8  C   UNL     1       0.844   9.673  19.665  0.00  0.00    +0.000 A 
ATOM      9  C   UNL     1      -0.035  10.630  20.201  0.00  0.00    +0.000 A 
ATOM     10  C   UNL     1      -0.545  10.470  21.482  0.00  0.00    +0.000 A 
ATOM     11  C   UNL     1      -0.138   9.377  22.238  0.00  0.00    +0.000 A 
ATOM     12  C   UNL     1       0.791   8.458  21.717  0.00  0.00    +0.000 A 
ATOM     13  C   UNL     1       1.295   8.558  20.421  0.00  0.00    +0.000 A 
ATOM     14  N   UNL     1       2.132   7.610  19.906  0.00  0.00    +0.000 NA
ENDBRANCH   2   5
BRANCH   1  20
ATOM     15  C   UNL     1       6.462   5.519  17.318  0.00  0.00    +0.000 A 
ATOM     16  C   UNL     1       7.285   4.591  16.627  0.00  0.00    +0.000 A 
ATOM     17  C   UNL     1       7.042   4.242  15.299  0.00  0.00    +0.000 A 
ATOM     18  C   UNL     1       5.988   4.835  14.629  0.00  0.00    +0.000 A 
ATOM     19  C   UNL     1       5.178   5.764  15.294  0.00  0.00    +0.000 A 
ATOM     20  C   UNL     1       5.372   6.113  16.645  0.00  0.00    +0.000 A 
BRANCH  15  21
ATOM     21  C   UNL     1       6.820   5.760  18.762  0.00  0.00    +0.000 C 
BRANCH  21  22
ATOM     22  N   UNL     1       5.952   5.012  19.661  0.00  0.00    +0.000 NA
ATOM     23  H   UNL     1       5.009   4.980  19.279  0.00  0.00    +0.000 HD
ATOM     24  H   UNL     1       5.895   5.494  20.556  0.00  0.00    +0.000 HD
ENDBRANCH  21  22
ENDBRANCH  15  21
ENDBRANCH   1  20
TORSDOF 4
ENDMDL
MODEL 3
REMARK VINA RESULT:      -7.4      1.241      2.154
REMARK  Name = 
REMARK  4 active torsions:
REMARK  status: ('A' for Active; 'I' for Inactive)
REMARK    1  A    between atoms: N_1  and  C_2
REMARK    2  A    between atoms: C_2  and  C_3
REMARK    3  A    between atoms: C_8  and  N_9
REMARK    4  A    between atoms: C_10  and  C_12
REMARK                            x       y       z     vdW  Elec       q    Type
REMARK                         _______ _______ _______ _____ _____    ______ ____
ROOT
ATOM      1  N   UNL     1       3.673   4.083  17.934  0.00  0.00    +0.000 N 
ATOM      2  C   UNL     1       5.055   4.223  17.867  0.00  0.00    +0.000 C 
ATOM      3  O   UNL     1       5.819   4.145  18.830  0.00  0.00    +0.000 OA
ATOM      4  H   UNL     1       3.189   4.087  17.045  0.00  0.00    +0.000 HD
ENDROOT
BRANCH   2   5
ATOM      5  C   UNL     1       5.698   4.467  16.527  0.00  0.00    +0.000 A 
ATOM      6  C   UNL     1       6.875   5.215  16.536  0.00  0.00    +0.000 A 
ATOM      7  C   UNL     1       7.541   5.444  15.346  0.00  0.00    +0.000 A 
ATOM      8  C   UNL     1       7.063   4.864  14.178  0.00  0.00    +0.000 A 
ATOM      9  C   UNL     1       7.792   5.013  12.986  0.00  0.00    +0.000 A 
ATOM     10  C   UNL     1       7.396   4.342  11.837  0.00  0.00    +0.000 A 
ATOM     11  C   UNL     1       6.247   3.561  11.874  0.00  0.00    +0.000 A 
ATOM     12  C   UNL     1       5.489   3.468  13.054  0.00  0.00    +0.000 A 
ATOM     13  C   UNL     1       5.873   4.091  14.242  0.00  0.00    +0.000 A 
ATOM     14  N   UNL     1       5.167   3.920  15.398  0.00  0.00    +0.000 NA
ENDBRANCH   2   5
BRANCH   1  20
ATOM     15  C   UNL     1       2.427   4.885  19.926  0.00  0.00    +0.000 A 
ATOM     16  C   UNL     1       1.658   4.586  21.081  0.00  0.00    +0.000 A 
ATOM     17  C   UNL     1       1.376   3.272  21.453  0.00  0.00    +0.000 A 
ATOM     18  C   UNL     1       1.881   2.233  20.692  0.00  0.00    +0.000 A 
ATOM     19  C   UNL     1       2.655   2.515  19.559  0.00  0.00    +0.000 A 
ATOM     20  C   UNL     1       2.929   3.830  19.133  0.00  0.00    +0.000 A 
BRANCH  15  21
ATOM     21  C   UNL     1       2.608   6.352  19.624  0.00  0.00    +0.000 C 
BRANCH  21  22
ATOM     22  N   UNL     1       1.997   7.188  20.649  0.00  0.00    +0.000 NA
ATOM     23  H   UNL     1       2.720   7.712  21.138  0.00  0.00    +0.000 HD
ATOM     24  H   UNL     1       1.538   6.598  21.339  0.00  0.00    +0.000 HD
ENDBRANCH  21  22
ENDBRANCH  15  21
ENDBRANCH   1  20
TORSDOF 4
ENDMDL
MODEL 4
REMARK VINA RESULT:      -7.2      4.663      8.528
REMARK  Name = 
REMARK  4 active torsions:
REMARK  status: ('A' for Active; 'I' for Inactive)
REMARK    1  A    between atoms: N_1  and  C_2
REMARK    2  A    between atoms: C_2  and  C_3
REMARK    3  A    between atoms: C_8  and  N_9
REMARK    4  A    between atoms: C_10  and  C_12
REMARK                            x       y       z     vdW  Elec       q    Type
REMARK                         _______ _______ _______ _____ _____    ______ ____
ROOT
ATOM      1  N   UNL     1       2.994   6.799  18.706  0.00  0.00    +0.000 N 
ATOM      2  C   UNL     1       2.317   7.989  18.464  0.00  0.00    +0.000 C 
ATOM      3  O   UNL     1       2.333   8.606  17.399  0.00  0.00    +0.000 OA
ATOM      4  H   UNL     1       2.814   6.367  19.603  0.00  0.00    +0.000 HD
ENDROOT
BRANCH   2   5
ATOM      5  C   UNL     1       1.474   8.583  19.563  0.00  0.00    +0.000 A 
ATOM      6  C   UNL     1       1.562   7.963  20.809  0.00  0.00    +0.000 A 
ATOM      7  C   UNL     1       0.847   8.479  21.875  0.00  0.00    +0.000 A 
ATOM      8  C   UNL     1       0.115   9.646  21.698  0.00  0.00    +0.000 A 
ATOM      9  C   UNL     1      -0.532  10.227  22.803  0.00  0.00    +0.000 A 
ATOM     10  C   UNL     1      -1.167  11.454  22.673  0.00  0.00    +0.000 A 
ATOM     11  C   UNL     1      -1.191  12.074  21.429  0.00  0.00    +0.000 A 
ATOM     12  C   UNL     1      -0.596  11.455  20.316  0.00  0.00    +0.000 A 
ATOM     13  C   UNL     1       0.088  10.243  20.410  0.00  0.00    +0.000 A 
ATOM     14  N   UNL     1       0.731   9.701  19.334  0.00  0.00    +0.000 NA
ENDBRANCH   2   5
BRANCH   1  20
ATOM     15  C   UNL     1       3.617   4.744  17.460  0.00  0.00    +0.000 A 
ATOM     16  C   UNL     1       4.425   4.117  16.476  0.00  0.00    +0.000 A 
ATOM     17  C   UNL     1       5.408   4.819  15.778  0.00  0.00    +0.000 A 
ATOM     18  C   UNL     1       5.619   6.153  16.072  0.00  0.00    +0.000 A 
ATOM     19  C   UNL     1       4.840   6.780  17.053  0.00  0.00    +0.000 A 
ATOM     20  C   UNL     1       3.814   6.112  17.751  0.00  0.00    +0.000 A 
BRANCH  15  21
ATOM     21  C   UNL     1       2.565   3.870  18.095  0.00  0.00    +0.000 C 
BRANCH  21  22
ATOM     22  N   UNL     1       1.245   4.131  17.538  0.00  0.00    +0.000 NA
ATOM     23  H   UNL     1       0.722   3.260  17.475  0.00  0.00    +0.000 HD
ATOM     24  H   UNL     1       1.341   4.490  16.591  0.00  0.00    +0.000 HD
ENDBRANCH  21  22
ENDBRANCH  15  21
ENDBRANCH   1  20
TORSDOF 4
ENDMDL
MODEL 5
REMARK VINA RESULT:      -7.2      3.894      5.554
REMARK  Name = 
REMARK  4 active torsions:
REMARK  status: ('A' for Active; 'I' for Inactive)
REMARK    1  A    between atoms: N_1  and  C_2
REMARK    2  A    between atoms: C_2  and  C_3
REMARK    3  A    between atoms: C_8  and  N_9
REMARK    4  A    between atoms: C_10  and  C_12
REMARK                            x       y       z     vdW  Elec       q    Type
REMARK                         _______ _______ _______ _____ _____    ______ ____
ROOT
ATOM      1  N   UNL     1       2.168   7.834  19.471  0.00  0.00    +0.000 N 
ATOM      2  C   UNL     1       2.307   6.459  19.627  0.00  0.00    +0.000 C 
ATOM      3  O   UNL     1       1.739   5.786  20.488  0.00  0.00    +0.000 OA
ATOM      4  H   UNL     1       2.631   8.232  18.665  0.00  0.00    +0.000 HD
ENDROOT
BRANCH   2   5
ATOM      5  C   UNL     1       3.196   5.705  18.673  0.00  0.00    +0.000 A 
ATOM      6  C   UNL     1       2.688   4.506  18.175  0.00  0.00    +0.000 A 
ATOM      7  C   UNL     1       3.433   3.780  17.263  0.00  0.00    +0.000 A 
ATOM      8  C   UNL     1       4.639   4.299  16.808  0.00  0.00    +0.000 A 
ATOM      9  C   UNL     1       5.350   3.613  15.809  0.00  0.00    +0.000 A 
ATOM     10  C   UNL     1       6.493   4.173  15.256  0.00  0.00    +0.000 A 
ATOM     11  C   UNL     1       6.945   5.396  15.736  0.00  0.00    +0.000 A 
ATOM     12  C   UNL     1       6.263   6.046  16.780  0.00  0.00    +0.000 A 
ATOM     13  C   UNL     1       5.088   5.539  17.335  0.00  0.00    +0.000 A 
ATOM     14  N   UNL     1       4.395   6.226  18.291  0.00  0.00    +0.000 NA
ENDBRANCH   2   5
BRANCH   1  20
ATOM     15  C   UNL     1       0.510   9.664  19.725  0.00  0.00    +0.000 A 
ATOM     16  C   UNL     1      -0.321  10.443  20.571  0.00  0.00    +0.000 A 
ATOM     17  C   UNL     1      -0.344  10.253  21.953  0.00  0.00    +0.000 A 
ATOM     18  C   UNL     1       0.484   9.299  22.515  0.00  0.00    +0.000 A 
ATOM     19  C   UNL     1       1.322   8.535  21.692  0.00  0.00    +0.000 A 
ATOM     20  C   UNL     1       1.344   8.675  20.290  0.00  0.00    +0.000 A 
BRANCH  15  21
ATOM     21  C   UNL     1       0.391   9.952  18.249  0.00  0.00    +0.000 C 
BRANCH  21  22
ATOM     22  N   UNL     1       1.698  10.080  17.621  0.00  0.00    +0.000 NA
ATOM     23  H   UNL     1       2.418   9.747  18.258  0.00  0.00    +0.000 HD
ATOM     24  H   UNL     1       1.892  11.063  17.438  0.00  0.00    +0.000 HD
ENDBRANCH  21  22
ENDBRANCH  15  21
ENDBRANCH   1  20
TORSDOF 4
ENDMDL
MODEL 6
REMARK VINA RESULT:      -7.2      4.793      8.493
REMARK  Name = 
REMARK  4 active torsions:
REMARK  status: ('A' for Active; 'I' for Inactive)
REMARK    1  A    between atoms: N_1  and  C_2
REMARK    2  A    between atoms: C_2  and  C_3
REMARK    3  A    between atoms: C_8  and  N_9
REMARK    4  A    between atoms: C_10  and  C_12
REMARK                            x       y       z     vdW  Elec       q    Type
REMARK                         _______ _______ _______ _____ _____    ______ ____
ROOT
ATOM      1  N   UNL     1       2.606   6.949  18.750  0.00  0.00    +0.000 N 
ATOM      2  C   UNL     1       2.204   8.191  18.272  0.00  0.00    +0.000 C 
ATOM      3  O   UNL     1       2.421   8.612  17.136  0.00  0.00    +0.000 OA
ATOM      4  H   UNL     1       2.279   6.710  19.678  0.00  0.00    +0.000 HD
ENDROOT
BRANCH   2   5
ATOM      5  C   UNL     1       1.423   9.103  19.182  0.00  0.00    +0.000 A 
ATOM      6  C   UNL     1       0.817  10.204  18.577  0.00  0.00    +0.000 A 
ATOM      7  C   UNL     1       0.051  11.062  19.345  0.00  0.00    +0.000 A 
ATOM      8  C   UNL     1      -0.158  10.768  20.686  0.00  0.00    +0.000 A 
ATOM      9  C   UNL     1      -1.016  11.584  21.444  0.00  0.00    +0.000 A 
ATOM     10  C   UNL     1      -1.332  11.240  22.751  0.00  0.00    +0.000 A 
ATOM     11  C   UNL     1      -0.753  10.105  23.309  0.00  0.00    +0.000 A 
ATOM     12  C   UNL     1       0.153   9.330  22.564  0.00  0.00    +0.000 A 
ATOM     13  C   UNL     1       0.466   9.617  21.235  0.00  0.00    +0.000 A 
ATOM     14  N   UNL     1       1.284   8.804  20.504  0.00  0.00    +0.000 NA
ENDBRANCH   2   5
BRANCH   1  20
ATOM     15  C   UNL     1       2.831   4.670  17.791  0.00  0.00    +0.000 A 
ATOM     16  C   UNL     1       3.568   3.752  16.998  0.00  0.00    +0.000 A 
ATOM     17  C   UNL     1       4.780   4.104  16.404  0.00  0.00    +0.000 A 
ATOM     18  C   UNL     1       5.289   5.373  16.615  0.00  0.00    +0.000 A 
ATOM     19  C   UNL     1       4.580   6.283  17.409  0.00  0.00    +0.000 A 
ATOM     20  C   UNL     1       3.336   5.973  17.994  0.00  0.00    +0.000 A 
BRANCH  15  21
ATOM     21  C   UNL     1       1.516   4.161  18.327  0.00  0.00    +0.000 C 
BRANCH  21  22
ATOM     22  N   UNL     1       1.447   4.280  19.777  0.00  0.00    +0.000 NA
ATOM     23  H   UNL     1       0.688   4.908  20.032  0.00  0.00    +0.000 HD
ATOM     24  H   UNL     1       2.308   4.695  20.125  0.00  0.00    +0.000 HD
ENDBRANCH  21  22
ENDBRANCH  15  21
ENDBRANCH   1  20
TORSDOF 4
ENDMDL
MODEL 7
REMARK VINA RESULT:      -7.1      4.191      7.788
REMARK  Name = 
REMARK  4 active torsions:
REMARK  status: ('A' for Active; 'I' for Inactive)
REMARK    1  A    between atoms: N_1  and  C_2
REMARK    2  A    between atoms: C_2  and  C_3
REMARK    3  A    between atoms: C_8  and  N_9
REMARK    4  A    between atoms: C_10  and  C_12
REMARK                            x       y       z     vdW  Elec       q    Type
REMARK                         _______ _______ _______ _____ _____    ______ ____
ROOT
ATOM      1  N   UNL     1       4.396   6.945  17.788  0.00  0.00    +0.000 N 
ATOM      2  C   UNL     1       3.117   6.550  18.165  0.00  0.00    +0.000 C 
ATOM      3  O   UNL     1       2.625   5.444  17.938  0.00  0.00    +0.000 OA
ATOM      4  H   UNL     1       4.689   7.855  18.122  0.00  0.00    +0.000 HD
ENDROOT
BRANCH   2   5
ATOM      5  C   UNL     1       2.251   7.519  18.928  0.00  0.00    +0.000 A 
ATOM      6  C   UNL     1       1.992   7.195  20.260  0.00  0.00    +0.000 A 
ATOM      7  C   UNL     1       1.237   8.059  21.032  0.00  0.00    +0.000 A 
ATOM      8  C   UNL     1       0.816   9.265  20.486  0.00  0.00    +0.000 A 
ATOM      9  C   UNL     1       0.135  10.188  21.298  0.00  0.00    +0.000 A 
ATOM     10  C   UNL     1      -0.188  11.445  20.807  0.00  0.00    +0.000 A 
ATOM     11  C   UNL     1       0.133  11.758  19.491  0.00  0.00    +0.000 A 
ATOM     12  C   UNL     1       0.758  10.806  18.666  0.00  0.00    +0.000 A 
ATOM     13  C   UNL     1       1.137   9.546  19.132  0.00  0.00    +0.000 A 
ATOM     14  N   UNL     1       1.817   8.668  18.339  0.00  0.00    +0.000 NA
ENDBRANCH   2   5
BRANCH   1  20
ATOM     15  C   UNL     1       6.359   5.427  17.751  0.00  0.00    +0.000 A 
ATOM     16  C   UNL     1       7.237   4.592  17.010  0.00  0.00    +0.000 A 
ATOM     17  C   UNL     1       7.111   4.437  15.630  0.00  0.00    +0.000 A 
ATOM     18  C   UNL     1       6.121   5.134  14.962  0.00  0.00    +0.000 A 
ATOM     19  C   UNL     1       5.258   5.974  15.679  0.00  0.00    +0.000 A 
ATOM     20  C   UNL     1       5.334   6.126  17.078  0.00  0.00    +0.000 A 
BRANCH  15  21
ATOM     21  C   UNL     1       6.590   5.457  19.241  0.00  0.00    +0.000 C 
BRANCH  21  22
ATOM     22  N   UNL     1       8.008   5.535  19.562  0.00  0.00    +0.000 NA
ATOM     23  H   UNL     1       8.187   6.366  20.121  0.00  0.00    +0.000 HD
ATOM     24  H   UNL     1       8.546   5.633  18.703  0.00  0.00    +0.000 HD
ENDBRANCH  21  22
ENDBRANCH  15  21
ENDBRANCH   1  20
TORSDOF 4
ENDMDL
MODEL 8
REMARK VINA RESULT:      -7.0      0.764      1.827
REMARK  Name = 
REMARK  4 active torsions:
REMARK  status: ('A' for Active; 'I' for Inactive)
REMARK    1  A    between atoms: N_1  and  C_2
REMARK    2  A    between atoms: C_2  and  C_3
REMARK    3  A    between atoms: C_8  and  N_9
REMARK    4  A    between atoms: C_10  and  C_12
REMARK                            x       y       z     vdW  Elec       q    Type
REMARK                         _______ _______ _______ _____ _____    ______ ____
ROOT
ATOM      1  N   UNL     1       3.964   3.545  18.150  0.00  0.00    +0.000 N 
ATOM      2  C   UNL     1       4.771   4.652  17.914  0.00  0.00    +0.000 C 
ATOM      3  O   UNL     1       4.967   5.565  18.716  0.00  0.00    +0.000 OA
ATOM      4  H   UNL     1       3.970   2.836  17.428  0.00  0.00    +0.000 HD
ENDROOT
BRANCH   2   5
ATOM      5  C   UNL     1       5.491   4.759  16.595  0.00  0.00    +0.000 A 
ATOM      6  C   UNL     1       6.728   5.404  16.619  0.00  0.00    +0.000 A 
ATOM      7  C   UNL     1       7.462   5.504  15.452  0.00  0.00    +0.000 A 
ATOM      8  C   UNL     1       6.987   4.896  14.297  0.00  0.00    +0.000 A 
ATOM      9  C   UNL     1       7.778   4.911  13.135  0.00  0.00    +0.000 A 
ATOM     10  C   UNL     1       7.375   4.208  12.008  0.00  0.00    +0.000 A 
ATOM     11  C   UNL     1       6.162   3.530  12.033  0.00  0.00    +0.000 A 
ATOM     12  C   UNL     1       5.347   3.573  13.178  0.00  0.00    +0.000 A 
ATOM     13  C   UNL     1       5.732   4.232  14.346  0.00  0.00    +0.000 A 
ATOM     14  N   UNL     1       4.964   4.192  15.474  0.00  0.00    +0.000 NA
ENDBRANCH   2   5
BRANCH   1  20
ATOM     15  C   UNL     1       1.948   3.842  19.569  0.00  0.00    +0.000 A 
ATOM     16  C   UNL     1       1.247   3.536  20.765  0.00  0.00    +0.000 A 
ATOM     17  C   UNL     1       1.795   2.707  21.744  0.00  0.00    +0.000 A 
ATOM     18  C   UNL     1       3.064   2.190  21.556  0.00  0.00    +0.000 A 
ATOM     19  C   UNL     1       3.772   2.497  20.387  0.00  0.00    +0.000 A 
ATOM     20  C   UNL     1       3.236   3.301  19.362  0.00  0.00    +0.000 A 
BRANCH  15  21
ATOM     21  C   UNL     1       1.209   4.712  18.584  0.00  0.00    +0.000 C 
BRANCH  21  22
ATOM     22  N   UNL     1       1.126   4.085  17.272  0.00  0.00    +0.000 NA
ATOM     23  H   UNL     1       1.638   3.206  17.280  0.00  0.00    +0.000 HD
ATOM     24  H   UNL     1       1.573   4.684  16.581  0.00  0.00    +0.000 HD
ENDBRANCH  21  22
ENDBRANCH  15  21
ENDBRANCH   1  20
TORSDOF 4
ENDMDL
MODEL 9
REMARK VINA RESULT:      -6.9      4.953      8.418
REMARK  Name = 
REMARK  4 active torsions:
REMARK  status: ('A' for Active; 'I' for Inactive)
REMARK    1  A    between atoms: N_1  and  C_2
REMARK    2  A    between atoms: C_2  and  C_3
REMARK    3  A    between atoms: C_8  and  N_9
REMARK    4  A    between atoms: C_10  and  C_12
REMARK                            x       y       z     vdW  Elec       q    Type
REMARK                         _______ _______ _______ _____ _____    ______ ____
ROOT
ATOM      1  N   UNL     1       2.480   6.554  20.313  0.00  0.00    +0.000 N 
ATOM      2  C   UNL     1       2.102   7.547  19.417  0.00  0.00    +0.000 C 
ATOM      3  O   UNL     1       2.305   7.516  18.203  0.00  0.00    +0.000 OA
ATOM      4  H   UNL     1       2.168   6.683  21.267  0.00  0.00    +0.000 HD
ENDROOT
BRANCH   2   5
ATOM      5  C   UNL     1       1.367   8.755  19.937  0.00  0.00    +0.000 A 
ATOM      6  C   UNL     1       1.134   9.777  19.017  0.00  0.00    +0.000 A 
ATOM      7  C   UNL     1       0.430  10.899  19.414  0.00  0.00    +0.000 A 
ATOM      8  C   UNL     1      -0.093  10.952  20.700  0.00  0.00    +0.000 A 
ATOM      9  C   UNL     1      -0.892  12.045  21.074  0.00  0.00    +0.000 A 
ATOM     10  C   UNL     1      -1.522  12.059  22.311  0.00  0.00    +0.000 A 
ATOM     11  C   UNL     1      -1.313  10.999  23.186  0.00  0.00    +0.000 A 
ATOM     12  C   UNL     1      -0.461   9.939  22.828  0.00  0.00    +0.000 A 
ATOM     13  C   UNL     1       0.157   9.865  21.580  0.00  0.00    +0.000 A 
ATOM     14  N   UNL     1       0.914   8.787  21.221  0.00  0.00    +0.000 NA
ENDBRANCH   2   5
BRANCH   1  20
ATOM     15  C   UNL     1       2.557   4.081  20.116  0.00  0.00    +0.000 A 
ATOM     16  C   UNL     1       3.258   2.914  19.711  0.00  0.00    +0.000 A 
ATOM     17  C   UNL     1       4.534   2.982  19.153  0.00  0.00    +0.000 A 
ATOM     18  C   UNL     1       5.144   4.216  19.016  0.00  0.00    +0.000 A 
ATOM     19  C   UNL     1       4.470   5.374  19.427  0.00  0.00    +0.000 A 
ATOM     20  C   UNL     1       3.166   5.345  19.960  0.00  0.00    +0.000 A 
BRANCH  15  21
ATOM     21  C   UNL     1       1.168   3.853  20.657  0.00  0.00    +0.000 C 
BRANCH  21  22
ATOM     22  N   UNL     1       0.436   2.877  19.860  0.00  0.00    +0.000 NA
ATOM     23  H   UNL     1       0.940   2.696  18.994  0.00  0.00    +0.000 HD
ATOM     24  H   UNL     1      -0.470   3.261  19.603  0.00  0.00    +0.000 HD
ENDBRANCH  21  22
ENDBRANCH  15  21
ENDBRANCH   1  20
TORSDOF 4
ENDMDL
