MODEL 1
REMARK VINA RESULT:      -7.9      0.000      0.000
REMARK  Name = 
REMARK  8 active torsions:
REMARK  status: ('A' for Active; 'I' for Inactive)
REMARK    1  A    between atoms: C_1  and  N_2
REMARK    2  A    between atoms: C_3  and  C_4
REMARK    3  A    between atoms: C_3  and  C_5
REMARK    4  A    between atoms: N_8  and  O_9
REMARK    5  A    between atoms: O_9  and  C_10
REMARK    6  A    between atoms: C_10  and  C_12
REMARK    7  A    between atoms: C_19  and  C_20
REMARK    8  A    between atoms: C_19  and  C_21
REMARK                            x       y       z     vdW  Elec       q    Type
REMARK                         _______ _______ _______ _____ _____    ______ ____
ROOT
ATOM      1  C   UNL     1       5.249   4.261  19.405  0.00  0.00    +0.000 C 
ATOM      2  N   UNL     1       5.571   5.500  18.658  0.00  0.00    +0.000 NA
ATOM      3  C   UNL     1       7.064   5.660  18.488  0.00  0.00    +0.000 C 
ATOM      4  C   UNL     1       7.475   7.110  18.120  0.00  0.00    +0.000 C 
ATOM      5  C   UNL     1       7.829   5.406  19.821  0.00  0.00    +0.000 C 
ATOM      6  C   UNL     1       7.603   4.685  17.423  0.00  0.00    +0.000 C 
ATOM      7  C   UNL     1       6.792   4.825  16.154  0.00  0.00    +0.000 C 
ATOM      8  N   UNL     1       7.440   5.071  15.058  0.00  0.00    +0.000 NA
ATOM      9  C   UNL     1       5.295   4.650  16.293  0.00  0.00    +0.000 C 
ATOM     10  C   UNL     1       4.758   5.601  17.388  0.00  0.00    +0.000 C 
ATOM     11  C   UNL     1       3.257   5.263  17.640  0.00  0.00    +0.000 C 
ATOM     12  C   UNL     1       4.702   7.046  16.827  0.00  0.00    +0.000 C 
ENDROOT
BRANCH   8  13
ATOM     13  O   UNL     1       6.601   5.211  13.947  0.00  0.00    +0.000 OA
BRANCH  13  14
ATOM     14  C   UNL     1       7.307   4.991  12.799  0.00  0.00    +0.000 C 
ATOM     15  O   UNL     1       8.212   5.675  12.329  0.00  0.00    +0.000 OA
BRANCH  14  16
ATOM     16  C   UNL     1       6.840   3.741  12.153  0.00  0.00    +0.000 A 
ATOM     17  C   UNL     1       5.461   3.482  12.128  0.00  0.00    +0.000 A 
ATOM     18  C   UNL     1       4.980   2.311  11.541  0.00  0.00    +0.000 A 
ATOM     19  C   UNL     1       5.871   1.397  10.980  0.00  0.00    +0.000 A 
ATOM     20  C   UNL     1       7.243   1.647  11.006  0.00  0.00    +0.000 A 
ATOM     21  C   UNL     1       7.730   2.817  11.590  0.00  0.00    +0.000 A 
ENDBRANCH  14  16
ENDBRANCH  13  14
ENDBRANCH   8  13
TORSDOF 3
ENDMDL
MODEL 2
REMARK VINA RESULT:      -7.9      2.210      3.714
REMARK  Name = 
REMARK  8 active torsions:
REMARK  status: ('A' for Active; 'I' for Inactive)
REMARK    1  A    between atoms: C_1  and  N_2
REMARK    2  A    between atoms: C_3  and  C_4
REMARK    3  A    between atoms: C_3  and  C_5
REMARK    4  A    between atoms: N_8  and  O_9
REMARK    5  A    between atoms: O_9  and  C_10
REMARK    6  A    between atoms: C_10  and  C_12
REMARK    7  A    between atoms: C_19  and  C_20
REMARK    8  A    between atoms: C_19  and  C_21
REMARK                            x       y       z     vdW  Elec       q    Type
REMARK                         _______ _______ _______ _____ _____    ______ ____
ROOT
ATOM      1  C   UNL     1       2.487   3.161  20.803  0.00  0.00    +0.000 C 
ATOM      2  N   UNL     1       2.393   3.723  19.435  0.00  0.00    +0.000 NA
ATOM      3  C   UNL     1       2.592   5.222  19.447  0.00  0.00    +0.000 C 
ATOM      4  C   UNL     1       2.080   5.907  18.153  0.00  0.00    +0.000 C 
ATOM      5  C   UNL     1       1.751   5.908  20.564  0.00  0.00    +0.000 C 
ATOM      6  C   UNL     1       4.076   5.576  19.667  0.00  0.00    +0.000 C 
ATOM      7  C   UNL     1       4.928   4.822  18.669  0.00  0.00    +0.000 C 
ATOM      8  N   UNL     1       5.731   5.518  17.927  0.00  0.00    +0.000 NA
ATOM      9  C   UNL     1       4.762   3.318  18.650  0.00  0.00    +0.000 C 
ATOM     10  C   UNL     1       3.269   2.960  18.467  0.00  0.00    +0.000 C 
ATOM     11  C   UNL     1       3.107   1.420  18.642  0.00  0.00    +0.000 C 
ATOM     12  C   UNL     1       2.866   3.188  16.987  0.00  0.00    +0.000 C 
ENDROOT
BRANCH   8  13
ATOM     13  O   UNL     1       6.453   4.735  17.020  0.00  0.00    +0.000 OA
BRANCH  13  14
ATOM     14  C   UNL     1       7.023   5.531  16.067  0.00  0.00    +0.000 C 
ATOM     15  O   UNL     1       7.643   6.578  16.233  0.00  0.00    +0.000 OA
BRANCH  14  16
ATOM     16  C   UNL     1       6.810   4.939  14.725  0.00  0.00    +0.000 A 
ATOM     17  C   UNL     1       5.700   4.103  14.536  0.00  0.00    +0.000 A 
ATOM     18  C   UNL     1       5.470   3.515  13.292  0.00  0.00    +0.000 A 
ATOM     19  C   UNL     1       6.346   3.758  12.235  0.00  0.00    +0.000 A 
ATOM     20  C   UNL     1       7.455   4.584  12.418  0.00  0.00    +0.000 A 
ATOM     21  C   UNL     1       7.689   5.177  13.659  0.00  0.00    +0.000 A 
ENDBRANCH  14  16
ENDBRANCH  13  14
ENDBRANCH   8  13
TORSDOF 3
ENDMDL
MODEL 3
REMARK VINA RESULT:      -7.6      3.094      5.319
REMARK  Name = 
REMARK  8 active torsions:
REMARK  status: ('A' for Active; 'I' for Inactive)
REMARK    1  A    between atoms: C_1  and  N_2
REMARK    2  A    between atoms: C_3  and  C_4
REMARK    3  A    between atoms: C_3  and  C_5
REMARK    4  A    between atoms: N_8  and  O_9
REMARK    5  A    between atoms: O_9  and  C_10
REMARK    6  A    between atoms: C_10  and  C_12
REMARK    7  A    between atoms: C_19  and  C_20
REMARK    8  A    between atoms: C_19  and  C_21
REMARK                            x       y       z     vdW  Elec       q    Type
REMARK                         _______ _______ _______ _____ _____    ______ ____
ROOT
ATOM      1  C   UNL     1       0.944   4.286  20.037  0.00  0.00    +0.000 C 
ATOM      2  N   UNL     1       2.423   4.209  20.010  0.00  0.00    +0.000 NA
ATOM      3  C   UNL     1       2.889   2.847  19.549  0.00  0.00    +0.000 C 
ATOM      4  C   UNL     1       4.370   2.563  19.913  0.00  0.00    +0.000 C 
ATOM      5  C   UNL     1       2.124   1.699  20.272  0.00  0.00    +0.000 C 
ATOM      6  C   UNL     1       2.690   2.684  18.030  0.00  0.00    +0.000 C 
ATOM      7  C   UNL     1       3.320   3.856  17.310  0.00  0.00    +0.000 C 
ATOM      8  N   UNL     1       4.188   3.590  16.385  0.00  0.00    +0.000 NA
ATOM      9  C   UNL     1       2.856   5.232  17.738  0.00  0.00    +0.000 C 
ATOM     10  C   UNL     1       3.019   5.384  19.269  0.00  0.00    +0.000 C 
ATOM     11  C   UNL     1       2.361   6.729  19.703  0.00  0.00    +0.000 C 
ATOM     12  C   UNL     1       4.518   5.605  19.604  0.00  0.00    +0.000 C 
ENDROOT
BRANCH   8  13
ATOM     13  O   UNL     1       4.733   4.738  15.800  0.00  0.00    +0.000 OA
BRANCH  13  14
ATOM     14  C   UNL     1       6.083   4.593  15.654  0.00  0.00    +0.000 C 
ATOM     15  O   UNL     1       6.684   3.982  14.774  0.00  0.00    +0.000 OA
BRANCH  14  16
ATOM     16  C   UNL     1       6.787   5.318  16.739  0.00  0.00    +0.000 A 
ATOM     17  C   UNL     1       6.828   6.719  16.683  0.00  0.00    +0.000 A 
ATOM     18  C   UNL     1       7.491   7.439  17.676  0.00  0.00    +0.000 A 
ATOM     19  C   UNL     1       8.116   6.766  18.725  0.00  0.00    +0.000 A 
ATOM     20  C   UNL     1       8.083   5.373  18.783  0.00  0.00    +0.000 A 
ATOM     21  C   UNL     1       7.419   4.646  17.794  0.00  0.00    +0.000 A 
ENDBRANCH  14  16
ENDBRANCH  13  14
ENDBRANCH   8  13
TORSDOF 3
ENDMDL
MODEL 4
REMARK VINA RESULT:      -7.5      3.142      5.371
REMARK  Name = 
REMARK  8 active torsions:
REMARK  status: ('A' for Active; 'I' for Inactive)
REMARK    1  A    between atoms: C_1  and  N_2
REMARK    2  A    between atoms: C_3  and  C_4
REMARK    3  A    between atoms: C_3  and  C_5
REMARK    4  A    between atoms: N_8  and  O_9
REMARK    5  A    between atoms: O_9  and  C_10
REMARK    6  A    between atoms: C_10  and  C_12
REMARK    7  A    between atoms: C_19  and  C_20
REMARK    8  A    between atoms: C_19  and  C_21
REMARK                            x       y       z     vdW  Elec       q    Type
REMARK                         _______ _______ _______ _____ _____    ______ ____
ROOT
ATOM      1  C   UNL     1       0.889   4.627  20.223  0.00  0.00    +0.000 C 
ATOM      2  N   UNL     1       2.362   4.479  20.158  0.00  0.00    +0.000 NA
ATOM      3  C   UNL     1       2.751   3.064  19.791  0.00  0.00    +0.000 C 
ATOM      4  C   UNL     1       4.230   2.740  20.130  0.00  0.00    +0.000 C 
ATOM      5  C   UNL     1       1.960   2.013  20.624  0.00  0.00    +0.000 C 
ATOM      6  C   UNL     1       2.494   2.795  18.295  0.00  0.00    +0.000 C 
ATOM      7  C   UNL     1       3.149   3.878  17.467  0.00  0.00    +0.000 C 
ATOM      8  N   UNL     1       3.974   3.501  16.540  0.00  0.00    +0.000 NA
ATOM      9  C   UNL     1       2.763   5.303  17.801  0.00  0.00    +0.000 C 
ATOM     10  C   UNL     1       2.984   5.564  19.309  0.00  0.00    +0.000 C 
ATOM     11  C   UNL     1       2.401   6.967  19.656  0.00  0.00    +0.000 C 
ATOM     12  C   UNL     1       4.501   5.739  19.579  0.00  0.00    +0.000 C 
ENDROOT
BRANCH   8  13
ATOM     13  O   UNL     1       4.548   4.574  15.850  0.00  0.00    +0.000 OA
BRANCH  13  14
ATOM     14  C   UNL     1       5.893   4.377  15.718  0.00  0.00    +0.000 C 
ATOM     15  O   UNL     1       6.472   3.637  14.926  0.00  0.00    +0.000 OA
BRANCH  14  16
ATOM     16  C   UNL     1       6.624   5.226  16.689  0.00  0.00    +0.000 A 
ATOM     17  C   UNL     1       7.333   4.595  17.721  0.00  0.00    +0.000 A 
ATOM     18  C   UNL     1       8.023   5.357  18.664  0.00  0.00    +0.000 A 
ATOM     19  C   UNL     1       8.007   6.749  18.581  0.00  0.00    +0.000 A 
ATOM     20  C   UNL     1       7.299   7.383  17.560  0.00  0.00    +0.000 A 
ATOM     21  C   UNL     1       6.608   6.626  16.612  0.00  0.00    +0.000 A 
ENDBRANCH  14  16
ENDBRANCH  13  14
ENDBRANCH   8  13
TORSDOF 3
ENDMDL
MODEL 5
REMARK VINA RESULT:      -7.5      2.129      3.670
REMARK  Name = 
REMARK  8 active torsions:
REMARK  status: ('A' for Active; 'I' for Inactive)
REMARK    1  A    between atoms: C_1  and  N_2
REMARK    2  A    between atoms: C_3  and  C_4
REMARK    3  A    between atoms: C_3  and  C_5
REMARK    4  A    between atoms: N_8  and  O_9
REMARK    5  A    between atoms: O_9  and  C_10
REMARK    6  A    between atoms: C_10  and  C_12
REMARK    7  A    between atoms: C_19  and  C_20
REMARK    8  A    between atoms: C_19  and  C_21
REMARK                            x       y       z     vdW  Elec       q    Type
REMARK                         _______ _______ _______ _____ _____    ______ ____
ROOT
ATOM      1  C   UNL     1       2.434   3.863  20.971  0.00  0.00    +0.000 C 
ATOM      2  N   UNL     1       2.299   4.286  19.557  0.00  0.00    +0.000 NA
ATOM      3  C   UNL     1       2.637   5.750  19.392  0.00  0.00    +0.000 C 
ATOM      4  C   UNL     1       2.104   6.344  18.061  0.00  0.00    +0.000 C 
ATOM      5  C   UNL     1       1.941   6.629  20.473  0.00  0.00    +0.000 C 
ATOM      6  C   UNL     1       4.159   5.976  19.485  0.00  0.00    +0.000 C 
ATOM      7  C   UNL     1       4.867   5.041  18.531  0.00  0.00    +0.000 C 
ATOM      8  N   UNL     1       5.679   5.572  17.671  0.00  0.00    +0.000 NA
ATOM      9  C   UNL     1       4.562   3.567  18.687  0.00  0.00    +0.000 C 
ATOM     10  C   UNL     1       3.034   3.342  18.631  0.00  0.00    +0.000 C 
ATOM     11  C   UNL     1       2.742   1.852  18.985  0.00  0.00    +0.000 C 
ATOM     12  C   UNL     1       2.554   3.453  17.161  0.00  0.00    +0.000 C 
ENDROOT
BRANCH   8  13
ATOM     13  O   UNL     1       6.263   4.631  16.816  0.00  0.00    +0.000 OA
BRANCH  13  14
ATOM     14  C   UNL     1       6.946   5.266  15.819  0.00  0.00    +0.000 C 
ATOM     15  O   UNL     1       7.755   6.185  15.926  0.00  0.00    +0.000 OA
BRANCH  14  16
ATOM     16  C   UNL     1       6.591   4.671  14.508  0.00  0.00    +0.000 A 
ATOM     17  C   UNL     1       7.497   4.814  13.447  0.00  0.00    +0.000 A 
ATOM     18  C   UNL     1       7.196   4.281  12.193  0.00  0.00    +0.000 A 
ATOM     19  C   UNL     1       5.993   3.605  11.995  0.00  0.00    +0.000 A 
ATOM     20  C   UNL     1       5.086   3.464  13.045  0.00  0.00    +0.000 A 
ATOM     21  C   UNL     1       5.381   3.994  14.302  0.00  0.00    +0.000 A 
ENDBRANCH  14  16
ENDBRANCH  13  14
ENDBRANCH   8  13
TORSDOF 3
ENDMDL
MODEL 6
REMARK VINA RESULT:      -7.5      3.159      4.997
REMARK  Name = 
REMARK  8 active torsions:
REMARK  status: ('A' for Active; 'I' for Inactive)
REMARK    1  A    between atoms: C_1  and  N_2
REMARK    2  A    between atoms: C_3  and  C_4
REMARK    3  A    between atoms: C_3  and  C_5
REMARK    4  A    between atoms: N_8  and  O_9
REMARK    5  A    between atoms: O_9  and  C_10
REMARK    6  A    between atoms: C_10  and  C_12
REMARK    7  A    between atoms: C_19  and  C_20
REMARK    8  A    between atoms: C_19  and  C_21
REMARK                            x       y       z     vdW  Elec       q    Type
REMARK                         _______ _______ _______ _____ _____    ______ ____
ROOT
ATOM      1  C   UNL     1       1.744   2.287  20.135  0.00  0.00    +0.000 C 
ATOM      2  N   UNL     1       2.223   3.159  19.038  0.00  0.00    +0.000 NA
ATOM      3  C   UNL     1       2.150   4.617  19.430  0.00  0.00    +0.000 C 
ATOM      4  C   UNL     1       2.214   5.572  18.209  0.00  0.00    +0.000 C 
ATOM      5  C   UNL     1       0.782   4.973  20.083  0.00  0.00    +0.000 C 
ATOM      6  C   UNL     1       3.272   4.975  20.424  0.00  0.00    +0.000 C 
ATOM      7  C   UNL     1       4.604   4.525  19.865  0.00  0.00    +0.000 C 
ATOM      8  N   UNL     1       5.541   5.416  19.770  0.00  0.00    +0.000 NA
ATOM      9  C   UNL     1       4.711   3.064  19.482  0.00  0.00    +0.000 C 
ATOM     10  C   UNL     1       3.563   2.694  18.514  0.00  0.00    +0.000 C 
ATOM     11  C   UNL     1       3.586   1.152  18.291  0.00  0.00    +0.000 C 
ATOM     12  C   UNL     1       3.882   3.256  17.104  0.00  0.00    +0.000 C 
ENDROOT
BRANCH   8  13
ATOM     13  O   UNL     1       6.722   4.910  19.217  0.00  0.00    +0.000 OA
BRANCH  13  14
ATOM     14  C   UNL     1       7.257   5.818  18.348  0.00  0.00    +0.000 C 
ATOM     15  O   UNL     1       8.056   6.718  18.596  0.00  0.00    +0.000 OA
BRANCH  14  16
ATOM     16  C   UNL     1       6.744   5.567  16.980  0.00  0.00    +0.000 A 
ATOM     17  C   UNL     1       5.751   6.421  16.476  0.00  0.00    +0.000 A 
ATOM     18  C   UNL     1       5.232   6.212  15.198  0.00  0.00    +0.000 A 
ATOM     19  C   UNL     1       5.699   5.153  14.421  0.00  0.00    +0.000 A 
ATOM     20  C   UNL     1       6.682   4.298  14.919  0.00  0.00    +0.000 A 
ATOM     21  C   UNL     1       7.208   4.503  16.195  0.00  0.00    +0.000 A 
ENDBRANCH  14  16
ENDBRANCH  13  14
ENDBRANCH   8  13
TORSDOF 3
ENDMDL
MODEL 7
REMARK VINA RESULT:      -7.5      3.136      5.089
REMARK  Name = 
REMARK  8 active torsions:
REMARK  status: ('A' for Active; 'I' for Inactive)
REMARK    1  A    between atoms: C_1  and  N_2
REMARK    2  A    between atoms: C_3  and  C_4
REMARK    3  A    between atoms: C_3  and  C_5
REMARK    4  A    between atoms: N_8  and  O_9
REMARK    5  A    between atoms: O_9  and  C_10
REMARK    6  A    between atoms: C_10  and  C_12
REMARK    7  A    between atoms: C_19  and  C_20
REMARK    8  A    between atoms: C_19  and  C_21
REMARK                            x       y       z     vdW  Elec       q    Type
REMARK                         _______ _______ _______ _____ _____    ______ ____
ROOT
ATOM      1  C   UNL     1       1.730   2.287  20.197  0.00  0.00    +0.000 C 
ATOM      2  N   UNL     1       2.207   3.128  19.074  0.00  0.00    +0.000 NA
ATOM      3  C   UNL     1       2.118   4.598  19.419  0.00  0.00    +0.000 C 
ATOM      4  C   UNL     1       2.179   5.513  18.168  0.00  0.00    +0.000 C 
ATOM      5  C   UNL     1       0.743   4.960  20.054  0.00  0.00    +0.000 C 
ATOM      6  C   UNL     1       3.232   4.998  20.406  0.00  0.00    +0.000 C 
ATOM      7  C   UNL     1       4.570   4.544  19.868  0.00  0.00    +0.000 C 
ATOM      8  N   UNL     1       5.499   5.440  19.749  0.00  0.00    +0.000 NA
ATOM      9  C   UNL     1       4.693   3.072  19.534  0.00  0.00    +0.000 C 
ATOM     10  C   UNL     1       3.554   2.660  18.573  0.00  0.00    +0.000 C 
ATOM     11  C   UNL     1       3.593   1.111  18.399  0.00  0.00    +0.000 C 
ATOM     12  C   UNL     1       3.875   3.179  17.147  0.00  0.00    +0.000 C 
ENDROOT
BRANCH   8  13
ATOM     13  O   UNL     1       6.688   4.928  19.219  0.00  0.00    +0.000 OA
BRANCH  13  14
ATOM     14  C   UNL     1       7.223   5.817  18.329  0.00  0.00    +0.000 C 
ATOM     15  O   UNL     1       8.046   6.701  18.551  0.00  0.00    +0.000 OA
BRANCH  14  16
ATOM     16  C   UNL     1       6.674   5.564  16.975  0.00  0.00    +0.000 A 
ATOM     17  C   UNL     1       7.195   4.490  16.238  0.00  0.00    +0.000 A 
ATOM     18  C   UNL     1       6.716   4.225  14.955  0.00  0.00    +0.000 A 
ATOM     19  C   UNL     1       5.721   5.031  14.403  0.00  0.00    +0.000 A 
ATOM     20  C   UNL     1       5.203   6.103  15.129  0.00  0.00    +0.000 A 
ATOM     21  C   UNL     1       5.676   6.372  16.414  0.00  0.00    +0.000 A 
ENDBRANCH  14  16
ENDBRANCH  13  14
ENDBRANCH   8  13
TORSDOF 3
ENDMDL
MODEL 8
REMARK VINA RESULT:      -7.2      2.399      4.431
REMARK  Name = 
REMARK  8 active torsions:
REMARK  status: ('A' for Active; 'I' for Inactive)
REMARK    1  A    between atoms: C_1  and  N_2
REMARK    2  A    between atoms: C_3  and  C_4
REMARK    3  A    between atoms: C_3  and  C_5
REMARK    4  A    between atoms: N_8  and  O_9
REMARK    5  A    between atoms: O_9  and  C_10
REMARK    6  A    between atoms: C_10  and  C_12
REMARK    7  A    between atoms: C_19  and  C_20
REMARK    8  A    between atoms: C_19  and  C_21
REMARK                            x       y       z     vdW  Elec       q    Type
REMARK                         _______ _______ _______ _____ _____    ______ ____
ROOT
ATOM      1  C   UNL     1       2.857   3.319  21.609  0.00  0.00    +0.000 C 
ATOM      2  N   UNL     1       2.629   2.837  20.227  0.00  0.00    +0.000 NA
ATOM      3  C   UNL     1       1.816   3.831  19.430  0.00  0.00    +0.000 C 
ATOM      4  C   UNL     1       1.184   3.208  18.157  0.00  0.00    +0.000 C 
ATOM      5  C   UNL     1       0.576   4.336  20.227  0.00  0.00    +0.000 C 
ATOM      6  C   UNL     1       2.672   5.051  19.037  0.00  0.00    +0.000 C 
ATOM      7  C   UNL     1       3.946   4.579  18.370  0.00  0.00    +0.000 C 
ATOM      8  N   UNL     1       4.215   5.058  17.195  0.00  0.00    +0.000 NA
ATOM      9  C   UNL     1       4.789   3.598  19.155  0.00  0.00    +0.000 C 
ATOM     10  C   UNL     1       3.922   2.391  19.583  0.00  0.00    +0.000 C 
ATOM     11  C   UNL     1       4.762   1.498  20.545  0.00  0.00    +0.000 C 
ATOM     12  C   UNL     1       3.693   1.467  18.358  0.00  0.00    +0.000 C 
ENDROOT
BRANCH   8  13
ATOM     13  O   UNL     1       5.396   4.542  16.652  0.00  0.00    +0.000 OA
BRANCH  13  14
ATOM     14  C   UNL     1       6.004   5.487  15.875  0.00  0.00    +0.000 C 
ATOM     15  O   UNL     1       6.290   6.642  16.181  0.00  0.00    +0.000 OA
BRANCH  14  16
ATOM     16  C   UNL     1       6.317   4.917  14.543  0.00  0.00    +0.000 A 
ATOM     17  C   UNL     1       7.468   5.370  13.881  0.00  0.00    +0.000 A 
ATOM     18  C   UNL     1       7.792   4.870  12.619  0.00  0.00    +0.000 A 
ATOM     19  C   UNL     1       6.970   3.919  12.016  0.00  0.00    +0.000 A 
ATOM     20  C   UNL     1       5.822   3.468  12.667  0.00  0.00    +0.000 A 
ATOM     21  C   UNL     1       5.493   3.963  13.930  0.00  0.00    +0.000 A 
ENDBRANCH  14  16
ENDBRANCH  13  14
ENDBRANCH   8  13
TORSDOF 3
ENDMDL
MODEL 9
REMARK VINA RESULT:      -7.1      2.780      4.590
REMARK  Name = 
REMARK  8 active torsions:
REMARK  status: ('A' for Active; 'I' for Inactive)
REMARK    1  A    between atoms: C_1  and  N_2
REMARK    2  A    between atoms: C_3  and  C_4
REMARK    3  A    between atoms: C_3  and  C_5
REMARK    4  A    between atoms: N_8  and  O_9
REMARK    5  A    between atoms: O_9  and  C_10
REMARK    6  A    between atoms: C_10  and  C_12
REMARK    7  A    between atoms: C_19  and  C_20
REMARK    8  A    between atoms: C_19  and  C_21
REMARK                            x       y       z     vdW  Elec       q    Type
REMARK                         _______ _______ _______ _____ _____    ______ ____
ROOT
ATOM      1  C   UNL     1       0.866   2.388  18.817  0.00  0.00    +0.000 C 
ATOM      2  N   UNL     1       1.391   3.664  19.357  0.00  0.00    +0.000 NA
ATOM      3  C   UNL     1       2.311   3.421  20.532  0.00  0.00    +0.000 C 
ATOM      4  C   UNL     1       2.534   4.692  21.394  0.00  0.00    +0.000 C 
ATOM      5  C   UNL     1       1.698   2.411  21.547  0.00  0.00    +0.000 C 
ATOM      6  C   UNL     1       3.671   2.873  20.059  0.00  0.00    +0.000 C 
ATOM      7  C   UNL     1       4.231   3.773  18.980  0.00  0.00    +0.000 C 
ATOM      8  N   UNL     1       5.423   4.248  19.161  0.00  0.00    +0.000 NA
ATOM      9  C   UNL     1       3.338   4.017  17.782  0.00  0.00    +0.000 C 
ATOM     10  C   UNL     1       1.959   4.531  18.256  0.00  0.00    +0.000 C 
ATOM     11  C   UNL     1       1.006   4.590  17.025  0.00  0.00    +0.000 C 
ATOM     12  C   UNL     1       2.085   6.020  18.672  0.00  0.00    +0.000 C 
ENDROOT
BRANCH   8  13
ATOM     13  O   UNL     1       5.840   5.089  18.123  0.00  0.00    +0.000 OA
BRANCH  13  14
ATOM     14  C   UNL     1       6.980   4.599  17.554  0.00  0.00    +0.000 C 
ATOM     15  O   UNL     1       8.027   4.286  18.116  0.00  0.00    +0.000 OA
BRANCH  14  16
ATOM     16  C   UNL     1       6.793   4.460  16.090  0.00  0.00    +0.000 A 
ATOM     17  C   UNL     1       7.636   5.191  15.241  0.00  0.00    +0.000 A 
ATOM     18  C   UNL     1       7.485   5.100  13.857  0.00  0.00    +0.000 A 
ATOM     19  C   UNL     1       6.494   4.281  13.318  0.00  0.00    +0.000 A 
ATOM     20  C   UNL     1       5.649   3.556  14.157  0.00  0.00    +0.000 A 
ATOM     21  C   UNL     1       5.796   3.641  15.542  0.00  0.00    +0.000 A 
ENDBRANCH  14  16
ENDBRANCH  13  14
ENDBRANCH   8  13
TORSDOF 3
ENDMDL
