MODEL 1
REMARK VINA RESULT:      -7.4      0.000      0.000
REMARK  Name = 
REMARK  13 active torsions:
REMARK  status: ('A' for Active; 'I' for Inactive)
REMARK    1  A    between atoms: C_1  and  C_2
REMARK    2  A    between atoms: C_2  and  N_3
REMARK    3  A    between atoms: C_4  and  C_5
REMARK    4  A    between atoms: C_5  and  C_6
REMARK    5  A    between atoms: C_9  and  O_10
REMARK    6  A    between atoms: O_10  and  C_11
REMARK    7  A    between atoms: C_16  and  S_17
REMARK    8  A    between atoms: S_17  and  C_18
REMARK    9  A    between atoms: C_18  and  C_19
REMARK   10  A    between atoms: N_21  and  C_22
REMARK   11  A    between atoms: C_26  and  C_27
REMARK   12  A    between atoms: C_27  and  O_29
REMARK   13  A    between atoms: O_29  and  C_30
REMARK                            x       y       z     vdW  Elec       q    Type
REMARK                         _______ _______ _______ _____ _____    ______ ____
ROOT
ATOM      1  N   UNL     1       2.769   6.018  18.511  0.00  0.00    +0.000 N 
ATOM      2  C   UNL     1       2.535   7.305  18.072  0.00  0.00    +0.000 A 
ATOM      3  N   UNL     1       3.657   7.781  17.555  0.00  0.00    +0.000 NA
ATOM      4  N   UNL     1       4.617   6.807  17.626  0.00  0.00    +0.000 NA
ATOM      5  C   UNL     1       4.056   5.739  18.135  0.00  0.00    +0.000 A 
ENDROOT
BRANCH   1   7
ATOM      6  C   UNL     1       1.294   4.032  18.393  0.00  0.00    +0.000 C 
ATOM      7  C   UNL     1       1.857   5.160  19.240  0.00  0.00    +0.000 C 
ENDBRANCH   1   7
BRANCH   2   8
ATOM      8  C   UNL     1       1.226   8.039  18.124  0.00  0.00    +0.000 C 
BRANCH   8   9
ATOM      9  C   UNL     1       1.161   9.218  19.078  0.00  0.00    +0.000 A 
ATOM     10  C   UNL     1       1.298  10.534  18.626  0.00  0.00    +0.000 A 
ATOM     11  C   UNL     1       1.100  11.606  19.493  0.00  0.00    +0.000 A 
ATOM     12  C   UNL     1       0.781  11.403  20.829  0.00  0.00    +0.000 A 
ATOM     13  C   UNL     1       0.650  10.104  21.305  0.00  0.00    +0.000 A 
ATOM     14  C   UNL     1       0.827   9.018  20.431  0.00  0.00    +0.000 A 
BRANCH  12  15
ATOM     15  O   UNL     1       0.688  12.537  21.586  0.00  0.00    +0.000 OA
ATOM     16  C   UNL     1      -0.559  12.709  22.252  0.00  0.00    +0.000 C 
ENDBRANCH  12  15
ENDBRANCH   8   9
ENDBRANCH   2   8
BRANCH   5  17
ATOM     17  S   UNL     1       4.837   4.211  18.329  0.00  0.00    +0.000 S 
BRANCH  17  18
ATOM     18  C   UNL     1       6.570   4.741  18.366  0.00  0.00    +0.000 C 
BRANCH  18  19
ATOM     19  C   UNL     1       7.186   4.562  16.990  0.00  0.00    +0.000 C 
ATOM     20  O   UNL     1       8.327   4.118  16.879  0.00  0.00    +0.000 OA
ATOM     21  N   UNL     1       6.369   4.970  15.942  0.00  0.00    +0.000 N 
ATOM     22  H   UNL     1       5.543   5.518  16.184  0.00  0.00    +0.000 HD
BRANCH  21  23
ATOM     23  C   UNL     1       6.639   4.802  14.567  0.00  0.00    +0.000 A 
ATOM     24  C   UNL     1       7.716   5.429  13.919  0.00  0.00    +0.000 A 
ATOM     25  C   UNL     1       7.945   5.233  12.556  0.00  0.00    +0.000 A 
ATOM     26  C   UNL     1       7.133   4.379  11.820  0.00  0.00    +0.000 A 
ATOM     27  C   UNL     1       6.093   3.699  12.462  0.00  0.00    +0.000 A 
ATOM     28  C   UNL     1       5.834   3.932  13.825  0.00  0.00    +0.000 A 
BRANCH  27  29
ATOM     29  C   UNL     1       5.280   2.667  11.752  0.00  0.00    +0.000 C 
ATOM     30  O   UNL     1       5.775   1.659  11.284  0.00  0.00    +0.000 OA
BRANCH  29  31
ATOM     31  O   UNL     1       3.979   3.032  11.678  0.00  0.00    +0.000 OA
ATOM     32  C   UNL     1       3.550   3.472  10.384  0.00  0.00    +0.000 C 
ENDBRANCH  29  31
ENDBRANCH  27  29
ENDBRANCH  21  23
ENDBRANCH  18  19
ENDBRANCH  17  18
ENDBRANCH   5  17
TORSDOF 10
ENDMDL
MODEL 2
REMARK VINA RESULT:      -7.2      3.029      4.422
REMARK  Name = 
REMARK  13 active torsions:
REMARK  status: ('A' for Active; 'I' for Inactive)
REMARK    1  A    between atoms: C_1  and  C_2
REMARK    2  A    between atoms: C_2  and  N_3
REMARK    3  A    between atoms: C_4  and  C_5
REMARK    4  A    between atoms: C_5  and  C_6
REMARK    5  A    between atoms: C_9  and  O_10
REMARK    6  A    between atoms: O_10  and  C_11
REMARK    7  A    between atoms: C_16  and  S_17
REMARK    8  A    between atoms: S_17  and  C_18
REMARK    9  A    between atoms: C_18  and  C_19
REMARK   10  A    between atoms: N_21  and  C_22
REMARK   11  A    between atoms: C_26  and  C_27
REMARK   12  A    between atoms: C_27  and  O_29
REMARK   13  A    between atoms: O_29  and  C_30
REMARK                            x       y       z     vdW  Elec       q    Type
REMARK                         _______ _______ _______ _____ _____    ______ ____
ROOT
ATOM      1  N   UNL     1       1.217   9.046  20.364  0.00  0.00    +0.000 N 
ATOM      2  C   UNL     1       1.190   9.949  19.321  0.00  0.00    +0.000 A 
ATOM      3  N   UNL     1       1.789   9.400  18.275  0.00  0.00    +0.000 NA
ATOM      4  N   UNL     1       2.183   8.133  18.615  0.00  0.00    +0.000 NA
ATOM      5  C   UNL     1       1.776   7.910  19.839  0.00  0.00    +0.000 A 
ENDROOT
BRANCH   1   7
ATOM      6  C   UNL     1      -0.644   8.788  21.977  0.00  0.00    +0.000 C 
ATOM      7  C   UNL     1       0.777   9.265  21.726  0.00  0.00    +0.000 C 
ENDBRANCH   1   7
BRANCH   2   8
ATOM      8  C   UNL     1       0.556  11.310  19.339  0.00  0.00    +0.000 C 
BRANCH   8   9
ATOM      9  C   UNL     1      -0.897  11.375  18.906  0.00  0.00    +0.000 A 
ATOM     10  C   UNL     1      -1.417  10.495  17.953  0.00  0.00    +0.000 A 
ATOM     11  C   UNL     1      -2.781  10.480  17.670  0.00  0.00    +0.000 A 
ATOM     12  C   UNL     1      -3.659  11.347  18.306  0.00  0.00    +0.000 A 
ATOM     13  C   UNL     1      -3.164  12.239  19.249  0.00  0.00    +0.000 A 
ATOM     14  C   UNL     1      -1.794  12.245  19.556  0.00  0.00    +0.000 A 
BRANCH  12  15
ATOM     15  O   UNL     1      -4.956  11.281  17.882  0.00  0.00    +0.000 OA
ATOM     16  C   UNL     1      -5.906  11.014  18.908  0.00  0.00    +0.000 C 
ENDBRANCH  12  15
ENDBRANCH   8   9
ENDBRANCH   2   8
BRANCH   5  17
ATOM     17  S   UNL     1       1.946   6.410  20.677  0.00  0.00    +0.000 S 
BRANCH  17  18
ATOM     18  C   UNL     1       1.753   5.249  19.298  0.00  0.00    +0.000 C 
BRANCH  18  19
ATOM     19  C   UNL     1       3.108   4.677  18.923  0.00  0.00    +0.000 C 
ATOM     20  O   UNL     1       3.335   3.479  19.080  0.00  0.00    +0.000 OA
ATOM     21  N   UNL     1       4.014   5.618  18.448  0.00  0.00    +0.000 N 
ATOM     22  H   UNL     1       3.772   6.602  18.576  0.00  0.00    +0.000 HD
BRANCH  21  23
ATOM     23  C   UNL     1       5.291   5.344  17.916  0.00  0.00    +0.000 A 
ATOM     24  C   UNL     1       6.407   5.055  18.719  0.00  0.00    +0.000 A 
ATOM     25  C   UNL     1       7.652   4.788  18.148  0.00  0.00    +0.000 A 
ATOM     26  C   UNL     1       7.804   4.765  16.767  0.00  0.00    +0.000 A 
ATOM     27  C   UNL     1       6.692   4.990  15.950  0.00  0.00    +0.000 A 
ATOM     28  C   UNL     1       5.446   5.304  16.526  0.00  0.00    +0.000 A 
BRANCH  27  29
ATOM     29  C   UNL     1       6.769   4.839  14.467  0.00  0.00    +0.000 C 
ATOM     30  O   UNL     1       7.654   5.349  13.807  0.00  0.00    +0.000 OA
BRANCH  29  31
ATOM     31  O   UNL     1       5.727   4.117  13.992  0.00  0.00    +0.000 OA
ATOM     32  C   UNL     1       5.958   3.490  12.725  0.00  0.00    +0.000 C 
ENDBRANCH  29  31
ENDBRANCH  27  29
ENDBRANCH  21  23
ENDBRANCH  18  19
ENDBRANCH  17  18
ENDBRANCH   5  17
TORSDOF 10
ENDMDL
MODEL 3
REMARK VINA RESULT:      -7.2      3.587      8.341
REMARK  Name = 
REMARK  13 active torsions:
REMARK  status: ('A' for Active; 'I' for Inactive)
REMARK    1  A    between atoms: C_1  and  C_2
REMARK    2  A    between atoms: C_2  and  N_3
REMARK    3  A    between atoms: C_4  and  C_5
REMARK    4  A    between atoms: C_5  and  C_6
REMARK    5  A    between atoms: C_9  and  O_10
REMARK    6  A    between atoms: O_10  and  C_11
REMARK    7  A    between atoms: C_16  and  S_17
REMARK    8  A    between atoms: S_17  and  C_18
REMARK    9  A    between atoms: C_18  and  C_19
REMARK   10  A    between atoms: N_21  and  C_22
REMARK   11  A    between atoms: C_26  and  C_27
REMARK   12  A    between atoms: C_27  and  O_29
REMARK   13  A    between atoms: O_29  and  C_30
REMARK                            x       y       z     vdW  Elec       q    Type
REMARK                         _______ _______ _______ _____ _____    ______ ____
ROOT
ATOM      1  N   UNL     1       3.325   2.674  18.666  0.00  0.00    +0.000 N 
ATOM      2  C   UNL     1       3.268   2.983  17.323  0.00  0.00    +0.000 A 
ATOM      3  N   UNL     1       1.999   3.162  16.988  0.00  0.00    +0.000 NA
ATOM      4  N   UNL     1       1.226   3.001  18.107  0.00  0.00    +0.000 NA
ATOM      5  C   UNL     1       2.034   2.778  19.114  0.00  0.00    +0.000 A 
ENDROOT
BRANCH   1   7
ATOM      6  C   UNL     1       5.281   3.483  19.951  0.00  0.00    +0.000 C 
ATOM      7  C   UNL     1       4.495   2.293  19.430  0.00  0.00    +0.000 C 
ENDBRANCH   1   7
BRANCH   2   8
ATOM      8  C   UNL     1       4.438   3.137  16.394  0.00  0.00    +0.000 C 
BRANCH   8   9
ATOM      9  C   UNL     1       5.225   4.427  16.522  0.00  0.00    +0.000 A 
ATOM     10  C   UNL     1       4.588   5.670  16.593  0.00  0.00    +0.000 A 
ATOM     11  C   UNL     1       5.319   6.829  16.846  0.00  0.00    +0.000 A 
ATOM     12  C   UNL     1       6.696   6.790  17.014  0.00  0.00    +0.000 A 
ATOM     13  C   UNL     1       7.354   5.568  16.937  0.00  0.00    +0.000 A 
ATOM     14  C   UNL     1       6.621   4.393  16.704  0.00  0.00    +0.000 A 
BRANCH  12  15
ATOM     15  O   UNL     1       7.299   8.004  17.181  0.00  0.00    +0.000 OA
ATOM     16  C   UNL     1       8.212   8.072  18.272  0.00  0.00    +0.000 C 
ENDBRANCH  12  15
ENDBRANCH   8   9
ENDBRANCH   2   8
BRANCH   5  17
ATOM     17  S   UNL     1       1.538   2.612  20.759  0.00  0.00    +0.000 S 
BRANCH  17  18
ATOM     18  C   UNL     1       2.166   4.169  21.441  0.00  0.00    +0.000 C 
BRANCH  18  19
ATOM     19  C   UNL     1       1.537   5.337  20.703  0.00  0.00    +0.000 C 
ATOM     20  O   UNL     1       0.326   5.352  20.492  0.00  0.00    +0.000 OA
ATOM     21  N   UNL     1       2.444   6.306  20.288  0.00  0.00    +0.000 N 
ATOM     22  H   UNL     1       3.435   6.064  20.335  0.00  0.00    +0.000 HD
BRANCH  21  23
ATOM     23  C   UNL     1       2.121   7.545  19.697  0.00  0.00    +0.000 A 
ATOM     24  C   UNL     1       2.241   7.787  18.318  0.00  0.00    +0.000 A 
ATOM     25  C   UNL     1       1.908   9.029  17.777  0.00  0.00    +0.000 A 
ATOM     26  C   UNL     1       1.412  10.042  18.588  0.00  0.00    +0.000 A 
ATOM     27  C   UNL     1       1.229   9.801  19.953  0.00  0.00    +0.000 A 
ATOM     28  C   UNL     1       1.606   8.563  20.507  0.00  0.00    +0.000 A 
BRANCH  27  29
ATOM     29  C   UNL     1       0.571  10.804  20.842  0.00  0.00    +0.000 C 
ATOM     30  O   UNL     1       0.736  10.811  22.047  0.00  0.00    +0.000 OA
BRANCH  29  31
ATOM     31  O   UNL     1      -0.231  11.635  20.136  0.00  0.00    +0.000 OA
ATOM     32  C   UNL     1      -1.435  11.036  19.645  0.00  0.00    +0.000 C 
ENDBRANCH  29  31
ENDBRANCH  27  29
ENDBRANCH  21  23
ENDBRANCH  18  19
ENDBRANCH  17  18
ENDBRANCH   5  17
TORSDOF 10
ENDMDL
MODEL 4
REMARK VINA RESULT:      -7.2      3.058      4.362
REMARK  Name = 
REMARK  13 active torsions:
REMARK  status: ('A' for Active; 'I' for Inactive)
REMARK    1  A    between atoms: C_1  and  C_2
REMARK    2  A    between atoms: C_2  and  N_3
REMARK    3  A    between atoms: C_4  and  C_5
REMARK    4  A    between atoms: C_5  and  C_6
REMARK    5  A    between atoms: C_9  and  O_10
REMARK    6  A    between atoms: O_10  and  C_11
REMARK    7  A    between atoms: C_16  and  S_17
REMARK    8  A    between atoms: S_17  and  C_18
REMARK    9  A    between atoms: C_18  and  C_19
REMARK   10  A    between atoms: N_21  and  C_22
REMARK   11  A    between atoms: C_26  and  C_27
REMARK   12  A    between atoms: C_27  and  O_29
REMARK   13  A    between atoms: O_29  and  C_30
REMARK                            x       y       z     vdW  Elec       q    Type
REMARK                         _______ _______ _______ _____ _____    ______ ____
ROOT
ATOM      1  N   UNL     1       1.116   8.405  20.357  0.00  0.00    +0.000 N 
ATOM      2  C   UNL     1       1.203   9.393  19.398  0.00  0.00    +0.000 A 
ATOM      3  N   UNL     1       2.023   8.980  18.444  0.00  0.00    +0.000 NA
ATOM      4  N   UNL     1       2.452   7.717  18.755  0.00  0.00    +0.000 NA
ATOM      5  C   UNL     1       1.852   7.360  19.862  0.00  0.00    +0.000 A 
ENDROOT
BRANCH   1   7
ATOM      6  C   UNL     1       0.787   9.702  22.440  0.00  0.00    +0.000 C 
ATOM      7  C   UNL     1       0.422   8.473  21.626  0.00  0.00    +0.000 C 
ENDBRANCH   1   7
BRANCH   2   8
ATOM      8  C   UNL     1       0.467  10.702  19.399  0.00  0.00    +0.000 C 
BRANCH   8   9
ATOM      9  C   UNL     1      -0.907  10.695  18.755  0.00  0.00    +0.000 A 
ATOM     10  C   UNL     1      -1.908  11.585  19.155  0.00  0.00    +0.000 A 
ATOM     11  C   UNL     1      -3.114  11.655  18.462  0.00  0.00    +0.000 A 
ATOM     12  C   UNL     1      -3.367  10.835  17.371  0.00  0.00    +0.000 A 
ATOM     13  C   UNL     1      -2.392   9.934  16.960  0.00  0.00    +0.000 A 
ATOM     14  C   UNL     1      -1.165   9.873  17.641  0.00  0.00    +0.000 A 
BRANCH  12  15
ATOM     15  O   UNL     1      -4.616  10.951  16.829  0.00  0.00    +0.000 OA
ATOM     16  C   UNL     1      -5.398  12.019  17.354  0.00  0.00    +0.000 C 
ENDBRANCH  12  15
ENDBRANCH   8   9
ENDBRANCH   2   8
BRANCH   5  17
ATOM     17  S   UNL     1       1.990   5.806  20.603  0.00  0.00    +0.000 S 
BRANCH  17  18
ATOM     18  C   UNL     1       1.573   4.743  19.197  0.00  0.00    +0.000 C 
BRANCH  18  19
ATOM     19  C   UNL     1       2.846   4.215  18.562  0.00  0.00    +0.000 C 
ATOM     20  O   UNL     1       2.948   3.021  18.286  0.00  0.00    +0.000 OA
ATOM     21  N   UNL     1       3.834   5.176  18.379  0.00  0.00    +0.000 N 
ATOM     22  H   UNL     1       3.702   6.073  18.850  0.00  0.00    +0.000 HD
BRANCH  21  23
ATOM     23  C   UNL     1       5.058   4.988  17.704  0.00  0.00    +0.000 A 
ATOM     24  C   UNL     1       6.286   4.855  18.373  0.00  0.00    +0.000 A 
ATOM     25  C   UNL     1       7.473   4.669  17.663  0.00  0.00    +0.000 A 
ATOM     26  C   UNL     1       7.459   4.573  16.277  0.00  0.00    +0.000 A 
ATOM     27  C   UNL     1       6.238   4.643  15.597  0.00  0.00    +0.000 A 
ATOM     28  C   UNL     1       5.047   4.875  16.310  0.00  0.00    +0.000 A 
BRANCH  27  29
ATOM     29  C   UNL     1       6.150   4.407  14.126  0.00  0.00    +0.000 C 
ATOM     30  O   UNL     1       5.175   3.898  13.607  0.00  0.00    +0.000 OA
BRANCH  29  31
ATOM     31  O   UNL     1       7.286   4.790  13.498  0.00  0.00    +0.000 OA
ATOM     32  C   UNL     1       7.333   4.484  12.099  0.00  0.00    +0.000 C 
ENDBRANCH  29  31
ENDBRANCH  27  29
ENDBRANCH  21  23
ENDBRANCH  18  19
ENDBRANCH  17  18
ENDBRANCH   5  17
TORSDOF 10
ENDMDL
MODEL 5
REMARK VINA RESULT:      -7.1      3.855      6.684
REMARK  Name = 
REMARK  13 active torsions:
REMARK  status: ('A' for Active; 'I' for Inactive)
REMARK    1  A    between atoms: C_1  and  C_2
REMARK    2  A    between atoms: C_2  and  N_3
REMARK    3  A    between atoms: C_4  and  C_5
REMARK    4  A    between atoms: C_5  and  C_6
REMARK    5  A    between atoms: C_9  and  O_10
REMARK    6  A    between atoms: O_10  and  C_11
REMARK    7  A    between atoms: C_16  and  S_17
REMARK    8  A    between atoms: S_17  and  C_18
REMARK    9  A    between atoms: C_18  and  C_19
REMARK   10  A    between atoms: N_21  and  C_22
REMARK   11  A    between atoms: C_26  and  C_27
REMARK   12  A    between atoms: C_27  and  O_29
REMARK   13  A    between atoms: O_29  and  C_30
REMARK                            x       y       z     vdW  Elec       q    Type
REMARK                         _______ _______ _______ _____ _____    ______ ____
ROOT
ATOM      1  N   UNL     1      -0.126  10.792  21.034  0.00  0.00    +0.000 N 
ATOM      2  C   UNL     1      -0.512  11.387  22.218  0.00  0.00    +0.000 A 
ATOM      3  N   UNL     1      -0.140  10.606  23.220  0.00  0.00    +0.000 NA
ATOM      4  N   UNL     1       0.512   9.517  22.705  0.00  0.00    +0.000 NA
ATOM      5  C   UNL     1       0.573   9.674  21.407  0.00  0.00    +0.000 A 
ENDROOT
BRANCH   1   7
ATOM      6  C   UNL     1       0.597  12.224  19.148  0.00  0.00    +0.000 C 
ATOM      7  C   UNL     1      -0.425  11.238  19.689  0.00  0.00    +0.000 C 
ENDBRANCH   1   7
BRANCH   2   8
ATOM      8  C   UNL     1      -1.200  12.714  22.364  0.00  0.00    +0.000 C 
BRANCH   8   9
ATOM      9  C   UNL     1      -2.710  12.670  22.504  0.00  0.00    +0.000 A 
ATOM     10  C   UNL     1      -3.330  12.695  23.757  0.00  0.00    +0.000 A 
ATOM     11  C   UNL     1      -4.716  12.791  23.861  0.00  0.00    +0.000 A 
ATOM     12  C   UNL     1      -5.522  12.846  22.732  0.00  0.00    +0.000 A 
ATOM     13  C   UNL     1      -4.930  12.813  21.475  0.00  0.00    +0.000 A 
ATOM     14  C   UNL     1      -3.532  12.737  21.362  0.00  0.00    +0.000 A 
BRANCH  12  15
ATOM     15  O   UNL     1      -6.867  12.863  22.973  0.00  0.00    +0.000 OA
ATOM     16  C   UNL     1      -7.674  13.139  21.833  0.00  0.00    +0.000 C 
ENDBRANCH  12  15
ENDBRANCH   8   9
ENDBRANCH   2   8
BRANCH   5  17
ATOM     17  S   UNL     1       1.393   8.610  20.322  0.00  0.00    +0.000 S 
BRANCH  17  18
ATOM     18  C   UNL     1       1.110   7.025  21.153  0.00  0.00    +0.000 C 
BRANCH  18  19
ATOM     19  C   UNL     1       1.983   5.956  20.522  0.00  0.00    +0.000 C 
ATOM     20  O   UNL     1       2.054   4.839  21.030  0.00  0.00    +0.000 OA
ATOM     21  N   UNL     1       2.677   6.378  19.394  0.00  0.00    +0.000 N 
ATOM     22  H   UNL     1       2.698   7.382  19.211  0.00  0.00    +0.000 HD
BRANCH  21  23
ATOM     23  C   UNL     1       3.456   5.563  18.546  0.00  0.00    +0.000 A 
ATOM     24  C   UNL     1       2.895   4.629  17.659  0.00  0.00    +0.000 A 
ATOM     25  C   UNL     1       3.705   3.843  16.838  0.00  0.00    +0.000 A 
ATOM     26  C   UNL     1       5.086   3.998  16.854  0.00  0.00    +0.000 A 
ATOM     27  C   UNL     1       5.659   4.965  17.686  0.00  0.00    +0.000 A 
ATOM     28  C   UNL     1       4.845   5.725  18.547  0.00  0.00    +0.000 A 
BRANCH  27  29
ATOM     29  C   UNL     1       7.120   5.268  17.640  0.00  0.00    +0.000 C 
ATOM     30  O   UNL     1       7.932   4.658  18.309  0.00  0.00    +0.000 OA
BRANCH  29  31
ATOM     31  O   UNL     1       7.380   6.305  16.810  0.00  0.00    +0.000 OA
ATOM     32  C   UNL     1       7.647   7.549  17.466  0.00  0.00    +0.000 C 
ENDBRANCH  29  31
ENDBRANCH  27  29
ENDBRANCH  21  23
ENDBRANCH  18  19
ENDBRANCH  17  18
ENDBRANCH   5  17
TORSDOF 10
ENDMDL
MODEL 6
REMARK VINA RESULT:      -7.1      3.945      6.667
REMARK  Name = 
REMARK  13 active torsions:
REMARK  status: ('A' for Active; 'I' for Inactive)
REMARK    1  A    between atoms: C_1  and  C_2
REMARK    2  A    between atoms: C_2  and  N_3
REMARK    3  A    between atoms: C_4  and  C_5
REMARK    4  A    between atoms: C_5  and  C_6
REMARK    5  A    between atoms: C_9  and  O_10
REMARK    6  A    between atoms: O_10  and  C_11
REMARK    7  A    between atoms: C_16  and  S_17
REMARK    8  A    between atoms: S_17  and  C_18
REMARK    9  A    between atoms: C_18  and  C_19
REMARK   10  A    between atoms: N_21  and  C_22
REMARK   11  A    between atoms: C_26  and  C_27
REMARK   12  A    between atoms: C_27  and  O_29
REMARK   13  A    between atoms: O_29  and  C_30
REMARK                            x       y       z     vdW  Elec       q    Type
REMARK                         _______ _______ _______ _____ _____    ______ ____
ROOT
ATOM      1  N   UNL     1       0.000  11.238  19.694  0.00  0.00    +0.000 N 
ATOM      2  C   UNL     1       0.497  12.523  19.772  0.00  0.00    +0.000 A 
ATOM      3  N   UNL     1       0.878  12.749  21.020  0.00  0.00    +0.000 NA
ATOM      4  N   UNL     1       0.663  11.614  21.754  0.00  0.00    +0.000 NA
ATOM      5  C   UNL     1       0.203  10.699  20.938  0.00  0.00    +0.000 A 
ENDROOT
BRANCH   1   7
ATOM      6  C   UNL     1      -2.114  10.903  18.450  0.00  0.00    +0.000 C 
ATOM      7  C   UNL     1      -0.627  10.607  18.551  0.00  0.00    +0.000 C 
ENDBRANCH   1   7
BRANCH   2   8
ATOM      8  C   UNL     1       0.628  13.497  18.637  0.00  0.00    +0.000 C 
BRANCH   8   9
ATOM      9  C   UNL     1       1.798  14.460  18.717  0.00  0.00    +0.000 A 
ATOM     10  C   UNL     1       3.062  14.119  18.225  0.00  0.00    +0.000 A 
ATOM     11  C   UNL     1       4.085  15.063  18.184  0.00  0.00    +0.000 A 
ATOM     12  C   UNL     1       3.891  16.358  18.644  0.00  0.00    +0.000 A 
ATOM     13  C   UNL     1       2.647  16.718  19.148  0.00  0.00    +0.000 A 
ATOM     14  C   UNL     1       1.603  15.778  19.172  0.00  0.00    +0.000 A 
BRANCH  12  15
ATOM     15  O   UNL     1       4.996  17.161  18.617  0.00  0.00    +0.000 OA
ATOM     16  C   UNL     1       5.564  17.438  19.893  0.00  0.00    +0.000 C 
ENDBRANCH  12  15
ENDBRANCH   8   9
ENDBRANCH   2   8
BRANCH   5  17
ATOM     17  S   UNL     1      -0.125   9.061  21.375  0.00  0.00    +0.000 S 
BRANCH  17  18
ATOM     18  C   UNL     1       1.565   8.416  21.488  0.00  0.00    +0.000 C 
BRANCH  18  19
ATOM     19  C   UNL     1       1.894   7.627  20.234  0.00  0.00    +0.000 C 
ATOM     20  O   UNL     1       1.944   8.196  19.145  0.00  0.00    +0.000 OA
ATOM     21  N   UNL     1       2.081   6.266  20.447  0.00  0.00    +0.000 N 
ATOM     22  H   UNL     1       1.796   5.896  21.355  0.00  0.00    +0.000 HD
BRANCH  21  23
ATOM     23  C   UNL     1       2.514   5.329  19.486  0.00  0.00    +0.000 A 
ATOM     24  C   UNL     1       1.632   4.487  18.789  0.00  0.00    +0.000 A 
ATOM     25  C   UNL     1       2.106   3.575  17.845  0.00  0.00    +0.000 A 
ATOM     26  C   UNL     1       3.462   3.508  17.548  0.00  0.00    +0.000 A 
ATOM     27  C   UNL     1       4.348   4.380  18.188  0.00  0.00    +0.000 A 
ATOM     28  C   UNL     1       3.876   5.269  19.172  0.00  0.00    +0.000 A 
BRANCH  27  29
ATOM     29  C   UNL     1       5.790   4.447  17.806  0.00  0.00    +0.000 C 
ATOM     30  O   UNL     1       6.681   4.471  18.633  0.00  0.00    +0.000 OA
BRANCH  29  31
ATOM     31  O   UNL     1       5.939   4.516  16.462  0.00  0.00    +0.000 OA
ATOM     32  C   UNL     1       5.664   5.801  15.892  0.00  0.00    +0.000 C 
ENDBRANCH  29  31
ENDBRANCH  27  29
ENDBRANCH  21  23
ENDBRANCH  18  19
ENDBRANCH  17  18
ENDBRANCH   5  17
TORSDOF 10
ENDMDL
MODEL 7
REMARK VINA RESULT:      -7.1      2.829      9.434
REMARK  Name = 
REMARK  13 active torsions:
REMARK  status: ('A' for Active; 'I' for Inactive)
REMARK    1  A    between atoms: C_1  and  C_2
REMARK    2  A    between atoms: C_2  and  N_3
REMARK    3  A    between atoms: C_4  and  C_5
REMARK    4  A    between atoms: C_5  and  C_6
REMARK    5  A    between atoms: C_9  and  O_10
REMARK    6  A    between atoms: O_10  and  C_11
REMARK    7  A    between atoms: C_16  and  S_17
REMARK    8  A    between atoms: S_17  and  C_18
REMARK    9  A    between atoms: C_18  and  C_19
REMARK   10  A    between atoms: N_21  and  C_22
REMARK   11  A    between atoms: C_26  and  C_27
REMARK   12  A    between atoms: C_27  and  O_29
REMARK   13  A    between atoms: O_29  and  C_30
REMARK                            x       y       z     vdW  Elec       q    Type
REMARK                         _______ _______ _______ _____ _____    ______ ____
ROOT
ATOM      1  N   UNL     1       3.959   5.641  18.875  0.00  0.00    +0.000 N 
ATOM      2  C   UNL     1       4.699   6.267  17.892  0.00  0.00    +0.000 A 
ATOM      3  N   UNL     1       4.000   7.293  17.432  0.00  0.00    +0.000 NA
ATOM      4  N   UNL     1       2.821   7.363  18.125  0.00  0.00    +0.000 NA
ATOM      5  C   UNL     1       2.839   6.414  19.028  0.00  0.00    +0.000 A 
ENDROOT
BRANCH   1   7
ATOM      6  C   UNL     1       3.733   3.175  18.886  0.00  0.00    +0.000 C 
ATOM      7  C   UNL     1       4.286   4.413  19.571  0.00  0.00    +0.000 C 
ENDBRANCH   1   7
BRANCH   2   8
ATOM      8  C   UNL     1       6.079   5.887  17.439  0.00  0.00    +0.000 C 
BRANCH   8   9
ATOM      9  C   UNL     1       6.167   5.140  16.121  0.00  0.00    +0.000 A 
ATOM     10  C   UNL     1       5.131   4.313  15.679  0.00  0.00    +0.000 A 
ATOM     11  C   UNL     1       5.171   3.745  14.407  0.00  0.00    +0.000 A 
ATOM     12  C   UNL     1       6.242   3.964  13.553  0.00  0.00    +0.000 A 
ATOM     13  C   UNL     1       7.290   4.774  13.974  0.00  0.00    +0.000 A 
ATOM     14  C   UNL     1       7.246   5.368  15.247  0.00  0.00    +0.000 A 
BRANCH  12  15
ATOM     15  O   UNL     1       6.192   3.288  12.366  0.00  0.00    +0.000 OA
ATOM     16  C   UNL     1       4.896   3.204  11.782  0.00  0.00    +0.000 C 
ENDBRANCH  12  15
ENDBRANCH   8   9
ENDBRANCH   2   8
BRANCH   5  17
ATOM     17  S   UNL     1       1.613   6.161  20.217  0.00  0.00    +0.000 S 
BRANCH  17  18
ATOM     18  C   UNL     1       1.832   7.652  21.224  0.00  0.00    +0.000 C 
BRANCH  18  19
ATOM     19  C   UNL     1       0.784   8.681  20.842  0.00  0.00    +0.000 C 
ATOM     20  O   UNL     1      -0.226   8.815  21.530  0.00  0.00    +0.000 OA
ATOM     21  N   UNL     1       1.069   9.381  19.675  0.00  0.00    +0.000 N 
ATOM     22  H   UNL     1       1.824   9.020  19.090  0.00  0.00    +0.000 HD
BRANCH  21  23
ATOM     23  C   UNL     1       0.335  10.471  19.163  0.00  0.00    +0.000 A 
ATOM     24  C   UNL     1       0.771  11.803  19.268  0.00  0.00    +0.000 A 
ATOM     25  C   UNL     1       0.011  12.849  18.744  0.00  0.00    +0.000 A 
ATOM     26  C   UNL     1      -1.177  12.591  18.072  0.00  0.00    +0.000 A 
ATOM     27  C   UNL     1      -1.597  11.268  17.904  0.00  0.00    +0.000 A 
ATOM     28  C   UNL     1      -0.854  10.215  18.471  0.00  0.00    +0.000 A 
BRANCH  27  29
ATOM     29  C   UNL     1      -2.789  10.926  17.072  0.00  0.00    +0.000 C 
ATOM     30  O   UNL     1      -3.874  11.447  17.246  0.00  0.00    +0.000 OA
BRANCH  29  31
ATOM     31  O   UNL     1      -2.496   9.964  16.166  0.00  0.00    +0.000 OA
ATOM     32  C   UNL     1      -2.960  10.228  14.837  0.00  0.00    +0.000 C 
ENDBRANCH  29  31
ENDBRANCH  27  29
ENDBRANCH  21  23
ENDBRANCH  18  19
ENDBRANCH  17  18
ENDBRANCH   5  17
TORSDOF 10
ENDMDL
MODEL 8
REMARK VINA RESULT:      -7.0      5.883      9.120
REMARK  Name = 
REMARK  13 active torsions:
REMARK  status: ('A' for Active; 'I' for Inactive)
REMARK    1  A    between atoms: C_1  and  C_2
REMARK    2  A    between atoms: C_2  and  N_3
REMARK    3  A    between atoms: C_4  and  C_5
REMARK    4  A    between atoms: C_5  and  C_6
REMARK    5  A    between atoms: C_9  and  O_10
REMARK    6  A    between atoms: O_10  and  C_11
REMARK    7  A    between atoms: C_16  and  S_17
REMARK    8  A    between atoms: S_17  and  C_18
REMARK    9  A    between atoms: C_18  and  C_19
REMARK   10  A    between atoms: N_21  and  C_22
REMARK   11  A    between atoms: C_26  and  C_27
REMARK   12  A    between atoms: C_27  and  O_29
REMARK   13  A    between atoms: O_29  and  C_30
REMARK                            x       y       z     vdW  Elec       q    Type
REMARK                         _______ _______ _______ _____ _____    ______ ____
ROOT
ATOM      1  N   UNL     1       5.743   5.750  17.290  0.00  0.00    +0.000 N 
ATOM      2  C   UNL     1       5.514   4.877  16.247  0.00  0.00    +0.000 A 
ATOM      3  N   UNL     1       6.624   4.780  15.531  0.00  0.00    +0.000 NA
ATOM      4  N   UNL     1       7.587   5.560  16.113  0.00  0.00    +0.000 NA
ATOM      5  C   UNL     1       7.070   6.079  17.198  0.00  0.00    +0.000 A 
ENDROOT
BRANCH   1   7
ATOM      6  C   UNL     1       3.860   7.307  17.691  0.00  0.00    +0.000 C 
ATOM      7  C   UNL     1       4.778   6.237  18.255  0.00  0.00    +0.000 C 
ENDBRANCH   1   7
BRANCH   2   8
ATOM      8  C   UNL     1       4.243   4.124  15.979  0.00  0.00    +0.000 C 
BRANCH   8   9
ATOM      9  C   UNL     1       3.473   3.660  17.201  0.00  0.00    +0.000 A 
ATOM     10  C   UNL     1       2.164   4.086  17.446  0.00  0.00    +0.000 A 
ATOM     11  C   UNL     1       1.427   3.544  18.498  0.00  0.00    +0.000 A 
ATOM     12  C   UNL     1       1.971   2.586  19.341  0.00  0.00    +0.000 A 
ATOM     13  C   UNL     1       3.274   2.154  19.124  0.00  0.00    +0.000 A 
ATOM     14  C   UNL     1       4.016   2.680  18.053  0.00  0.00    +0.000 A 
BRANCH  12  15
ATOM     15  O   UNL     1       1.170   2.194  20.376  0.00  0.00    +0.000 OA
ATOM     16  C   UNL     1       1.486   2.784  21.633  0.00  0.00    +0.000 C 
ENDBRANCH  12  15
ENDBRANCH   8   9
ENDBRANCH   2   8
BRANCH   5  17
ATOM     17  S   UNL     1       7.930   7.058  18.331  0.00  0.00    +0.000 S 
BRANCH  17  18
ATOM     18  C   UNL     1       7.672   8.696  17.599  0.00  0.00    +0.000 C 
BRANCH  18  19
ATOM     19  C   UNL     1       8.578   9.705  18.279  0.00  0.00    +0.000 C 
ATOM     20  O   UNL     1       9.136   9.417  19.337  0.00  0.00    +0.000 OA
ATOM     21  N   UNL     1       8.665  10.928  17.624  0.00  0.00    +0.000 N 
ATOM     22  H   UNL     1       7.985  11.107  16.884  0.00  0.00    +0.000 HD
BRANCH  21  23
ATOM     23  C   UNL     1       9.525  11.993  17.966  0.00  0.00    +0.000 A 
ATOM     24  C   UNL     1      10.923  11.862  18.005  0.00  0.00    +0.000 A 
ATOM     25  C   UNL     1      11.735  12.944  18.348  0.00  0.00    +0.000 A 
ATOM     26  C   UNL     1      11.177  14.186  18.621  0.00  0.00    +0.000 A 
ATOM     27  C   UNL     1       9.791  14.351  18.529  0.00  0.00    +0.000 A 
ATOM     28  C   UNL     1       8.969  13.250  18.227  0.00  0.00    +0.000 A 
BRANCH  27  29
ATOM     29  C   UNL     1       9.153  15.693  18.675  0.00  0.00    +0.000 C 
ATOM     30  O   UNL     1       9.598  16.687  18.132  0.00  0.00    +0.000 OA
BRANCH  29  31
ATOM     31  O   UNL     1       8.080  15.640  19.498  0.00  0.00    +0.000 OA
ATOM     32  C   UNL     1       8.365  15.908  20.875  0.00  0.00    +0.000 C 
ENDBRANCH  29  31
ENDBRANCH  27  29
ENDBRANCH  21  23
ENDBRANCH  18  19
ENDBRANCH  17  18
ENDBRANCH   5  17
TORSDOF 10
ENDMDL
MODEL 9
REMARK VINA RESULT:      -7.0      2.248      9.420
REMARK  Name = 
REMARK  13 active torsions:
REMARK  status: ('A' for Active; 'I' for Inactive)
REMARK    1  A    between atoms: C_1  and  C_2
REMARK    2  A    between atoms: C_2  and  N_3
REMARK    3  A    between atoms: C_4  and  C_5
REMARK    4  A    between atoms: C_5  and  C_6
REMARK    5  A    between atoms: C_9  and  O_10
REMARK    6  A    between atoms: O_10  and  C_11
REMARK    7  A    between atoms: C_16  and  S_17
REMARK    8  A    between atoms: S_17  and  C_18
REMARK    9  A    between atoms: C_18  and  C_19
REMARK   10  A    between atoms: N_21  and  C_22
REMARK   11  A    between atoms: C_26  and  C_27
REMARK   12  A    between atoms: C_27  and  O_29
REMARK   13  A    between atoms: O_29  and  C_30
REMARK                            x       y       z     vdW  Elec       q    Type
REMARK                         _______ _______ _______ _____ _____    ______ ____
ROOT
ATOM      1  N   UNL     1       4.963   4.442  18.444  0.00  0.00    +0.000 N 
ATOM      2  C   UNL     1       4.733   4.408  17.083  0.00  0.00    +0.000 A 
ATOM      3  N   UNL     1       4.028   3.321  16.805  0.00  0.00    +0.000 NA
ATOM      4  N   UNL     1       3.770   2.658  17.976  0.00  0.00    +0.000 NA
ATOM      5  C   UNL     1       4.273   3.371  18.951  0.00  0.00    +0.000 A 
ENDROOT
BRANCH   1   7
ATOM      6  C   UNL     1       7.262   5.269  18.847  0.00  0.00    +0.000 C 
ATOM      7  C   UNL     1       5.782   5.388  19.171  0.00  0.00    +0.000 C 
ENDBRANCH   1   7
BRANCH   2   8
ATOM      8  C   UNL     1       5.164   5.439  16.082  0.00  0.00    +0.000 C 
BRANCH   8   9
ATOM      9  C   UNL     1       5.718   4.908  14.773  0.00  0.00    +0.000 A 
ATOM     10  C   UNL     1       7.038   5.154  14.384  0.00  0.00    +0.000 A 
ATOM     11  C   UNL     1       7.568   4.545  13.248  0.00  0.00    +0.000 A 
ATOM     12  C   UNL     1       6.802   3.696  12.461  0.00  0.00    +0.000 A 
ATOM     13  C   UNL     1       5.484   3.444  12.822  0.00  0.00    +0.000 A 
ATOM     14  C   UNL     1       4.949   4.037  13.978  0.00  0.00    +0.000 A 
BRANCH  12  15
ATOM     15  O   UNL     1       7.419   3.226  11.336  0.00  0.00    +0.000 OA
ATOM     16  C   UNL     1       7.170   1.854  11.049  0.00  0.00    +0.000 C 
ENDBRANCH  12  15
ENDBRANCH   8   9
ENDBRANCH   2   8
BRANCH   5  17
ATOM     17  S   UNL     1       4.114   3.000  20.630  0.00  0.00    +0.000 S 
BRANCH  17  18
ATOM     18  C   UNL     1       2.355   3.366  20.872  0.00  0.00    +0.000 C 
BRANCH  18  19
ATOM     19  C   UNL     1       1.955   4.540  19.999  0.00  0.00    +0.000 C 
ATOM     20  O   UNL     1       1.246   4.359  19.011  0.00  0.00    +0.000 OA
ATOM     21  N   UNL     1       2.485   5.760  20.403  0.00  0.00    +0.000 N 
ATOM     22  H   UNL     1       3.228   5.734  21.103  0.00  0.00    +0.000 HD
BRANCH  21  23
ATOM     23  C   UNL     1       2.178   7.021  19.851  0.00  0.00    +0.000 A 
ATOM     24  C   UNL     1       2.506   7.377  18.531  0.00  0.00    +0.000 A 
ATOM     25  C   UNL     1       2.181   8.637  18.027  0.00  0.00    +0.000 A 
ATOM     26  C   UNL     1       1.490   9.553  18.810  0.00  0.00    +0.000 A 
ATOM     27  C   UNL     1       1.102   9.195  20.105  0.00  0.00    +0.000 A 
ATOM     28  C   UNL     1       1.468   7.942  20.629  0.00  0.00    +0.000 A 
BRANCH  27  29
ATOM     29  C   UNL     1       0.238  10.086  20.936  0.00  0.00    +0.000 C 
ATOM     30  O   UNL     1      -0.699  10.703  20.467  0.00  0.00    +0.000 OA
BRANCH  29  31
ATOM     31  O   UNL     1       0.669  10.130  22.218  0.00  0.00    +0.000 OA
ATOM     32  C   UNL     1      -0.336   9.847  23.199  0.00  0.00    +0.000 C 
ENDBRANCH  29  31
ENDBRANCH  27  29
ENDBRANCH  21  23
ENDBRANCH  18  19
ENDBRANCH  17  18
ENDBRANCH   5  17
TORSDOF 10
ENDMDL
