MODEL 1
REMARK VINA RESULT:      -6.2      0.000      0.000
REMARK  Name = 
REMARK  5 active torsions:
REMARK  status: ('A' for Active; 'I' for Inactive)
REMARK    1  A    between atoms: C_1  and  C_2
REMARK    2  A    between atoms: C_7  and  C_8
REMARK    3  A    between atoms: C_11  and  N_12
REMARK    4  A    between atoms: N_14  and  C_15
REMARK    5  A    between atoms: N_18  and  C_19
REMARK                            x       y       z     vdW  Elec       q    Type
REMARK                         _______ _______ _______ _____ _____    ______ ____
ROOT
ATOM      1  C   UNL     1       0.921   9.151  21.072  0.00  0.00    +0.000 A 
ATOM      2  N   UNL     1       1.377   9.430  22.276  0.00  0.00    +0.000 NA
ATOM      3  N   UNL     1       0.476  10.138  23.035  0.00  0.00    +0.000 NA
ATOM      4  C   UNL     1      -0.582  10.532  22.352  0.00  0.00    +0.000 A 
ATOM      5  S   UNL     1      -0.600   9.890  20.744  0.00  0.00    +0.000 S 
ENDROOT
BRANCH   4   6
ATOM      6  N   UNL     1      -1.645  11.263  22.764  0.00  0.00    +0.000 NA
ATOM      7  C   UNL     1      -1.527  12.542  22.924  0.00  0.00    +0.000 C 
ATOM      8  N   UNL     1      -0.524  13.468  22.644  0.00  0.00    +0.000 N 
ATOM      9  C   UNL     1       0.380  13.424  21.509  0.00  0.00    +0.000 C 
ATOM     10  C   UNL     1      -0.878  14.816  23.092  0.00  0.00    +0.000 C 
ATOM     11  C   UNL     1      -2.093  14.579  23.981  0.00  0.00    +0.000 C 
ATOM     12  N   UNL     1      -2.549  13.271  23.537  0.00  0.00    +0.000 N 
ATOM     13  C   UNL     1      -3.592  12.631  24.313  0.00  0.00    +0.000 C 
ENDBRANCH   4   6
BRANCH   1  20
ATOM     14  C   UNL     1       1.635  10.081  18.323  0.00  0.00    +0.000 C 
ATOM     15  C   UNL     1       1.942   8.689  18.815  0.00  0.00    +0.000 A 
ATOM     16  C   UNL     1       2.594   7.812  17.929  0.00  0.00    +0.000 A 
ATOM     17  C   UNL     1       2.904   6.508  18.309  0.00  0.00    +0.000 A 
ATOM     18  C   UNL     1       2.546   6.055  19.572  0.00  0.00    +0.000 A 
ATOM     19  C   UNL     1       1.887   6.910  20.461  0.00  0.00    +0.000 A 
ATOM     20  C   UNL     1       1.583   8.243  20.112  0.00  0.00    +0.000 A 
ENDBRANCH   1  20
TORSDOF 2
ENDMDL
MODEL 2
REMARK VINA RESULT:      -6.2      2.937      4.368
REMARK  Name = 
REMARK  5 active torsions:
REMARK  status: ('A' for Active; 'I' for Inactive)
REMARK    1  A    between atoms: C_1  and  C_2
REMARK    2  A    between atoms: C_7  and  C_8
REMARK    3  A    between atoms: C_11  and  N_12
REMARK    4  A    between atoms: N_14  and  C_15
REMARK    5  A    between atoms: N_18  and  C_19
REMARK                            x       y       z     vdW  Elec       q    Type
REMARK                         _______ _______ _______ _____ _____    ______ ____
ROOT
ATOM      1  C   UNL     1       2.713   7.580  18.132  0.00  0.00    +0.000 A 
ATOM      2  N   UNL     1       2.454   8.627  17.375  0.00  0.00    +0.000 NA
ATOM      3  N   UNL     1       1.751   9.602  18.040  0.00  0.00    +0.000 NA
ATOM      4  C   UNL     1       1.341   9.224  19.235  0.00  0.00    +0.000 A 
ATOM      5  S   UNL     1       1.959   7.668  19.678  0.00  0.00    +0.000 S 
ENDROOT
BRANCH   4   6
ATOM      6  N   UNL     1       0.608   9.907  20.147  0.00  0.00    +0.000 NA
ATOM      7  C   UNL     1      -0.407  10.612  19.764  0.00  0.00    +0.000 C 
ATOM      8  N   UNL     1      -1.076  10.774  18.551  0.00  0.00    +0.000 N 
ATOM      9  C   UNL     1      -1.287   9.742  17.554  0.00  0.00    +0.000 C 
ATOM     10  C   UNL     1      -2.149  11.766  18.643  0.00  0.00    +0.000 C 
ATOM     11  C   UNL     1      -1.876  12.452  19.975  0.00  0.00    +0.000 C 
ATOM     12  N   UNL     1      -1.042  11.475  20.659  0.00  0.00    +0.000 N 
ATOM     13  C   UNL     1      -0.423  11.885  21.904  0.00  0.00    +0.000 C 
ENDBRANCH   4   6
BRANCH   1  20
ATOM     14  C   UNL     1       1.684   4.783  17.907  0.00  0.00    +0.000 C 
ATOM     15  C   UNL     1       3.121   5.146  17.623  0.00  0.00    +0.000 A 
ATOM     16  C   UNL     1       3.992   4.111  17.235  0.00  0.00    +0.000 A 
ATOM     17  C   UNL     1       5.334   4.367  16.964  0.00  0.00    +0.000 A 
ATOM     18  C   UNL     1       5.829   5.658  17.099  0.00  0.00    +0.000 A 
ATOM     19  C   UNL     1       4.980   6.696  17.494  0.00  0.00    +0.000 A 
ATOM     20  C   UNL     1       3.612   6.469  17.752  0.00  0.00    +0.000 A 
ENDBRANCH   1  20
TORSDOF 2
ENDMDL
MODEL 3
REMARK VINA RESULT:      -6.1      2.914      4.346
REMARK  Name = 
REMARK  5 active torsions:
REMARK  status: ('A' for Active; 'I' for Inactive)
REMARK    1  A    between atoms: C_1  and  C_2
REMARK    2  A    between atoms: C_7  and  C_8
REMARK    3  A    between atoms: C_11  and  N_12
REMARK    4  A    between atoms: N_14  and  C_15
REMARK    5  A    between atoms: N_18  and  C_19
REMARK                            x       y       z     vdW  Elec       q    Type
REMARK                         _______ _______ _______ _____ _____    ______ ____
ROOT
ATOM      1  C   UNL     1       2.342   7.455  18.090  0.00  0.00    +0.000 A 
ATOM      2  N   UNL     1       2.404   8.431  17.206  0.00  0.00    +0.000 NA
ATOM      3  N   UNL     1       2.086   9.655  17.742  0.00  0.00    +0.000 NA
ATOM      4  C   UNL     1       1.628   9.579  18.977  0.00  0.00    +0.000 A 
ATOM      5  S   UNL     1       1.727   7.972  19.614  0.00  0.00    +0.000 S 
ENDROOT
BRANCH   4   6
ATOM      6  N   UNL     1       1.199  10.569  19.794  0.00  0.00    +0.000 NA
ATOM      7  C   UNL     1       0.156  11.266  19.474  0.00  0.00    +0.000 C 
ATOM      8  N   UNL     1      -0.799  11.177  18.463  0.00  0.00    +0.000 N 
ATOM      9  C   UNL     1      -1.320   9.948  17.893  0.00  0.00    +0.000 C 
ATOM     10  C   UNL     1      -1.758  12.282  18.513  0.00  0.00    +0.000 C 
ATOM     11  C   UNL     1      -1.109  13.263  19.480  0.00  0.00    +0.000 C 
ATOM     12  N   UNL     1      -0.175  12.411  20.202  0.00  0.00    +0.000 N 
ATOM     13  C   UNL     1       0.771  13.061  21.087  0.00  0.00    +0.000 C 
ENDBRANCH   4   6
BRANCH   1  20
ATOM     14  C   UNL     1       5.182   6.913  17.335  0.00  0.00    +0.000 C 
ATOM     15  C   UNL     1       4.166   5.814  17.518  0.00  0.00    +0.000 A 
ATOM     16  C   UNL     1       4.595   4.488  17.324  0.00  0.00    +0.000 A 
ATOM     17  C   UNL     1       3.713   3.420  17.468  0.00  0.00    +0.000 A 
ATOM     18  C   UNL     1       2.383   3.664  17.785  0.00  0.00    +0.000 A 
ATOM     19  C   UNL     1       1.936   4.976  17.970  0.00  0.00    +0.000 A 
ATOM     20  C   UNL     1       2.814   6.074  17.855  0.00  0.00    +0.000 A 
ENDBRANCH   1  20
TORSDOF 2
ENDMDL
MODEL 4
REMARK VINA RESULT:      -6.0      4.560      8.998
REMARK  Name = 
REMARK  5 active torsions:
REMARK  status: ('A' for Active; 'I' for Inactive)
REMARK    1  A    between atoms: C_1  and  C_2
REMARK    2  A    between atoms: C_7  and  C_8
REMARK    3  A    between atoms: C_11  and  N_12
REMARK    4  A    between atoms: N_14  and  C_15
REMARK    5  A    between atoms: N_18  and  C_19
REMARK                            x       y       z     vdW  Elec       q    Type
REMARK                         _______ _______ _______ _____ _____    ______ ____
ROOT
ATOM      1  C   UNL     1       2.078   6.960  19.403  0.00  0.00    +0.000 A 
ATOM      2  N   UNL     1       1.893   5.719  19.807  0.00  0.00    +0.000 NA
ATOM      3  N   UNL     1       2.602   4.807  19.064  0.00  0.00    +0.000 NA
ATOM      4  C   UNL     1       3.184   5.338  18.006  0.00  0.00    +0.000 A 
ATOM      5  S   UNL     1       3.022   7.061  17.966  0.00  0.00    +0.000 S 
ENDROOT
BRANCH   4   6
ATOM      6  N   UNL     1       3.931   4.740  17.048  0.00  0.00    +0.000 NA
ATOM      7  C   UNL     1       5.223   4.755  17.131  0.00  0.00    +0.000 C 
ATOM      8  N   UNL     1       6.129   5.168  18.106  0.00  0.00    +0.000 N 
ATOM      9  C   UNL     1       5.936   5.069  19.541  0.00  0.00    +0.000 C 
ATOM     10  C   UNL     1       7.517   5.024  17.664  0.00  0.00    +0.000 C 
ATOM     11  C   UNL     1       7.382   4.771  16.168  0.00  0.00    +0.000 C 
ATOM     12  N   UNL     1       6.002   4.322  16.056  0.00  0.00    +0.000 N 
ATOM     13  C   UNL     1       5.457   4.174  14.721  0.00  0.00    +0.000 C 
ENDBRANCH   4   6
BRANCH   1  20
ATOM     14  C   UNL     1       1.189   9.394  17.914  0.00  0.00    +0.000 C 
ATOM     15  C   UNL     1       1.162   9.307  19.420  0.00  0.00    +0.000 A 
ATOM     16  C   UNL     1       0.691  10.426  20.131  0.00  0.00    +0.000 A 
ATOM     17  C   UNL     1       0.642  10.423  21.522  0.00  0.00    +0.000 A 
ATOM     18  C   UNL     1       1.085   9.310  22.225  0.00  0.00    +0.000 A 
ATOM     19  C   UNL     1       1.566   8.193  21.535  0.00  0.00    +0.000 A 
ATOM     20  C   UNL     1       1.604   8.159  20.125  0.00  0.00    +0.000 A 
ENDBRANCH   1  20
TORSDOF 2
ENDMDL
MODEL 5
REMARK VINA RESULT:      -6.0      2.077      2.909
REMARK  Name = 
REMARK  5 active torsions:
REMARK  status: ('A' for Active; 'I' for Inactive)
REMARK    1  A    between atoms: C_1  and  C_2
REMARK    2  A    between atoms: C_7  and  C_8
REMARK    3  A    between atoms: C_11  and  N_12
REMARK    4  A    between atoms: N_14  and  C_15
REMARK    5  A    between atoms: N_18  and  C_19
REMARK                            x       y       z     vdW  Elec       q    Type
REMARK                         _______ _______ _______ _____ _____    ______ ____
ROOT
ATOM      1  C   UNL     1       0.510  10.691  19.359  0.00  0.00    +0.000 A 
ATOM      2  N   UNL     1       1.044  11.861  19.643  0.00  0.00    +0.000 NA
ATOM      3  N   UNL     1       0.107  12.799  20.005  0.00  0.00    +0.000 NA
ATOM      4  C   UNL     1      -1.134  12.386  19.835  0.00  0.00    +0.000 A 
ATOM      5  S   UNL     1      -1.213  10.721  19.368  0.00  0.00    +0.000 S 
ENDROOT
BRANCH   4   6
ATOM      6  N   UNL     1      -2.296  13.046  20.058  0.00  0.00    +0.000 NA
ATOM      7  C   UNL     1      -2.888  12.944  21.204  0.00  0.00    +0.000 C 
ATOM      8  N   UNL     1      -2.547  12.366  22.426  0.00  0.00    +0.000 N 
ATOM      9  C   UNL     1      -1.214  12.308  22.996  0.00  0.00    +0.000 C 
ATOM     10  C   UNL     1      -3.627  12.477  23.408  0.00  0.00    +0.000 C 
ATOM     11  C   UNL     1      -4.820  12.912  22.566  0.00  0.00    +0.000 C 
ATOM     12  N   UNL     1      -4.177  13.452  21.378  0.00  0.00    +0.000 N 
ATOM     13  C   UNL     1      -5.029  13.788  20.255  0.00  0.00    +0.000 C 
ENDBRANCH   4   6
BRANCH   1  20
ATOM     14  C   UNL     1       0.895   8.698  21.553  0.00  0.00    +0.000 C 
ATOM     15  C   UNL     1       1.443   8.493  20.162  0.00  0.00    +0.000 A 
ATOM     16  C   UNL     1       2.157   7.306  19.910  0.00  0.00    +0.000 A 
ATOM     17  C   UNL     1       2.699   7.049  18.653  0.00  0.00    +0.000 A 
ATOM     18  C   UNL     1       2.554   7.984  17.636  0.00  0.00    +0.000 A 
ATOM     19  C   UNL     1       1.858   9.173  17.873  0.00  0.00    +0.000 A 
ATOM     20  C   UNL     1       1.278   9.449  19.129  0.00  0.00    +0.000 A 
ENDBRANCH   1  20
TORSDOF 2
ENDMDL
MODEL 6
REMARK VINA RESULT:      -5.9      3.617      8.398
REMARK  Name = 
REMARK  5 active torsions:
REMARK  status: ('A' for Active; 'I' for Inactive)
REMARK    1  A    between atoms: C_1  and  C_2
REMARK    2  A    between atoms: C_7  and  C_8
REMARK    3  A    between atoms: C_11  and  N_12
REMARK    4  A    between atoms: N_14  and  C_15
REMARK    5  A    between atoms: N_18  and  C_19
REMARK                            x       y       z     vdW  Elec       q    Type
REMARK                         _______ _______ _______ _____ _____    ______ ____
ROOT
ATOM      1  C   UNL     1       1.218   9.081  19.394  0.00  0.00    +0.000 A 
ATOM      2  N   UNL     1       1.510   8.036  20.142  0.00  0.00    +0.000 NA
ATOM      3  N   UNL     1       2.518   7.268  19.611  0.00  0.00    +0.000 NA
ATOM      4  C   UNL     1       2.867   7.637  18.394  0.00  0.00    +0.000 A 
ATOM      5  S   UNL     1       2.069   9.090  17.896  0.00  0.00    +0.000 S 
ENDROOT
BRANCH   4   6
ATOM      6  N   UNL     1       3.794   7.098  17.567  0.00  0.00    +0.000 NA
ATOM      7  C   UNL     1       3.826   5.818  17.379  0.00  0.00    +0.000 C 
ATOM      8  N   UNL     1       3.001   4.759  17.755  0.00  0.00    +0.000 N 
ATOM      9  C   UNL     1       1.555   4.808  17.867  0.00  0.00    +0.000 C 
ATOM     10  C   UNL     1       3.538   3.465  17.330  0.00  0.00    +0.000 C 
ATOM     11  C   UNL     1       4.966   3.799  16.919  0.00  0.00    +0.000 C 
ATOM     12  N   UNL     1       4.895   5.234  16.693  0.00  0.00    +0.000 N 
ATOM     13  C   UNL     1       6.143   5.937  16.473  0.00  0.00    +0.000 C 
ENDBRANCH   4   6
BRANCH   1  20
ATOM     14  C   UNL     1      -1.135   9.841  17.715  0.00  0.00    +0.000 C 
ATOM     15  C   UNL     1      -0.809  10.530  19.017  0.00  0.00    +0.000 A 
ATOM     16  C   UNL     1      -1.662  11.565  19.440  0.00  0.00    +0.000 A 
ATOM     17  C   UNL     1      -1.422  12.252  20.627  0.00  0.00    +0.000 A 
ATOM     18  C   UNL     1      -0.312  11.930  21.398  0.00  0.00    +0.000 A 
ATOM     19  C   UNL     1       0.553  10.911  20.986  0.00  0.00    +0.000 A 
ATOM     20  C   UNL     1       0.320  10.182  19.801  0.00  0.00    +0.000 A 
ENDBRANCH   1  20
TORSDOF 2
ENDMDL
MODEL 7
REMARK VINA RESULT:      -5.8      2.940      3.832
REMARK  Name = 
REMARK  5 active torsions:
REMARK  status: ('A' for Active; 'I' for Inactive)
REMARK    1  A    between atoms: C_1  and  C_2
REMARK    2  A    between atoms: C_7  and  C_8
REMARK    3  A    between atoms: C_11  and  N_12
REMARK    4  A    between atoms: N_14  and  C_15
REMARK    5  A    between atoms: N_18  and  C_19
REMARK                            x       y       z     vdW  Elec       q    Type
REMARK                         _______ _______ _______ _____ _____    ______ ____
ROOT
ATOM      1  C   UNL     1       2.242   7.929  18.668  0.00  0.00    +0.000 A 
ATOM      2  N   UNL     1       2.099   8.103  19.966  0.00  0.00    +0.000 NA
ATOM      3  N   UNL     1       1.096   8.988  20.276  0.00  0.00    +0.000 NA
ATOM      4  C   UNL     1       0.599   9.602  19.220  0.00  0.00    +0.000 A 
ATOM      5  S   UNL     1       1.242   8.980  17.738  0.00  0.00    +0.000 S 
ENDROOT
BRANCH   4   6
ATOM      6  N   UNL     1      -0.370  10.546  19.153  0.00  0.00    +0.000 NA
ATOM      7  C   UNL     1      -0.054  11.800  19.172  0.00  0.00    +0.000 C 
ATOM      8  N   UNL     1       1.151  12.499  19.122  0.00  0.00    +0.000 N 
ATOM      9  C   UNL     1       2.329  12.109  18.369  0.00  0.00    +0.000 C 
ATOM     10  C   UNL     1       0.954  13.945  19.243  0.00  0.00    +0.000 C 
ATOM     11  C   UNL     1      -0.494  14.062  19.699  0.00  0.00    +0.000 C 
ATOM     12  N   UNL     1      -1.046  12.774  19.307  0.00  0.00    +0.000 N 
ATOM     13  C   UNL     1      -2.381  12.453  19.769  0.00  0.00    +0.000 C 
ENDBRANCH   4   6
BRANCH   1  20
ATOM     14  C   UNL     1       1.708   5.020  19.100  0.00  0.00    +0.000 C 
ATOM     15  C   UNL     1       2.836   5.519  18.232  0.00  0.00    +0.000 A 
ATOM     16  C   UNL     1       3.654   4.560  17.608  0.00  0.00    +0.000 A 
ATOM     17  C   UNL     1       4.720   4.943  16.797  0.00  0.00    +0.000 A 
ATOM     18  C   UNL     1       4.997   6.292  16.617  0.00  0.00    +0.000 A 
ATOM     19  C   UNL     1       4.201   7.259  17.239  0.00  0.00    +0.000 A 
ATOM     20  C   UNL     1       3.101   6.899  18.046  0.00  0.00    +0.000 A 
ENDBRANCH   1  20
TORSDOF 2
ENDMDL
MODEL 8
REMARK VINA RESULT:      -5.7      6.899      9.734
REMARK  Name = 
REMARK  5 active torsions:
REMARK  status: ('A' for Active; 'I' for Inactive)
REMARK    1  A    between atoms: C_1  and  C_2
REMARK    2  A    between atoms: C_7  and  C_8
REMARK    3  A    between atoms: C_11  and  N_12
REMARK    4  A    between atoms: N_14  and  C_15
REMARK    5  A    between atoms: N_18  and  C_19
REMARK                            x       y       z     vdW  Elec       q    Type
REMARK                         _______ _______ _______ _____ _____    ______ ____
ROOT
ATOM      1  C   UNL     1       5.892   4.417  15.928  0.00  0.00    +0.000 A 
ATOM      2  N   UNL     1       6.738   4.151  16.903  0.00  0.00    +0.000 NA
ATOM      3  N   UNL     1       6.150   4.195  18.144  0.00  0.00    +0.000 NA
ATOM      4  C   UNL     1       4.913   4.653  18.117  0.00  0.00    +0.000 A 
ATOM      5  S   UNL     1       4.341   4.900  16.502  0.00  0.00    +0.000 S 
ENDROOT
BRANCH   4   6
ATOM      6  N   UNL     1       4.052   4.856  19.142  0.00  0.00    +0.000 NA
ATOM      7  C   UNL     1       3.085   4.022  19.349  0.00  0.00    +0.000 C 
ATOM      8  N   UNL     1       2.734   2.786  18.807  0.00  0.00    +0.000 N 
ATOM      9  C   UNL     1       3.659   1.760  18.364  0.00  0.00    +0.000 C 
ATOM     10  C   UNL     1       1.477   2.279  19.361  0.00  0.00    +0.000 C 
ATOM     11  C   UNL     1       0.902   3.489  20.085  0.00  0.00    +0.000 C 
ATOM     12  N   UNL     1       2.078   4.326  20.269  0.00  0.00    +0.000 N 
ATOM     13  C   UNL     1       1.867   5.672  20.762  0.00  0.00    +0.000 C 
ENDBRANCH   4   6
BRANCH   1  20
ATOM     14  C   UNL     1       8.159   5.888  14.653  0.00  0.00    +0.000 C 
ATOM     15  C   UNL     1       7.276   4.934  13.888  0.00  0.00    +0.000 A 
ATOM     16  C   UNL     1       7.552   4.742  12.521  0.00  0.00    +0.000 A 
ATOM     17  C   UNL     1       6.776   3.883  11.747  0.00  0.00    +0.000 A 
ATOM     18  C   UNL     1       5.699   3.221  12.322  0.00  0.00    +0.000 A 
ATOM     19  C   UNL     1       5.404   3.409  13.675  0.00  0.00    +0.000 A 
ATOM     20  C   UNL     1       6.188   4.255  14.489  0.00  0.00    +0.000 A 
ENDBRANCH   1  20
TORSDOF 2
ENDMDL
MODEL 9
REMARK VINA RESULT:      -5.7      3.550      8.498
REMARK  Name = 
REMARK  5 active torsions:
REMARK  status: ('A' for Active; 'I' for Inactive)
REMARK    1  A    between atoms: C_1  and  C_2
REMARK    2  A    between atoms: C_7  and  C_8
REMARK    3  A    between atoms: C_11  and  N_12
REMARK    4  A    between atoms: N_14  and  C_15
REMARK    5  A    between atoms: N_18  and  C_19
REMARK                            x       y       z     vdW  Elec       q    Type
REMARK                         _______ _______ _______ _____ _____    ______ ____
ROOT
ATOM      1  C   UNL     1       1.203   8.773  19.631  0.00  0.00    +0.000 A 
ATOM      2  N   UNL     1       1.600   7.739  20.345  0.00  0.00    +0.000 NA
ATOM      3  N   UNL     1       2.623   7.043  19.748  0.00  0.00    +0.000 NA
ATOM      4  C   UNL     1       2.882   7.450  18.520  0.00  0.00    +0.000 A 
ATOM      5  S   UNL     1       1.969   8.856  18.090  0.00  0.00    +0.000 S 
ENDROOT
BRANCH   4   6
ATOM      6  N   UNL     1       3.793   6.980  17.636  0.00  0.00    +0.000 NA
ATOM      7  C   UNL     1       3.841   5.716  17.365  0.00  0.00    +0.000 C 
ATOM      8  N   UNL     1       3.043   4.621  17.694  0.00  0.00    +0.000 N 
ATOM      9  C   UNL     1       1.600   4.637  17.848  0.00  0.00    +0.000 C 
ATOM     10  C   UNL     1       3.588   3.366  17.172  0.00  0.00    +0.000 C 
ATOM     11  C   UNL     1       4.999   3.751  16.745  0.00  0.00    +0.000 C 
ATOM     12  N   UNL     1       4.898   5.196  16.615  0.00  0.00    +0.000 N 
ATOM     13  C   UNL     1       6.129   5.933  16.406  0.00  0.00    +0.000 C 
ENDBRANCH   4   6
BRANCH   1  20
ATOM     14  C   UNL     1       0.889   9.344  22.548  0.00  0.00    +0.000 C 
ATOM     15  C   UNL     1       0.129  10.098  21.486  0.00  0.00    +0.000 A 
ATOM     16  C   UNL     1      -0.755  11.108  21.908  0.00  0.00    +0.000 A 
ATOM     17  C   UNL     1      -1.497  11.843  20.987  0.00  0.00    +0.000 A 
ATOM     18  C   UNL     1      -1.384  11.562  19.631  0.00  0.00    +0.000 A 
ATOM     19  C   UNL     1      -0.520  10.554  19.195  0.00  0.00    +0.000 A 
ATOM     20  C   UNL     1       0.262   9.811  20.105  0.00  0.00    +0.000 A 
ENDBRANCH   1  20
TORSDOF 2
ENDMDL
