MODEL 1
REMARK VINA RESULT:      -7.2      0.000      0.000
REMARK  Name = 
REMARK  4 active torsions:
REMARK  status: ('A' for Active; 'I' for Inactive)
REMARK    1  A    between atoms: C_7  and  C_8
REMARK    2  A    between atoms: C_8  and  N_9
REMARK    3  A    between atoms: N_9  and  C_10
REMARK    4  A    between atoms: C_10  and  C_11
REMARK                            x       y       z     vdW  Elec       q    Type
REMARK                         _______ _______ _______ _____ _____    ______ ____
ROOT
ATOM      1  N   UNL     1       3.541   6.353  18.891  0.00  0.00    +0.000 NA
ATOM      2  H   UNL     1       3.913   7.306  18.874  0.00  0.00    +0.000 HD
ENDROOT
BRANCH   1   3
ATOM      3  C   UNL     1       2.348   6.323  19.734  0.00  0.00    +0.000 C 
BRANCH   3  10
ATOM      4 CL   UNL     1       1.242   4.441  17.429  0.00  0.00    +0.000 Cl
ATOM      5  C   UNL     1       1.495   3.988  19.077  0.00  0.00    +0.000 A 
ATOM      6  C   UNL     1       1.204   2.662  19.425  0.00  0.00    +0.000 A 
ATOM      7  C   UNL     1       1.385   2.218  20.736  0.00  0.00    +0.000 A 
ATOM      8  C   UNL     1       1.853   3.099  21.704  0.00  0.00    +0.000 A 
ATOM      9  C   UNL     1       2.141   4.420  21.360  0.00  0.00    +0.000 A 
ATOM     10  C   UNL     1       1.978   4.887  20.038  0.00  0.00    +0.000 A 
ENDBRANCH   3  10
ENDBRANCH   1   3
BRANCH   1  11
ATOM     11  C   UNL     1       4.603   5.457  19.352  0.00  0.00    +0.000 C 
BRANCH  11  12
ATOM     12  C   UNL     1       5.608   5.201  18.208  0.00  0.00    +0.000 C 
ATOM     13  C   UNL     1       4.900   4.659  16.960  0.00  0.00    +0.000 C 
ATOM     14  N   UNL     1       5.804   4.676  15.832  0.00  0.00    +0.000 N 
ATOM     15  C   UNL     1       5.663   4.040  14.639  0.00  0.00    +0.000 A 
ATOM     16  C   UNL     1       6.760   4.434  13.910  0.00  0.00    +0.000 A 
ATOM     17  N   UNL     1       7.551   5.291  14.637  0.00  0.00    +0.000 NA
ATOM     18  C   UNL     1       6.939   5.442  15.794  0.00  0.00    +0.000 A 
ATOM     19  C   UNL     1       7.367   6.259  16.966  0.00  0.00    +0.000 C 
ATOM     20  O   UNL     1       6.272   6.443  17.886  0.00  0.00    +0.000 OA
ENDBRANCH  11  12
ENDBRANCH   1  11
TORSDOF 4
ENDMDL
MODEL 2
REMARK VINA RESULT:      -7.0      2.315      3.724
REMARK  Name = 
REMARK  4 active torsions:
REMARK  status: ('A' for Active; 'I' for Inactive)
REMARK    1  A    between atoms: C_7  and  C_8
REMARK    2  A    between atoms: C_8  and  N_9
REMARK    3  A    between atoms: N_9  and  C_10
REMARK    4  A    between atoms: C_10  and  C_11
REMARK                            x       y       z     vdW  Elec       q    Type
REMARK                         _______ _______ _______ _____ _____    ______ ____
ROOT
ATOM      1  N   UNL     1       3.439   5.574  20.200  0.00  0.00    +0.000 NA
ATOM      2  H   UNL     1       3.894   5.508  21.115  0.00  0.00    +0.000 HD
ENDROOT
BRANCH   1   3
ATOM      3  C   UNL     1       2.081   6.082  20.380  0.00  0.00    +0.000 C 
BRANCH   3  10
ATOM      4 CL   UNL     1       0.568   8.528  21.726  0.00  0.00    +0.000 Cl
ATOM      5  C   UNL     1       1.280   8.515  20.151  0.00  0.00    +0.000 A 
ATOM      6  C   UNL     1       1.200   9.698  19.406  0.00  0.00    +0.000 A 
ATOM      7  C   UNL     1       1.753   9.769  18.127  0.00  0.00    +0.000 A 
ATOM      8  C   UNL     1       2.384   8.655  17.586  0.00  0.00    +0.000 A 
ATOM      9  C   UNL     1       2.463   7.474  18.325  0.00  0.00    +0.000 A 
ATOM     10  C   UNL     1       1.923   7.385  19.625  0.00  0.00    +0.000 A 
ENDBRANCH   3  10
ENDBRANCH   1   3
BRANCH   1  11
ATOM     11  C   UNL     1       3.489   4.253  19.570  0.00  0.00    +0.000 C 
BRANCH  11  12
ATOM     12  C   UNL     1       4.734   4.152  18.663  0.00  0.00    +0.000 C 
ATOM     13  C   UNL     1       4.348   4.240  17.181  0.00  0.00    +0.000 C 
ATOM     14  N   UNL     1       5.534   4.407  16.371  0.00  0.00    +0.000 N 
ATOM     15  C   UNL     1       5.654   4.253  15.025  0.00  0.00    +0.000 A 
ATOM     16  C   UNL     1       6.962   4.586  14.759  0.00  0.00    +0.000 A 
ATOM     17  N   UNL     1       7.624   4.936  15.911  0.00  0.00    +0.000 NA
ATOM     18  C   UNL     1       6.731   4.842  16.875  0.00  0.00    +0.000 A 
ATOM     19  C   UNL     1       6.914   5.097  18.334  0.00  0.00    +0.000 C 
ATOM     20  O   UNL     1       5.638   5.229  18.992  0.00  0.00    +0.000 OA
ENDBRANCH  11  12
ENDBRANCH   1  11
TORSDOF 4
ENDMDL
MODEL 3
REMARK VINA RESULT:      -6.9      1.878      2.869
REMARK  Name = 
REMARK  4 active torsions:
REMARK  status: ('A' for Active; 'I' for Inactive)
REMARK    1  A    between atoms: C_7  and  C_8
REMARK    2  A    between atoms: C_8  and  N_9
REMARK    3  A    between atoms: N_9  and  C_10
REMARK    4  A    between atoms: C_10  and  C_11
REMARK                            x       y       z     vdW  Elec       q    Type
REMARK                         _______ _______ _______ _____ _____    ______ ____
ROOT
ATOM      1  N   UNL     1       2.317   3.404  16.767  0.00  0.00    +0.000 NA
ATOM      2  H   UNL     1       2.407   3.801  15.829  0.00  0.00    +0.000 HD
ENDROOT
BRANCH   1   3
ATOM      3  C   UNL     1       1.475   4.282  17.577  0.00  0.00    +0.000 C 
BRANCH   3  10
ATOM      4 CL   UNL     1       2.522   6.480  19.615  0.00  0.00    +0.000 Cl
ATOM      5  C   UNL     1       2.092   4.854  20.007  0.00  0.00    +0.000 A 
ATOM      6  C   UNL     1       2.195   4.473  21.352  0.00  0.00    +0.000 A 
ATOM      7  C   UNL     1       1.863   3.178  21.749  0.00  0.00    +0.000 A 
ATOM      8  C   UNL     1       1.431   2.256  20.804  0.00  0.00    +0.000 A 
ATOM      9  C   UNL     1       1.329   2.631  19.464  0.00  0.00    +0.000 A 
ATOM     10  C   UNL     1       1.646   3.939  19.042  0.00  0.00    +0.000 A 
ENDBRANCH   3  10
ENDBRANCH   1   3
BRANCH   1  11
ATOM     11  C   UNL     1       3.661   3.217  17.315  0.00  0.00    +0.000 C 
BRANCH  11  12
ATOM     12  C   UNL     1       4.434   4.554  17.277  0.00  0.00    +0.000 C 
ATOM     13  C   UNL     1       5.616   4.538  18.253  0.00  0.00    +0.000 C 
ATOM     14  N   UNL     1       6.470   5.680  18.014  0.00  0.00    +0.000 N 
ATOM     15  C   UNL     1       7.447   6.177  18.818  0.00  0.00    +0.000 A 
ATOM     16  C   UNL     1       7.985   7.219  18.100  0.00  0.00    +0.000 A 
ATOM     17  N   UNL     1       7.356   7.355  16.886  0.00  0.00    +0.000 NA
ATOM     18  C   UNL     1       6.454   6.395  16.845  0.00  0.00    +0.000 A 
ATOM     19  C   UNL     1       5.480   6.088  15.758  0.00  0.00    +0.000 C 
ATOM     20  O   UNL     1       4.919   4.772  15.934  0.00  0.00    +0.000 OA
ENDBRANCH  11  12
ENDBRANCH   1  11
TORSDOF 4
ENDMDL
MODEL 4
REMARK VINA RESULT:      -6.9      2.551      6.385
REMARK  Name = 
REMARK  4 active torsions:
REMARK  status: ('A' for Active; 'I' for Inactive)
REMARK    1  A    between atoms: C_7  and  C_8
REMARK    2  A    between atoms: C_8  and  N_9
REMARK    3  A    between atoms: N_9  and  C_10
REMARK    4  A    between atoms: C_10  and  C_11
REMARK                            x       y       z     vdW  Elec       q    Type
REMARK                         _______ _______ _______ _____ _____    ______ ____
ROOT
ATOM      1  N   UNL     1       5.255   2.996  16.318  0.00  0.00    +0.000 NA
ATOM      2  H   UNL     1       5.677   2.653  17.186  0.00  0.00    +0.000 HD
ENDROOT
BRANCH   1   3
ATOM      3  C   UNL     1       6.216   3.855  15.630  0.00  0.00    +0.000 C 
BRANCH   3  10
ATOM      4 CL   UNL     1       5.262   6.865  15.303  0.00  0.00    +0.000 Cl
ATOM      5  C   UNL     1       6.337   6.266  16.516  0.00  0.00    +0.000 A 
ATOM      6  C   UNL     1       6.819   7.189  17.454  0.00  0.00    +0.000 A 
ATOM      7  C   UNL     1       7.689   6.783  18.466  0.00  0.00    +0.000 A 
ATOM      8  C   UNL     1       8.086   5.453  18.541  0.00  0.00    +0.000 A 
ATOM      9  C   UNL     1       7.610   4.532  17.607  0.00  0.00    +0.000 A 
ATOM     10  C   UNL     1       6.718   4.919  16.584  0.00  0.00    +0.000 A 
ENDBRANCH   3  10
ENDBRANCH   1   3
BRANCH   1  11
ATOM     11  C   UNL     1       4.004   3.675  16.657  0.00  0.00    +0.000 C 
BRANCH  11  12
ATOM     12  C   UNL     1       3.770   3.616  18.182  0.00  0.00    +0.000 C 
ATOM     13  C   UNL     1       2.274   3.542  18.511  0.00  0.00    +0.000 C 
ATOM     14  N   UNL     1       2.091   3.225  19.910  0.00  0.00    +0.000 N 
ATOM     15  C   UNL     1       0.956   3.336  20.650  0.00  0.00    +0.000 A 
ATOM     16  C   UNL     1       1.306   2.851  21.888  0.00  0.00    +0.000 A 
ATOM     17  N   UNL     1       2.621   2.451  21.905  0.00  0.00    +0.000 NA
ATOM     18  C   UNL     1       3.072   2.666  20.686  0.00  0.00    +0.000 A 
ATOM     19  C   UNL     1       4.443   2.421  20.151  0.00  0.00    +0.000 C 
ATOM     20  O   UNL     1       4.439   2.449  18.709  0.00  0.00    +0.000 OA
ENDBRANCH  11  12
ENDBRANCH   1  11
TORSDOF 4
ENDMDL
MODEL 5
REMARK VINA RESULT:      -6.7      2.882      5.181
REMARK  Name = 
REMARK  4 active torsions:
REMARK  status: ('A' for Active; 'I' for Inactive)
REMARK    1  A    between atoms: C_7  and  C_8
REMARK    2  A    between atoms: C_8  and  N_9
REMARK    3  A    between atoms: N_9  and  C_10
REMARK    4  A    between atoms: C_10  and  C_11
REMARK                            x       y       z     vdW  Elec       q    Type
REMARK                         _______ _______ _______ _____ _____    ______ ____
ROOT
ATOM      1  N   UNL     1       3.343   4.156  17.041  0.00  0.00    +0.000 NA
ATOM      2  H   UNL     1       2.358   4.391  16.895  0.00  0.00    +0.000 HD
ENDROOT
BRANCH   1   3
ATOM      3  C   UNL     1       3.430   2.832  17.655  0.00  0.00    +0.000 C 
BRANCH   3  10
ATOM      4 CL   UNL     1       4.943   2.067  20.339  0.00  0.00    +0.000 Cl
ATOM      5  C   UNL     1       3.282   2.522  20.204  0.00  0.00    +0.000 A 
ATOM      6  C   UNL     1       2.538   2.578  21.389  0.00  0.00    +0.000 A 
ATOM      7  C   UNL     1       1.191   2.941  21.363  0.00  0.00    +0.000 A 
ATOM      8  C   UNL     1       0.581   3.244  20.152  0.00  0.00    +0.000 A 
ATOM      9  C   UNL     1       1.319   3.187  18.969  0.00  0.00    +0.000 A 
ATOM     10  C   UNL     1       2.686   2.836  18.974  0.00  0.00    +0.000 A 
ENDBRANCH   3  10
ENDBRANCH   1   3
BRANCH   1  11
ATOM     11  C   UNL     1       3.950   5.215  17.849  0.00  0.00    +0.000 C 
BRANCH  11  12
ATOM     12  C   UNL     1       2.901   6.304  18.159  0.00  0.00    +0.000 C 
ATOM     13  C   UNL     1       2.703   6.469  19.671  0.00  0.00    +0.000 C 
ATOM     14  N   UNL     1       1.926   7.657  19.941  0.00  0.00    +0.000 N 
ATOM     15  C   UNL     1       1.308   8.006  21.101  0.00  0.00    +0.000 A 
ATOM     16  C   UNL     1       0.768   9.244  20.843  0.00  0.00    +0.000 A 
ATOM     17  N   UNL     1       1.049   9.644  19.558  0.00  0.00    +0.000 NA
ATOM     18  C   UNL     1       1.773   8.675  19.036  0.00  0.00    +0.000 A 
ATOM     19  C   UNL     1       2.340   8.583  17.660  0.00  0.00    +0.000 C 
ATOM     20  O   UNL     1       3.349   7.555  17.592  0.00  0.00    +0.000 OA
ENDBRANCH  11  12
ENDBRANCH   1  11
TORSDOF 4
ENDMDL
MODEL 6
REMARK VINA RESULT:      -6.7      2.682      6.568
REMARK  Name = 
REMARK  4 active torsions:
REMARK  status: ('A' for Active; 'I' for Inactive)
REMARK    1  A    between atoms: C_7  and  C_8
REMARK    2  A    between atoms: C_8  and  N_9
REMARK    3  A    between atoms: N_9  and  C_10
REMARK    4  A    between atoms: C_10  and  C_11
REMARK                            x       y       z     vdW  Elec       q    Type
REMARK                         _______ _______ _______ _____ _____    ______ ____
ROOT
ATOM      1  N   UNL     1       7.400   4.503  16.631  0.00  0.00    +0.000 NA
ATOM      2  H   UNL     1       8.410   4.343  16.640  0.00  0.00    +0.000 HD
ENDROOT
BRANCH   1   3
ATOM      3  C   UNL     1       7.088   5.511  15.620  0.00  0.00    +0.000 C 
BRANCH   3  10
ATOM      4 CL   UNL     1       8.951   5.913  13.081  0.00  0.00    +0.000 Cl
ATOM      5  C   UNL     1       7.522   4.945  13.149  0.00  0.00    +0.000 A 
ATOM      6  C   UNL     1       7.161   4.257  11.983  0.00  0.00    +0.000 A 
ATOM      7  C   UNL     1       6.022   3.452  11.959  0.00  0.00    +0.000 A 
ATOM      8  C   UNL     1       5.236   3.335  13.099  0.00  0.00    +0.000 A 
ATOM      9  C   UNL     1       5.591   4.020  14.261  0.00  0.00    +0.000 A 
ATOM     10  C   UNL     1       6.747   4.829  14.312  0.00  0.00    +0.000 A 
ENDBRANCH   3  10
ENDBRANCH   1   3
BRANCH   1  11
ATOM     11  C   UNL     1       6.986   4.885  17.982  0.00  0.00    +0.000 C 
BRANCH  11  12
ATOM     12  C   UNL     1       5.445   4.925  18.067  0.00  0.00    +0.000 C 
ATOM     13  C   UNL     1       4.839   3.539  17.815  0.00  0.00    +0.000 C 
ATOM     14  N   UNL     1       3.434   3.544  18.156  0.00  0.00    +0.000 N 
ATOM     15  C   UNL     1       2.491   2.621  17.828  0.00  0.00    +0.000 A 
ATOM     16  C   UNL     1       1.346   3.067  18.444  0.00  0.00    +0.000 A 
ATOM     17  N   UNL     1       1.582   4.232  19.134  0.00  0.00    +0.000 NA
ATOM     18  C   UNL     1       2.863   4.491  18.964  0.00  0.00    +0.000 A 
ATOM     19  C   UNL     1       3.650   5.646  19.486  0.00  0.00    +0.000 C 
ATOM     20  O   UNL     1       5.064   5.387  19.382  0.00  0.00    +0.000 OA
ENDBRANCH  11  12
ENDBRANCH   1  11
TORSDOF 4
ENDMDL
MODEL 7
REMARK VINA RESULT:      -6.7      2.119      3.227
REMARK  Name = 
REMARK  4 active torsions:
REMARK  status: ('A' for Active; 'I' for Inactive)
REMARK    1  A    between atoms: C_7  and  C_8
REMARK    2  A    between atoms: C_8  and  N_9
REMARK    3  A    between atoms: N_9  and  C_10
REMARK    4  A    between atoms: C_10  and  C_11
REMARK                            x       y       z     vdW  Elec       q    Type
REMARK                         _______ _______ _______ _____ _____    ______ ____
ROOT
ATOM      1  N   UNL     1       4.610   3.208  17.406  0.00  0.00    +0.000 NA
ATOM      2  H   UNL     1       4.858   2.216  17.434  0.00  0.00    +0.000 HD
ENDROOT
BRANCH   1   3
ATOM      3  C   UNL     1       3.159   3.332  17.283  0.00  0.00    +0.000 C 
BRANCH   3  10
ATOM      4 CL   UNL     1       2.615   6.258  18.388  0.00  0.00    +0.000 Cl
ATOM      5  C   UNL     1       2.267   4.780  19.212  0.00  0.00    +0.000 A 
ATOM      6  C   UNL     1       1.671   4.880  20.476  0.00  0.00    +0.000 A 
ATOM      7  C   UNL     1       1.356   3.732  21.203  0.00  0.00    +0.000 A 
ATOM      8  C   UNL     1       1.639   2.479  20.672  0.00  0.00    +0.000 A 
ATOM      9  C   UNL     1       2.235   2.377  19.414  0.00  0.00    +0.000 A 
ATOM     10  C   UNL     1       2.549   3.524  18.655  0.00  0.00    +0.000 A 
ENDBRANCH   3  10
ENDBRANCH   1   3
BRANCH   1  11
ATOM     11  C   UNL     1       5.344   3.830  16.302  0.00  0.00    +0.000 C 
BRANCH  11  12
ATOM     12  C   UNL     1       6.473   4.723  16.859  0.00  0.00    +0.000 C 
ATOM     13  C   UNL     1       6.153   6.210  16.659  0.00  0.00    +0.000 C 
ATOM     14  N   UNL     1       7.082   7.021  17.413  0.00  0.00    +0.000 N 
ATOM     15  C   UNL     1       7.313   8.356  17.294  0.00  0.00    +0.000 A 
ATOM     16  C   UNL     1       8.236   8.632  18.275  0.00  0.00    +0.000 A 
ATOM     17  N   UNL     1       8.559   7.497  18.979  0.00  0.00    +0.000 NA
ATOM     18  C   UNL     1       7.829   6.534  18.453  0.00  0.00    +0.000 A 
ATOM     19  C   UNL     1       7.793   5.091  18.828  0.00  0.00    +0.000 C 
ATOM     20  O   UNL     1       6.630   4.448  18.269  0.00  0.00    +0.000 OA
ENDBRANCH  11  12
ENDBRANCH   1  11
TORSDOF 4
ENDMDL
MODEL 8
REMARK VINA RESULT:      -6.6      2.019      3.019
REMARK  Name = 
REMARK  4 active torsions:
REMARK  status: ('A' for Active; 'I' for Inactive)
REMARK    1  A    between atoms: C_7  and  C_8
REMARK    2  A    between atoms: C_8  and  N_9
REMARK    3  A    between atoms: N_9  and  C_10
REMARK    4  A    between atoms: C_10  and  C_11
REMARK                            x       y       z     vdW  Elec       q    Type
REMARK                         _______ _______ _______ _____ _____    ______ ____
ROOT
ATOM      1  N   UNL     1       4.431   2.413  17.650  0.00  0.00    +0.000 NA
ATOM      2  H   UNL     1       5.062   1.639  17.424  0.00  0.00    +0.000 HD
ENDROOT
BRANCH   1   3
ATOM      3  C   UNL     1       3.123   1.870  18.010  0.00  0.00    +0.000 C 
BRANCH   3  10
ATOM      4 CL   UNL     1       1.261   4.395  17.527  0.00  0.00    +0.000 Cl
ATOM      5  C   UNL     1       1.725   3.754  19.063  0.00  0.00    +0.000 A 
ATOM      6  C   UNL     1       1.219   4.395  20.200  0.00  0.00    +0.000 A 
ATOM      7  C   UNL     1       1.545   3.936  21.477  0.00  0.00    +0.000 A 
ATOM      8  C   UNL     1       2.384   2.838  21.621  0.00  0.00    +0.000 A 
ATOM      9  C   UNL     1       2.892   2.199  20.490  0.00  0.00    +0.000 A 
ATOM     10  C   UNL     1       2.564   2.637  19.189  0.00  0.00    +0.000 A 
ENDBRANCH   3  10
ENDBRANCH   1   3
BRANCH   1  11
ATOM     11  C   UNL     1       4.390   3.318  16.501  0.00  0.00    +0.000 C 
BRANCH  11  12
ATOM     12  C   UNL     1       4.935   4.705  16.905  0.00  0.00    +0.000 C 
ATOM     13  C   UNL     1       6.239   4.577  17.702  0.00  0.00    +0.000 C 
ATOM     14  N   UNL     1       6.863   5.874  17.841  0.00  0.00    +0.000 N 
ATOM     15  C   UNL     1       7.863   6.233  18.690  0.00  0.00    +0.000 A 
ATOM     16  C   UNL     1       8.122   7.547  18.376  0.00  0.00    +0.000 A 
ATOM     17  N   UNL     1       7.305   7.979  17.359  0.00  0.00    +0.000 NA
ATOM     18  C   UNL     1       6.564   6.940  17.034  0.00  0.00    +0.000 A 
ATOM     19  C   UNL     1       5.496   6.853  15.996  0.00  0.00    +0.000 C 
ATOM     20  O   UNL     1       5.175   5.477  15.708  0.00  0.00    +0.000 OA
ENDBRANCH  11  12
ENDBRANCH   1  11
TORSDOF 4
ENDMDL
MODEL 9
REMARK VINA RESULT:      -6.6      2.379      3.319
REMARK  Name = 
REMARK  4 active torsions:
REMARK  status: ('A' for Active; 'I' for Inactive)
REMARK    1  A    between atoms: C_7  and  C_8
REMARK    2  A    between atoms: C_8  and  N_9
REMARK    3  A    between atoms: N_9  and  C_10
REMARK    4  A    between atoms: C_10  and  C_11
REMARK                            x       y       z     vdW  Elec       q    Type
REMARK                         _______ _______ _______ _____ _____    ______ ____
ROOT
ATOM      1  N   UNL     1       3.946   4.219  17.168  0.00  0.00    +0.000 NA
ATOM      2  H   UNL     1       4.176   4.641  18.072  0.00  0.00    +0.000 HD
ENDROOT
BRANCH   1   3
ATOM      3  C   UNL     1       3.001   3.125  17.380  0.00  0.00    +0.000 C 
BRANCH   3  10
ATOM      4 CL   UNL     1       4.689   1.717  19.671  0.00  0.00    +0.000 Cl
ATOM      5  C   UNL     1       3.199   2.565  19.882  0.00  0.00    +0.000 A 
ATOM      6  C   UNL     1       2.697   2.657  21.187  0.00  0.00    +0.000 A 
ATOM      7  C   UNL     1       1.500   3.329  21.440  0.00  0.00    +0.000 A 
ATOM      8  C   UNL     1       0.797   3.906  20.389  0.00  0.00    +0.000 A 
ATOM      9  C   UNL     1       1.293   3.813  19.088  0.00  0.00    +0.000 A 
ATOM     10  C   UNL     1       2.508   3.151  18.811  0.00  0.00    +0.000 A 
ENDBRANCH   3  10
ENDBRANCH   1   3
BRANCH   1  11
ATOM     11  C   UNL     1       5.194   3.797  16.531  0.00  0.00    +0.000 C 
BRANCH  11  12
ATOM     12  C   UNL     1       6.350   4.717  16.979  0.00  0.00    +0.000 C 
ATOM     13  C   UNL     1       6.008   6.193  16.740  0.00  0.00    +0.000 C 
ATOM     14  N   UNL     1       6.978   7.038  17.400  0.00  0.00    +0.000 N 
ATOM     15  C   UNL     1       7.192   8.368  17.212  0.00  0.00    +0.000 A 
ATOM     16  C   UNL     1       8.173   8.687  18.122  0.00  0.00    +0.000 A 
ATOM     17  N   UNL     1       8.547   7.583  18.849  0.00  0.00    +0.000 NA
ATOM     18  C   UNL     1       7.792   6.597  18.410  0.00  0.00    +0.000 A 
ATOM     19  C   UNL     1       7.789   5.170  18.845  0.00  0.00    +0.000 C 
ATOM     20  O   UNL     1       6.597   4.500  18.386  0.00  0.00    +0.000 OA
ENDBRANCH  11  12
ENDBRANCH   1  11
TORSDOF 4
ENDMDL
