MODEL 1
REMARK VINA RESULT:      -7.9      0.000      0.000
REMARK  Name = 
REMARK  8 active torsions:
REMARK  status: ('A' for Active; 'I' for Inactive)
REMARK    1  A    between atoms: C_1  and  O_2
REMARK    2  A    between atoms: O_2  and  C_3
REMARK    3  A    between atoms: C_6  and  O_7
REMARK    4  A    between atoms: O_7  and  C_8
REMARK    5  A    between atoms: C_8  and  C_9
REMARK    6  A    between atoms: C_9  and  C_10
REMARK    7  A    between atoms: C_10  and  N_11
REMARK    8  A    between atoms: C_17  and  C_18
REMARK                            x       y       z     vdW  Elec       q    Type
REMARK                         _______ _______ _______ _____ _____    ______ ____
ROOT
ATOM      1  N   UNL     1       7.667   7.789  18.281  0.00  0.00    +0.000 N 
ATOM      2  C   UNL     1       7.210   6.614  17.613  0.00  0.00    +0.000 C 
ATOM      3  N   UNL     1       7.493   6.424  16.371  0.00  0.00    +0.000 NA
ATOM      4  C   UNL     1       7.073   5.259  15.680  0.00  0.00    +0.000 C 
ATOM      5  N   UNL     1       7.414   5.097  14.315  0.00  0.00    +0.000 N 
ATOM      6  N   UNL     1       6.383   4.350  16.278  0.00  0.00    +0.000 NA
ATOM      7  C   UNL     1       5.961   4.433  17.668  0.00  0.00    +0.000 C 
ATOM      8  N   UNL     1       6.446   5.642  18.317  0.00  0.00    +0.000 N 
ATOM      9  H   UNL     1       7.458   7.913  19.283  0.00  0.00    +0.000 HD
ATOM     10  H   UNL     1       7.954   5.823  13.826  0.00  0.00    +0.000 HD
ATOM     11  H   UNL     1       7.115   4.258  13.797  0.00  0.00    +0.000 HD
ATOM     12  H   UNL     1       6.227   5.797  19.313  0.00  0.00    +0.000 HD
ENDROOT
BRANCH   7  13
ATOM     13  C   UNL     1       4.454   4.402  17.710  0.00  0.00    +0.000 A 
ATOM     14  C   UNL     1       3.717   5.567  17.983  0.00  0.00    +0.000 A 
ATOM     15  C   UNL     1       2.320   5.520  18.037  0.00  0.00    +0.000 A 
ATOM     16  C   UNL     1       1.650   4.313  17.820  0.00  0.00    +0.000 A 
ATOM     17  C   UNL     1       2.374   3.149  17.547  0.00  0.00    +0.000 A 
ATOM     18  C   UNL     1       3.769   3.192  17.491  0.00  0.00    +0.000 A 
ENDBRANCH   7  13
BRANCH   1  19
ATOM     19  C   UNL     1       8.420   8.798  17.563  0.00  0.00    +0.000 C 
BRANCH  19  20
ATOM     20  C   UNL     1       8.304  10.190  18.209  0.00  0.00    +0.000 C 
BRANCH  20  21
ATOM     21  C   UNL     1       9.217  10.234  19.437  0.00  0.00    +0.000 C 
BRANCH  21  22
ATOM     22  O   UNL     1      10.462  10.764  19.150  0.00  0.00    +0.000 OA
BRANCH  22  26
ATOM     23  C   UNL     1      11.018  14.581  17.510  0.00  0.00    +0.000 A 
ATOM     24  C   UNL     1      10.371  14.432  18.748  0.00  0.00    +0.000 A 
ATOM     25  C   UNL     1      10.183  13.168  19.299  0.00  0.00    +0.000 A 
ATOM     26  C   UNL     1      10.639  12.013  18.630  0.00  0.00    +0.000 A 
ATOM     27  C   UNL     1      11.290  12.162  17.396  0.00  0.00    +0.000 A 
ATOM     28  C   UNL     1      11.475  13.436  16.841  0.00  0.00    +0.000 A 
BRANCH  23  30
ATOM     29  C   UNL     1      10.366  16.885  17.080  0.00  0.00    +0.000 C 
ATOM     30  O   UNL     1      11.211  15.800  16.938  0.00  0.00    +0.000 OA
ENDBRANCH  23  30
ENDBRANCH  22  26
ENDBRANCH  21  22
ENDBRANCH  20  21
ENDBRANCH  19  20
ENDBRANCH   1  19
TORSDOF 7
ENDMDL
MODEL 2
REMARK VINA RESULT:      -7.8      0.717      1.530
REMARK  Name = 
REMARK  8 active torsions:
REMARK  status: ('A' for Active; 'I' for Inactive)
REMARK    1  A    between atoms: C_1  and  O_2
REMARK    2  A    between atoms: O_2  and  C_3
REMARK    3  A    between atoms: C_6  and  O_7
REMARK    4  A    between atoms: O_7  and  C_8
REMARK    5  A    between atoms: C_8  and  C_9
REMARK    6  A    between atoms: C_9  and  C_10
REMARK    7  A    between atoms: C_10  and  N_11
REMARK    8  A    between atoms: C_17  and  C_18
REMARK                            x       y       z     vdW  Elec       q    Type
REMARK                         _______ _______ _______ _____ _____    ______ ____
ROOT
ATOM      1  N   UNL     1       7.526   7.382  18.365  0.00  0.00    +0.000 N 
ATOM      2  C   UNL     1       7.052   6.270  17.609  0.00  0.00    +0.000 C 
ATOM      3  N   UNL     1       7.245   6.223  16.336  0.00  0.00    +0.000 NA
ATOM      4  C   UNL     1       6.805   5.124  15.555  0.00  0.00    +0.000 C 
ATOM      5  N   UNL     1       7.047   5.119  14.160  0.00  0.00    +0.000 N 
ATOM      6  N   UNL     1       6.187   4.133  16.100  0.00  0.00    +0.000 NA
ATOM      7  C   UNL     1       5.869   4.053  17.517  0.00  0.00    +0.000 C 
ATOM      8  N   UNL     1       6.369   5.203  18.257  0.00  0.00    +0.000 N 
ATOM      9  H   UNL     1       7.390   7.392  19.387  0.00  0.00    +0.000 HD
ATOM     10  H   UNL     1       7.529   5.911  13.715  0.00  0.00    +0.000 HD
ATOM     11  H   UNL     1       6.732   4.329  13.577  0.00  0.00    +0.000 HD
ATOM     12  H   UNL     1       6.222   5.244  19.277  0.00  0.00    +0.000 HD
ENDROOT
BRANCH   7  13
ATOM     13  C   UNL     1       4.371   3.965  17.665  0.00  0.00    +0.000 A 
ATOM     14  C   UNL     1       3.718   2.721  17.645  0.00  0.00    +0.000 A 
ATOM     15  C   UNL     1       2.326   2.655  17.766  0.00  0.00    +0.000 A 
ATOM     16  C   UNL     1       1.577   3.827  17.904  0.00  0.00    +0.000 A 
ATOM     17  C   UNL     1       2.218   5.069  17.926  0.00  0.00    +0.000 A 
ATOM     18  C   UNL     1       3.608   5.139  17.808  0.00  0.00    +0.000 A 
ENDBRANCH   7  13
BRANCH   1  19
ATOM     19  C   UNL     1       8.196   8.488  17.709  0.00  0.00    +0.000 C 
BRANCH  19  20
ATOM     20  C   UNL     1       8.934   9.402  18.701  0.00  0.00    +0.000 C 
BRANCH  20  21
ATOM     21  C   UNL     1       8.949  10.823  18.134  0.00  0.00    +0.000 C 
BRANCH  21  22
ATOM     22  O   UNL     1      10.078  11.529  18.511  0.00  0.00    +0.000 OA
BRANCH  22  26
ATOM     23  C   UNL     1      10.824  15.469  17.291  0.00  0.00    +0.000 A 
ATOM     24  C   UNL     1      11.572  14.409  16.752  0.00  0.00    +0.000 A 
ATOM     25  C   UNL     1      11.330  13.099  17.152  0.00  0.00    +0.000 A 
ATOM     26  C   UNL     1      10.330  12.806  18.102  0.00  0.00    +0.000 A 
ATOM     27  C   UNL     1       9.578  13.864  18.636  0.00  0.00    +0.000 A 
ATOM     28  C   UNL     1       9.826  15.184  18.235  0.00  0.00    +0.000 A 
BRANCH  23  30
ATOM     29  C   UNL     1      10.314  17.846  17.391  0.00  0.00    +0.000 C 
ATOM     30  O   UNL     1      11.039  16.762  16.930  0.00  0.00    +0.000 OA
ENDBRANCH  23  30
ENDBRANCH  22  26
ENDBRANCH  21  22
ENDBRANCH  20  21
ENDBRANCH  19  20
ENDBRANCH   1  19
TORSDOF 7
ENDMDL
MODEL 3
REMARK VINA RESULT:      -7.7      5.547      8.856
REMARK  Name = 
REMARK  8 active torsions:
REMARK  status: ('A' for Active; 'I' for Inactive)
REMARK    1  A    between atoms: C_1  and  O_2
REMARK    2  A    between atoms: O_2  and  C_3
REMARK    3  A    between atoms: C_6  and  O_7
REMARK    4  A    between atoms: O_7  and  C_8
REMARK    5  A    between atoms: C_8  and  C_9
REMARK    6  A    between atoms: C_9  and  C_10
REMARK    7  A    between atoms: C_10  and  N_11
REMARK    8  A    between atoms: C_17  and  C_18
REMARK                            x       y       z     vdW  Elec       q    Type
REMARK                         _______ _______ _______ _____ _____    ______ ____
ROOT
ATOM      1  N   UNL     1       2.054   7.122  20.059  0.00  0.00    +0.000 N 
ATOM      2  C   UNL     1       1.295   8.269  20.437  0.00  0.00    +0.000 C 
ATOM      3  N   UNL     1       0.780   8.345  21.615  0.00  0.00    +0.000 NA
ATOM      4  C   UNL     1       0.036   9.478  22.032  0.00  0.00    +0.000 C 
ATOM      5  N   UNL     1      -0.505   9.513  23.340  0.00  0.00    +0.000 N 
ATOM      6  N   UNL     1      -0.155  10.472  21.235  0.00  0.00    +0.000 NA
ATOM      7  C   UNL     1       0.337  10.523  19.867  0.00  0.00    +0.000 C 
ATOM      8  N   UNL     1       1.108   9.338  19.517  0.00  0.00    +0.000 N 
ATOM      9  H   UNL     1       2.485   7.088  19.122  0.00  0.00    +0.000 HD
ATOM     10  H   UNL     1      -0.367   8.719  23.980  0.00  0.00    +0.000 HD
ATOM     11  H   UNL     1      -1.050  10.327  23.659  0.00  0.00    +0.000 HD
ATOM     12  H   UNL     1       1.527   9.274  18.577  0.00  0.00    +0.000 HD
ENDROOT
BRANCH   7  13
ATOM     13  C   UNL     1      -0.845  10.652  18.940  0.00  0.00    +0.000 A 
ATOM     14  C   UNL     1      -1.897  11.536  19.236  0.00  0.00    +0.000 A 
ATOM     15  C   UNL     1      -2.997  11.634  18.377  0.00  0.00    +0.000 A 
ATOM     16  C   UNL     1      -3.055  10.852  17.220  0.00  0.00    +0.000 A 
ATOM     17  C   UNL     1      -2.013   9.971  16.918  0.00  0.00    +0.000 A 
ATOM     18  C   UNL     1      -0.913   9.871  17.772  0.00  0.00    +0.000 A 
ENDBRANCH   7  13
BRANCH   1  19
ATOM     19  C   UNL     1       2.225   6.015  20.979  0.00  0.00    +0.000 C 
BRANCH  19  20
ATOM     20  C   UNL     1       1.690   4.689  20.411  0.00  0.00    +0.000 C 
BRANCH  20  21
ATOM     21  C   UNL     1       2.840   3.961  19.712  0.00  0.00    +0.000 C 
BRANCH  21  22
ATOM     22  O   UNL     1       3.113   4.485  18.461  0.00  0.00    +0.000 OA
BRANCH  22  26
ATOM     23  C   UNL     1       6.608   6.610  17.544  0.00  0.00    +0.000 A 
ATOM     24  C   UNL     1       6.577   5.745  18.651  0.00  0.00    +0.000 A 
ATOM     25  C   UNL     1       5.421   5.036  18.961  0.00  0.00    +0.000 A 
ATOM     26  C   UNL     1       4.259   5.168  18.173  0.00  0.00    +0.000 A 
ATOM     27  C   UNL     1       4.291   6.028  17.064  0.00  0.00    +0.000 A 
ATOM     28  C   UNL     1       5.456   6.744  16.755  0.00  0.00    +0.000 A 
BRANCH  23  30
ATOM     29  C   UNL     1       8.078   8.534  17.781  0.00  0.00    +0.000 C 
ATOM     30  O   UNL     1       7.718   7.324  17.216  0.00  0.00    +0.000 OA
ENDBRANCH  23  30
ENDBRANCH  22  26
ENDBRANCH  21  22
ENDBRANCH  20  21
ENDBRANCH  19  20
ENDBRANCH   1  19
TORSDOF 7
ENDMDL
MODEL 4
REMARK VINA RESULT:      -7.7      2.369      3.481
REMARK  Name = 
REMARK  8 active torsions:
REMARK  status: ('A' for Active; 'I' for Inactive)
REMARK    1  A    between atoms: C_1  and  O_2
REMARK    2  A    between atoms: O_2  and  C_3
REMARK    3  A    between atoms: C_6  and  O_7
REMARK    4  A    between atoms: O_7  and  C_8
REMARK    5  A    between atoms: C_8  and  C_9
REMARK    6  A    between atoms: C_9  and  C_10
REMARK    7  A    between atoms: C_10  and  N_11
REMARK    8  A    between atoms: C_17  and  C_18
REMARK                            x       y       z     vdW  Elec       q    Type
REMARK                         _______ _______ _______ _____ _____    ______ ____
ROOT
ATOM      1  N   UNL     1       6.168   5.745  16.834  0.00  0.00    +0.000 N 
ATOM      2  C   UNL     1       4.808   5.828  17.256  0.00  0.00    +0.000 C 
ATOM      3  N   UNL     1       4.270   6.977  17.482  0.00  0.00    +0.000 NA
ATOM      4  C   UNL     1       2.916   7.099  17.884  0.00  0.00    +0.000 C 
ATOM      5  N   UNL     1       2.371   8.386  18.114  0.00  0.00    +0.000 N 
ATOM      6  N   UNL     1       2.178   6.055  18.044  0.00  0.00    +0.000 NA
ATOM      7  C   UNL     1       2.648   4.691  17.857  0.00  0.00    +0.000 C 
ATOM      8  N   UNL     1       4.037   4.645  17.424  0.00  0.00    +0.000 N 
ATOM      9  H   UNL     1       6.577   4.821  16.629  0.00  0.00    +0.000 HD
ATOM     10  H   UNL     1       2.955   9.224  18.000  0.00  0.00    +0.000 HD
ATOM     11  H   UNL     1       1.389   8.493  18.409  0.00  0.00    +0.000 HD
ATOM     12  H   UNL     1       4.472   3.728  17.238  0.00  0.00    +0.000 HD
ENDROOT
BRANCH   7  13
ATOM     13  C   UNL     1       2.496   3.952  19.162  0.00  0.00    +0.000 A 
ATOM     14  C   UNL     1       1.290   4.004  19.882  0.00  0.00    +0.000 A 
ATOM     15  C   UNL     1       1.169   3.327  21.100  0.00  0.00    +0.000 A 
ATOM     16  C   UNL     1       2.247   2.597  21.608  0.00  0.00    +0.000 A 
ATOM     17  C   UNL     1       3.449   2.539  20.898  0.00  0.00    +0.000 A 
ATOM     18  C   UNL     1       3.575   3.211  19.681  0.00  0.00    +0.000 A 
ENDBRANCH   7  13
BRANCH   1  19
ATOM     19  C   UNL     1       6.970   6.944  16.689  0.00  0.00    +0.000 C 
BRANCH  19  20
ATOM     20  C   UNL     1       7.742   7.296  17.972  0.00  0.00    +0.000 C 
BRANCH  20  21
ATOM     21  C   UNL     1       8.230   8.742  17.865  0.00  0.00    +0.000 C 
BRANCH  21  22
ATOM     22  O   UNL     1       8.645   9.250  19.084  0.00  0.00    +0.000 OA
BRANCH  22  26
ATOM     23  C   UNL     1      10.969  12.713  19.497  0.00  0.00    +0.000 A 
ATOM     24  C   UNL     1      10.641  12.231  18.218  0.00  0.00    +0.000 A 
ATOM     25  C   UNL     1       9.870  11.083  18.073  0.00  0.00    +0.000 A 
ATOM     26  C   UNL     1       9.399  10.380  19.202  0.00  0.00    +0.000 A 
ATOM     27  C   UNL     1       9.723  10.864  20.480  0.00  0.00    +0.000 A 
ATOM     28  C   UNL     1      10.503  12.020  20.624  0.00  0.00    +0.000 A 
BRANCH  23  30
ATOM     29  C   UNL     1      11.519  15.039  19.042  0.00  0.00    +0.000 C 
ATOM     30  O   UNL     1      11.728  13.827  19.676  0.00  0.00    +0.000 OA
ENDBRANCH  23  30
ENDBRANCH  22  26
ENDBRANCH  21  22
ENDBRANCH  20  21
ENDBRANCH  19  20
ENDBRANCH   1  19
TORSDOF 7
ENDMDL
MODEL 5
REMARK VINA RESULT:      -7.7      6.513      9.328
REMARK  Name = 
REMARK  8 active torsions:
REMARK  status: ('A' for Active; 'I' for Inactive)
REMARK    1  A    between atoms: C_1  and  O_2
REMARK    2  A    between atoms: O_2  and  C_3
REMARK    3  A    between atoms: C_6  and  O_7
REMARK    4  A    between atoms: O_7  and  C_8
REMARK    5  A    between atoms: C_8  and  C_9
REMARK    6  A    between atoms: C_9  and  C_10
REMARK    7  A    between atoms: C_10  and  N_11
REMARK    8  A    between atoms: C_17  and  C_18
REMARK                            x       y       z     vdW  Elec       q    Type
REMARK                         _______ _______ _______ _____ _____    ______ ____
ROOT
ATOM      1  N   UNL     1       1.984   6.829  20.200  0.00  0.00    +0.000 N 
ATOM      2  C   UNL     1       1.354   8.044  20.599  0.00  0.00    +0.000 C 
ATOM      3  N   UNL     1       0.868   8.161  21.786  0.00  0.00    +0.000 NA
ATOM      4  C   UNL     1       0.253   9.361  22.225  0.00  0.00    +0.000 C 
ATOM      5  N   UNL     1      -0.261   9.439  23.542  0.00  0.00    +0.000 N 
ATOM      6  N   UNL     1       0.154  10.377  21.439  0.00  0.00    +0.000 NA
ATOM      7  C   UNL     1       0.627  10.390  20.064  0.00  0.00    +0.000 C 
ATOM      8  N   UNL     1       1.265   9.136  19.692  0.00  0.00    +0.000 N 
ATOM      9  H   UNL     1       2.395   6.759  19.256  0.00  0.00    +0.000 HD
ATOM     10  H   UNL     1      -0.197   8.629  24.173  0.00  0.00    +0.000 HD
ATOM     11  H   UNL     1      -0.714  10.302  23.877  0.00  0.00    +0.000 HD
ATOM     12  H   UNL     1       1.660   9.038  18.744  0.00  0.00    +0.000 HD
ENDROOT
BRANCH   7  13
ATOM     13  C   UNL     1      -0.550  10.651  19.158  0.00  0.00    +0.000 A 
ATOM     14  C   UNL     1      -1.524  11.604  19.501  0.00  0.00    +0.000 A 
ATOM     15  C   UNL     1      -2.620  11.823  18.660  0.00  0.00    +0.000 A 
ATOM     16  C   UNL     1      -2.753  11.095  17.475  0.00  0.00    +0.000 A 
ATOM     17  C   UNL     1      -1.788  10.146  17.126  0.00  0.00    +0.000 A 
ATOM     18  C   UNL     1      -0.691   9.925  17.961  0.00  0.00    +0.000 A 
ENDBRANCH   7  13
BRANCH   1  19
ATOM     19  C   UNL     1       2.053   5.700  21.107  0.00  0.00    +0.000 C 
BRANCH  19  20
ATOM     20  C   UNL     1       1.794   4.359  20.401  0.00  0.00    +0.000 C 
BRANCH  20  21
ATOM     21  C   UNL     1       2.989   4.045  19.499  0.00  0.00    +0.000 C 
BRANCH  21  22
ATOM     22  O   UNL     1       2.901   4.675  18.270  0.00  0.00    +0.000 OA
BRANCH  22  26
ATOM     23  C   UNL     1       6.214   5.312  15.783  0.00  0.00    +0.000 A 
ATOM     24  C   UNL     1       5.648   6.384  16.493  0.00  0.00    +0.000 A 
ATOM     25  C   UNL     1       4.548   6.180  17.321  0.00  0.00    +0.000 A 
ATOM     26  C   UNL     1       3.981   4.897  17.467  0.00  0.00    +0.000 A 
ATOM     27  C   UNL     1       4.551   3.825  16.762  0.00  0.00    +0.000 A 
ATOM     28  C   UNL     1       5.656   4.033  15.925  0.00  0.00    +0.000 A 
BRANCH  23  30
ATOM     29  C   UNL     1       7.387   4.956  13.681  0.00  0.00    +0.000 C 
ATOM     30  O   UNL     1       7.283   5.477  14.958  0.00  0.00    +0.000 OA
ENDBRANCH  23  30
ENDBRANCH  22  26
ENDBRANCH  21  22
ENDBRANCH  20  21
ENDBRANCH  19  20
ENDBRANCH   1  19
TORSDOF 7
ENDMDL
MODEL 6
REMARK VINA RESULT:      -7.6      5.532      8.093
REMARK  Name = 
REMARK  8 active torsions:
REMARK  status: ('A' for Active; 'I' for Inactive)
REMARK    1  A    between atoms: C_1  and  O_2
REMARK    2  A    between atoms: O_2  and  C_3
REMARK    3  A    between atoms: C_6  and  O_7
REMARK    4  A    between atoms: O_7  and  C_8
REMARK    5  A    between atoms: C_8  and  C_9
REMARK    6  A    between atoms: C_9  and  C_10
REMARK    7  A    between atoms: C_10  and  N_11
REMARK    8  A    between atoms: C_17  and  C_18
REMARK                            x       y       z     vdW  Elec       q    Type
REMARK                         _______ _______ _______ _____ _____    ______ ____
ROOT
ATOM      1  N   UNL     1       4.153   4.573  18.330  0.00  0.00    +0.000 N 
ATOM      2  C   UNL     1       5.307   5.031  17.630  0.00  0.00    +0.000 C 
ATOM      3  N   UNL     1       5.707   6.248  17.768  0.00  0.00    +0.000 NA
ATOM      4  C   UNL     1       6.862   6.733  17.103  0.00  0.00    +0.000 C 
ATOM      5  N   UNL     1       7.262   8.078  17.292  0.00  0.00    +0.000 N 
ATOM      6  N   UNL     1       7.548   5.965  16.327  0.00  0.00    +0.000 NA
ATOM      7  C   UNL     1       7.208   4.579  16.047  0.00  0.00    +0.000 C 
ATOM      8  N   UNL     1       6.027   4.146  16.780  0.00  0.00    +0.000 N 
ATOM      9  H   UNL     1       3.861   3.589  18.233  0.00  0.00    +0.000 HD
ATOM     10  H   UNL     1       6.714   8.701  17.900  0.00  0.00    +0.000 HD
ATOM     11  H   UNL     1       8.097   8.447  16.814  0.00  0.00    +0.000 HD
ATOM     12  H   UNL     1       5.705   3.172  16.677  0.00  0.00    +0.000 HD
ENDROOT
BRANCH   7  13
ATOM     13  C   UNL     1       6.968   4.438  14.565  0.00  0.00    +0.000 A 
ATOM     14  C   UNL     1       5.946   3.605  14.078  0.00  0.00    +0.000 A 
ATOM     15  C   UNL     1       5.746   3.469  12.700  0.00  0.00    +0.000 A 
ATOM     16  C   UNL     1       6.562   4.161  11.801  0.00  0.00    +0.000 A 
ATOM     17  C   UNL     1       7.579   4.993  12.277  0.00  0.00    +0.000 A 
ATOM     18  C   UNL     1       7.782   5.133  13.651  0.00  0.00    +0.000 A 
ENDBRANCH   7  13
BRANCH   1  19
ATOM     19  C   UNL     1       3.396   5.476  19.175  0.00  0.00    +0.000 C 
BRANCH  19  20
ATOM     20  C   UNL     1       2.352   6.285  18.386  0.00  0.00    +0.000 C 
BRANCH  20  21
ATOM     21  C   UNL     1       2.700   7.771  18.502  0.00  0.00    +0.000 C 
BRANCH  21  22
ATOM     22  O   UNL     1       1.575   8.577  18.505  0.00  0.00    +0.000 OA
BRANCH  22  26
ATOM     23  C   UNL     1       0.097  10.497  21.924  0.00  0.00    +0.000 A 
ATOM     24  C   UNL     1       0.619   9.196  22.015  0.00  0.00    +0.000 A 
ATOM     25  C   UNL     1       1.111   8.552  20.885  0.00  0.00    +0.000 A 
ATOM     26  C   UNL     1       1.100   9.190  19.627  0.00  0.00    +0.000 A 
ATOM     27  C   UNL     1       0.585  10.493  19.537  0.00  0.00    +0.000 A 
ATOM     28  C   UNL     1       0.086  11.139  20.677  0.00  0.00    +0.000 A 
BRANCH  23  30
ATOM     29  C   UNL     1      -1.734  11.465  23.203  0.00  0.00    +0.000 C 
ATOM     30  O   UNL     1      -0.400  11.153  23.007  0.00  0.00    +0.000 OA
ENDBRANCH  23  30
ENDBRANCH  22  26
ENDBRANCH  21  22
ENDBRANCH  20  21
ENDBRANCH  19  20
ENDBRANCH   1  19
TORSDOF 7
ENDMDL
MODEL 7
REMARK VINA RESULT:      -7.6      5.598      7.706
REMARK  Name = 
REMARK  8 active torsions:
REMARK  status: ('A' for Active; 'I' for Inactive)
REMARK    1  A    between atoms: C_1  and  O_2
REMARK    2  A    between atoms: O_2  and  C_3
REMARK    3  A    between atoms: C_6  and  O_7
REMARK    4  A    between atoms: O_7  and  C_8
REMARK    5  A    between atoms: C_8  and  C_9
REMARK    6  A    between atoms: C_9  and  C_10
REMARK    7  A    between atoms: C_10  and  N_11
REMARK    8  A    between atoms: C_17  and  C_18
REMARK                            x       y       z     vdW  Elec       q    Type
REMARK                         _______ _______ _______ _____ _____    ______ ____
ROOT
ATOM      1  N   UNL     1       5.370   3.585  18.645  0.00  0.00    +0.000 N 
ATOM      2  C   UNL     1       6.037   4.464  17.742  0.00  0.00    +0.000 C 
ATOM      3  N   UNL     1       5.908   5.740  17.867  0.00  0.00    +0.000 NA
ATOM      4  C   UNL     1       6.572   6.645  17.000  0.00  0.00    +0.000 C 
ATOM      5  N   UNL     1       6.401   8.039  17.184  0.00  0.00    +0.000 N 
ATOM      6  N   UNL     1       7.325   6.214  16.047  0.00  0.00    +0.000 NA
ATOM      7  C   UNL     1       7.546   4.805  15.760  0.00  0.00    +0.000 C 
ATOM      8  N   UNL     1       6.853   3.938  16.702  0.00  0.00    +0.000 N 
ATOM      9  H   UNL     1       5.505   2.567  18.550  0.00  0.00    +0.000 HD
ATOM     10  H   UNL     1       5.793   8.392  17.935  0.00  0.00    +0.000 HD
ATOM     11  H   UNL     1       6.874   8.710  16.562  0.00  0.00    +0.000 HD
ATOM     12  H   UNL     1       6.956   2.916  16.609  0.00  0.00    +0.000 HD
ENDROOT
BRANCH   7  13
ATOM     13  C   UNL     1       7.065   4.524  14.359  0.00  0.00    +0.000 A 
ATOM     14  C   UNL     1       5.913   3.750  14.136  0.00  0.00    +0.000 A 
ATOM     15  C   UNL     1       5.488   3.482  12.831  0.00  0.00    +0.000 A 
ATOM     16  C   UNL     1       6.207   3.982  11.742  0.00  0.00    +0.000 A 
ATOM     17  C   UNL     1       7.352   4.754  11.954  0.00  0.00    +0.000 A 
ATOM     18  C   UNL     1       7.780   5.025  13.256  0.00  0.00    +0.000 A 
ENDBRANCH   7  13
BRANCH   1  19
ATOM     19  C   UNL     1       4.512   4.111  19.688  0.00  0.00    +0.000 C 
BRANCH  19  20
ATOM     20  C   UNL     1       3.060   3.621  19.561  0.00  0.00    +0.000 C 
BRANCH  20  21
ATOM     21  C   UNL     1       2.151   4.838  19.376  0.00  0.00    +0.000 C 
BRANCH  21  22
ATOM     22  O   UNL     1       2.776   6.021  19.725  0.00  0.00    +0.000 OA
BRANCH  22  26
ATOM     23  C   UNL     1       1.171   9.806  18.909  0.00  0.00    +0.000 A 
ATOM     24  C   UNL     1       1.856   9.098  17.907  0.00  0.00    +0.000 A 
ATOM     25  C   UNL     1       2.391   7.842  18.170  0.00  0.00    +0.000 A 
ATOM     26  C   UNL     1       2.256   7.251  19.444  0.00  0.00    +0.000 A 
ATOM     27  C   UNL     1       1.567   7.955  20.443  0.00  0.00    +0.000 A 
ATOM     28  C   UNL     1       1.032   9.223  20.177  0.00  0.00    +0.000 A 
BRANCH  23  30
ATOM     29  C   UNL     1      -0.707  11.314  18.569  0.00  0.00    +0.000 C 
ATOM     30  O   UNL     1       0.643  11.040  18.690  0.00  0.00    +0.000 OA
ENDBRANCH  23  30
ENDBRANCH  22  26
ENDBRANCH  21  22
ENDBRANCH  20  21
ENDBRANCH  19  20
ENDBRANCH   1  19
TORSDOF 7
ENDMDL
MODEL 8
REMARK VINA RESULT:      -7.6      5.498      7.622
REMARK  Name = 
REMARK  8 active torsions:
REMARK  status: ('A' for Active; 'I' for Inactive)
REMARK    1  A    between atoms: C_1  and  O_2
REMARK    2  A    between atoms: O_2  and  C_3
REMARK    3  A    between atoms: C_6  and  O_7
REMARK    4  A    between atoms: O_7  and  C_8
REMARK    5  A    between atoms: C_8  and  C_9
REMARK    6  A    between atoms: C_9  and  C_10
REMARK    7  A    between atoms: C_10  and  N_11
REMARK    8  A    between atoms: C_17  and  C_18
REMARK                            x       y       z     vdW  Elec       q    Type
REMARK                         _______ _______ _______ _____ _____    ______ ____
ROOT
ATOM      1  N   UNL     1       4.846   4.072  18.717  0.00  0.00    +0.000 N 
ATOM      2  C   UNL     1       5.774   4.750  17.872  0.00  0.00    +0.000 C 
ATOM      3  N   UNL     1       5.934   6.023  17.978  0.00  0.00    +0.000 NA
ATOM      4  C   UNL     1       6.862   6.728  17.169  0.00  0.00    +0.000 C 
ATOM      5  N   UNL     1       7.003   8.128  17.328  0.00  0.00    +0.000 N 
ATOM      6  N   UNL     1       7.573   6.109  16.290  0.00  0.00    +0.000 NA
ATOM      7  C   UNL     1       7.486   4.681  16.032  0.00  0.00    +0.000 C 
ATOM      8  N   UNL     1       6.532   4.022  16.913  0.00  0.00    +0.000 N 
ATOM      9  H   UNL     1       4.750   3.048  18.641  0.00  0.00    +0.000 HD
ATOM     10  H   UNL     1       6.431   8.631  18.019  0.00  0.00    +0.000 HD
ATOM     11  H   UNL     1       7.670   8.655  16.747  0.00  0.00    +0.000 HD
ATOM     12  H   UNL     1       6.403   3.002  16.836  0.00  0.00    +0.000 HD
ENDROOT
BRANCH   7  13
ATOM     13  C   UNL     1       7.074   4.481  14.595  0.00  0.00    +0.000 A 
ATOM     14  C   UNL     1       5.972   3.672  14.268  0.00  0.00    +0.000 A 
ATOM     15  C   UNL     1       5.612   3.481  12.930  0.00  0.00    +0.000 A 
ATOM     16  C   UNL     1       6.348   4.093  11.911  0.00  0.00    +0.000 A 
ATOM     17  C   UNL     1       7.445   4.899  12.227  0.00  0.00    +0.000 A 
ATOM     18  C   UNL     1       7.807   5.094  13.562  0.00  0.00    +0.000 A 
ENDBRANCH   7  13
BRANCH   1  19
ATOM     19  C   UNL     1       4.048   4.809  19.676  0.00  0.00    +0.000 C 
BRANCH  19  20
ATOM     20  C   UNL     1       2.538   4.666  19.420  0.00  0.00    +0.000 C 
BRANCH  20  21
ATOM     21  C   UNL     1       2.162   5.546  18.226  0.00  0.00    +0.000 C 
BRANCH  21  22
ATOM     22  O   UNL     1       2.758   6.793  18.281  0.00  0.00    +0.000 OA
BRANCH  22  26
ATOM     23  C   UNL     1       0.817  10.211  19.736  0.00  0.00    +0.000 A 
ATOM     24  C   UNL     1       1.000   9.094  20.569  0.00  0.00    +0.000 A 
ATOM     25  C   UNL     1       1.643   7.956  20.093  0.00  0.00    +0.000 A 
ATOM     26  C   UNL     1       2.127   7.900  18.770  0.00  0.00    +0.000 A 
ATOM     27  C   UNL     1       1.950   9.017  17.939  0.00  0.00    +0.000 A 
ATOM     28  C   UNL     1       1.299  10.162  18.419  0.00  0.00    +0.000 A 
BRANCH  23  30
ATOM     29  C   UNL     1       0.025  11.700  21.491  0.00  0.00    +0.000 C 
ATOM     30  O   UNL     1       0.186  11.336  20.166  0.00  0.00    +0.000 OA
ENDBRANCH  23  30
ENDBRANCH  22  26
ENDBRANCH  21  22
ENDBRANCH  20  21
ENDBRANCH  19  20
ENDBRANCH   1  19
TORSDOF 7
ENDMDL
MODEL 9
REMARK VINA RESULT:      -7.6      5.497      8.800
REMARK  Name = 
REMARK  8 active torsions:
REMARK  status: ('A' for Active; 'I' for Inactive)
REMARK    1  A    between atoms: C_1  and  O_2
REMARK    2  A    between atoms: O_2  and  C_3
REMARK    3  A    between atoms: C_6  and  O_7
REMARK    4  A    between atoms: O_7  and  C_8
REMARK    5  A    between atoms: C_8  and  C_9
REMARK    6  A    between atoms: C_9  and  C_10
REMARK    7  A    between atoms: C_10  and  N_11
REMARK    8  A    between atoms: C_17  and  C_18
REMARK                            x       y       z     vdW  Elec       q    Type
REMARK                         _______ _______ _______ _____ _____    ______ ____
ROOT
ATOM      1  N   UNL     1       3.466   6.038  17.769  0.00  0.00    +0.000 N 
ATOM      2  C   UNL     1       4.821   6.002  17.325  0.00  0.00    +0.000 C 
ATOM      3  N   UNL     1       5.592   7.015  17.518  0.00  0.00    +0.000 NA
ATOM      4  C   UNL     1       6.950   7.007  17.108  0.00  0.00    +0.000 C 
ATOM      5  N   UNL     1       7.757   8.146  17.349  0.00  0.00    +0.000 N 
ATOM      6  N   UNL     1       7.455   5.979  16.518  0.00  0.00    +0.000 NA
ATOM      7  C   UNL     1       6.705   4.773  16.203  0.00  0.00    +0.000 C 
ATOM      8  N   UNL     1       5.329   4.845  16.672  0.00  0.00    +0.000 N 
ATOM      9  H   UNL     1       2.868   5.208  17.634  0.00  0.00    +0.000 HD
ATOM     10  H   UNL     1       7.359   8.975  17.809  0.00  0.00    +0.000 HD
ATOM     11  H   UNL     1       8.745   8.158  17.055  0.00  0.00    +0.000 HD
ATOM     12  H   UNL     1       4.708   4.035  16.524  0.00  0.00    +0.000 HD
ENDROOT
BRANCH   7  13
ATOM     13  C   UNL     1       6.724   4.578  14.708  0.00  0.00    +0.000 A 
ATOM     14  C   UNL     1       5.833   3.685  14.088  0.00  0.00    +0.000 A 
ATOM     15  C   UNL     1       5.873   3.501  12.702  0.00  0.00    +0.000 A 
ATOM     16  C   UNL     1       6.801   4.202  11.927  0.00  0.00    +0.000 A 
ATOM     17  C   UNL     1       7.690   5.092  12.535  0.00  0.00    +0.000 A 
ATOM     18  C   UNL     1       7.653   5.281  13.918  0.00  0.00    +0.000 A 
ENDBRANCH   7  13
BRANCH   1  19
ATOM     19  C   UNL     1       2.931   7.224  18.408  0.00  0.00    +0.000 C 
BRANCH  19  20
ATOM     20  C   UNL     1       1.950   7.990  17.504  0.00  0.00    +0.000 C 
BRANCH  20  21
ATOM     21  C   UNL     1       1.951   9.461  17.922  0.00  0.00    +0.000 C 
BRANCH  21  22
ATOM     22  O   UNL     1       1.037   9.724  18.926  0.00  0.00    +0.000 OA
BRANCH  22  26
ATOM     23  C   UNL     1      -2.788  11.290  18.226  0.00  0.00    +0.000 A 
ATOM     24  C   UNL     1      -2.247  10.329  17.354  0.00  0.00    +0.000 A 
ATOM     25  C   UNL     1      -0.979   9.805  17.580  0.00  0.00    +0.000 A 
ATOM     26  C   UNL     1      -0.211  10.222  18.687  0.00  0.00    +0.000 A 
ATOM     27  C   UNL     1      -0.753  11.177  19.562  0.00  0.00    +0.000 A 
ATOM     28  C   UNL     1      -2.030  11.707  19.331  0.00  0.00    +0.000 A 
BRANCH  23  30
ATOM     29  C   UNL     1      -4.795  11.651  16.899  0.00  0.00    +0.000 C 
ATOM     30  O   UNL     1      -4.021  11.830  18.031  0.00  0.00    +0.000 OA
ENDBRANCH  23  30
ENDBRANCH  22  26
ENDBRANCH  21  22
ENDBRANCH  20  21
ENDBRANCH  19  20
ENDBRANCH   1  19
TORSDOF 7
ENDMDL
