MODEL 1
REMARK VINA RESULT:      -7.7      0.000      0.000
REMARK  Name = 
REMARK  4 active torsions:
REMARK  status: ('A' for Active; 'I' for Inactive)
REMARK    1  A    between atoms: C_1  and  C_2
REMARK    2  A    between atoms: C_2  and  N_3
REMARK    3  A    between atoms: C_13  and  C_15
REMARK    4  A    between atoms: C_21  and  C_22
REMARK                            x       y       z     vdW  Elec       q    Type
REMARK                         _______ _______ _______ _____ _____    ______ ____
ROOT
ATOM      1  N   UNL     1      -3.824  13.406  21.160  0.00  0.00    +0.000 N 
ATOM      2  C   UNL     1      -3.018  12.578  20.342  0.00  0.00    +0.000 A 
ATOM      3  C   UNL     1      -1.814  12.094  20.845  0.00  0.00    +0.000 A 
ATOM      4  C   UNL     1      -1.012  11.239  20.065  0.00  0.00    +0.000 A 
ATOM      5  C   UNL     1      -1.414  10.969  18.769  0.00  0.00    +0.000 A 
ATOM      6  N   UNL     1      -2.555  11.488  18.276  0.00  0.00    +0.000 NA
ATOM      7  N   UNL     1      -3.353  12.294  19.069  0.00  0.00    +0.000 NA
ATOM      8  C   UNL     1      -0.658  10.005  17.895  0.00  0.00    +0.000 C 
ATOM      9  C   UNL     1       0.764   9.728  18.392  0.00  0.00    +0.000 C 
ATOM     10  N   UNL     1       0.781   9.516  19.833  0.00  0.00    +0.000 N 
ATOM     11  C   UNL     1       1.448   8.508  20.541  0.00  0.00    +0.000 C 
ATOM     12  O   UNL     1       1.521   8.647  21.771  0.00  0.00    +0.000 OA
ATOM     13  C   UNL     1       0.244  10.633  20.628  0.00  0.00    +0.000 C 
ATOM     14  H   UNL     1      -3.779  13.077  22.121  0.00  0.00    +0.000 HD
ENDROOT
BRANCH  11  15
ATOM     15  C   UNL     1       1.987   7.267  19.977  0.00  0.00    +0.000 A 
ATOM     16  C   UNL     1       1.774   6.024  20.559  0.00  0.00    +0.000 A 
ATOM     17  C   UNL     1       2.321   5.041  19.726  0.00  0.00    +0.000 A 
ATOM     18  C   UNL     1       2.326   3.637  19.770  0.00  0.00    +0.000 A 
ATOM     19  C   UNL     1       2.978   2.930  18.767  0.00  0.00    +0.000 A 
ATOM     20  C   UNL     1       3.685   3.620  17.779  0.00  0.00    +0.000 A 
ATOM     21  C   UNL     1       3.744   5.035  17.733  0.00  0.00    +0.000 A 
ATOM     22  C   UNL     1       4.669   5.668  16.737  0.00  0.00    +0.000 C 
ATOM     23  C   UNL     1       2.989   5.721  18.705  0.00  0.00    +0.000 A 
ATOM     24  O   UNL     1       2.771   7.091  18.855  0.00  0.00    +0.000 OA
ENDBRANCH  11  15
BRANCH   1  26
ATOM     25  C   UNL     1      -6.120  12.692  21.637  0.00  0.00    +0.000 C 
ATOM     26  C   UNL     1      -5.214  13.474  20.695  0.00  0.00    +0.000 C 
ENDBRANCH   1  26
TORSDOF 2
ENDMDL
MODEL 2
REMARK VINA RESULT:      -7.5      2.611      3.647
REMARK  Name = 
REMARK  4 active torsions:
REMARK  status: ('A' for Active; 'I' for Inactive)
REMARK    1  A    between atoms: C_1  and  C_2
REMARK    2  A    between atoms: C_2  and  N_3
REMARK    3  A    between atoms: C_13  and  C_15
REMARK    4  A    between atoms: C_21  and  C_22
REMARK                            x       y       z     vdW  Elec       q    Type
REMARK                         _______ _______ _______ _____ _____    ______ ____
ROOT
ATOM      1  N   UNL     1      -1.635  13.086  22.130  0.00  0.00    +0.000 N 
ATOM      2  C   UNL     1      -0.878  11.894  22.025  0.00  0.00    +0.000 A 
ATOM      3  C   UNL     1      -0.719  11.301  20.776  0.00  0.00    +0.000 A 
ATOM      4  C   UNL     1       0.060  10.137  20.638  0.00  0.00    +0.000 A 
ATOM      5  C   UNL     1       0.584   9.562  21.782  0.00  0.00    +0.000 A 
ATOM      6  N   UNL     1       0.377  10.117  22.992  0.00  0.00    +0.000 NA
ATOM      7  N   UNL     1      -0.357  11.284  23.106  0.00  0.00    +0.000 NA
ATOM      8  C   UNL     1       1.490   8.363  21.717  0.00  0.00    +0.000 C 
ATOM      9  C   UNL     1       1.405   7.615  20.383  0.00  0.00    +0.000 C 
ATOM     10  N   UNL     1       1.405   8.545  19.262  0.00  0.00    +0.000 N 
ATOM     11  C   UNL     1       2.150   8.458  18.078  0.00  0.00    +0.000 C 
ATOM     12  O   UNL     1       1.828   9.227  17.160  0.00  0.00    +0.000 OA
ATOM     13  C   UNL     1       0.317   9.537  19.282  0.00  0.00    +0.000 C 
ATOM     14  H   UNL     1      -1.460  13.671  21.317  0.00  0.00    +0.000 HD
ENDROOT
BRANCH  11  15
ATOM     15  C   UNL     1       3.325   7.610  17.857  0.00  0.00    +0.000 A 
ATOM     16  C   UNL     1       3.243   6.228  17.742  0.00  0.00    +0.000 A 
ATOM     17  C   UNL     1       4.512   5.730  17.429  0.00  0.00    +0.000 A 
ATOM     18  C   UNL     1       4.992   4.446  17.122  0.00  0.00    +0.000 A 
ATOM     19  C   UNL     1       6.344   4.274  16.853  0.00  0.00    +0.000 A 
ATOM     20  C   UNL     1       7.218   5.357  16.972  0.00  0.00    +0.000 A 
ATOM     21  C   UNL     1       6.776   6.655  17.329  0.00  0.00    +0.000 A 
ATOM     22  C   UNL     1       7.816   7.703  17.595  0.00  0.00    +0.000 C 
ATOM     23  C   UNL     1       5.387   6.816  17.494  0.00  0.00    +0.000 A 
ATOM     24  O   UNL     1       4.651   7.975  17.746  0.00  0.00    +0.000 OA
ENDBRANCH  11  15
BRANCH   1  26
ATOM     25  C   UNL     1      -0.543  15.071  23.069  0.00  0.00    +0.000 C 
ATOM     26  C   UNL     1      -1.358  13.820  23.371  0.00  0.00    +0.000 C 
ENDBRANCH   1  26
TORSDOF 2
ENDMDL
MODEL 3
REMARK VINA RESULT:      -7.5      1.589      2.471
REMARK  Name = 
REMARK  4 active torsions:
REMARK  status: ('A' for Active; 'I' for Inactive)
REMARK    1  A    between atoms: C_1  and  C_2
REMARK    2  A    between atoms: C_2  and  N_3
REMARK    3  A    between atoms: C_13  and  C_15
REMARK    4  A    between atoms: C_21  and  C_22
REMARK                            x       y       z     vdW  Elec       q    Type
REMARK                         _______ _______ _______ _____ _____    ______ ____
ROOT
ATOM      1  N   UNL     1      -5.651  13.521  20.465  0.00  0.00    +0.000 N 
ATOM      2  C   UNL     1      -4.821  12.650  19.721  0.00  0.00    +0.000 A 
ATOM      3  C   UNL     1      -3.446  12.674  19.938  0.00  0.00    +0.000 A 
ATOM      4  C   UNL     1      -2.602  11.791  19.238  0.00  0.00    +0.000 A 
ATOM      5  C   UNL     1      -3.167  10.970  18.279  0.00  0.00    +0.000 A 
ATOM      6  N   UNL     1      -4.492  10.995  18.040  0.00  0.00    +0.000 NA
ATOM      7  N   UNL     1      -5.314  11.839  18.765  0.00  0.00    +0.000 NA
ATOM      8  C   UNL     1      -2.350   9.944  17.541  0.00  0.00    +0.000 C 
ATOM      9  C   UNL     1      -0.842  10.200  17.622  0.00  0.00    +0.000 C 
ATOM     10  N   UNL     1      -0.446  10.557  18.977  0.00  0.00    +0.000 N 
ATOM     11  C   UNL     1       0.647  10.067  19.706  0.00  0.00    +0.000 C 
ATOM     12  O   UNL     1       0.936  10.672  20.749  0.00  0.00    +0.000 OA
ATOM     13  C   UNL     1      -1.127  11.741  19.530  0.00  0.00    +0.000 C 
ATOM     14  H   UNL     1      -5.296  13.598  21.414  0.00  0.00    +0.000 HD
ENDROOT
BRANCH  11  15
ATOM     15  C   UNL     1       1.419   8.861  19.398  0.00  0.00    +0.000 A 
ATOM     16  C   UNL     1       2.142   8.712  18.222  0.00  0.00    +0.000 A 
ATOM     17  C   UNL     1       2.850   7.506  18.282  0.00  0.00    +0.000 A 
ATOM     18  C   UNL     1       3.787   6.897  17.430  0.00  0.00    +0.000 A 
ATOM     19  C   UNL     1       4.317   5.661  17.780  0.00  0.00    +0.000 A 
ATOM     20  C   UNL     1       3.855   5.006  18.924  0.00  0.00    +0.000 A 
ATOM     21  C   UNL     1       2.874   5.568  19.778  0.00  0.00    +0.000 A 
ATOM     22  C   UNL     1       2.326   4.709  20.879  0.00  0.00    +0.000 C 
ATOM     23  C   UNL     1       2.433   6.865  19.450  0.00  0.00    +0.000 A 
ATOM     24  O   UNL     1       1.561   7.707  20.142  0.00  0.00    +0.000 OA
ENDBRANCH  11  15
BRANCH   1  26
ATOM     25  C   UNL     1      -7.917  14.128  19.750  0.00  0.00    +0.000 C 
ATOM     26  C   UNL     1      -7.056  13.095  20.465  0.00  0.00    +0.000 C 
ENDBRANCH   1  26
TORSDOF 2
ENDMDL
MODEL 4
REMARK VINA RESULT:      -7.5      0.625      1.631
REMARK  Name = 
REMARK  4 active torsions:
REMARK  status: ('A' for Active; 'I' for Inactive)
REMARK    1  A    between atoms: C_1  and  C_2
REMARK    2  A    between atoms: C_2  and  N_3
REMARK    3  A    between atoms: C_13  and  C_15
REMARK    4  A    between atoms: C_21  and  C_22
REMARK                            x       y       z     vdW  Elec       q    Type
REMARK                         _______ _______ _______ _____ _____    ______ ____
ROOT
ATOM      1  N   UNL     1      -3.605  13.560  21.390  0.00  0.00    +0.000 N 
ATOM      2  C   UNL     1      -2.860  12.707  20.541  0.00  0.00    +0.000 A 
ATOM      3  C   UNL     1      -1.660  12.171  21.002  0.00  0.00    +0.000 A 
ATOM      4  C   UNL     1      -0.919  11.290  20.192  0.00  0.00    +0.000 A 
ATOM      5  C   UNL     1      -1.373  11.045  18.908  0.00  0.00    +0.000 A 
ATOM      6  N   UNL     1      -2.508  11.613  18.456  0.00  0.00    +0.000 NA
ATOM      7  N   UNL     1      -3.246  12.444  19.278  0.00  0.00    +0.000 NA
ATOM      8  C   UNL     1      -0.685  10.058  18.005  0.00  0.00    +0.000 C 
ATOM      9  C   UNL     1       0.740   9.721  18.454  0.00  0.00    +0.000 C 
ATOM     10  N   UNL     1       0.795   9.498  19.892  0.00  0.00    +0.000 N 
ATOM     11  C   UNL     1       1.444   8.460  20.573  0.00  0.00    +0.000 C 
ATOM     12  O   UNL     1       1.562   8.588  21.802  0.00  0.00    +0.000 OA
ATOM     13  C   UNL     1       0.329  10.631  20.711  0.00  0.00    +0.000 C 
ATOM     14  H   UNL     1      -3.542  13.224  22.347  0.00  0.00    +0.000 HD
ENDROOT
BRANCH  11  15
ATOM     15  C   UNL     1       1.914   7.203  19.986  0.00  0.00    +0.000 A 
ATOM     16  C   UNL     1       2.627   7.151  18.795  0.00  0.00    +0.000 A 
ATOM     17  C   UNL     1       3.019   5.828  18.566  0.00  0.00    +0.000 A 
ATOM     18  C   UNL     1       3.815   5.217  17.582  0.00  0.00    +0.000 A 
ATOM     19  C   UNL     1       4.017   3.843  17.631  0.00  0.00    +0.000 A 
ATOM     20  C   UNL     1       3.365   3.080  18.602  0.00  0.00    +0.000 A 
ATOM     21  C   UNL     1       2.516   3.657  19.579  0.00  0.00    +0.000 A 
ATOM     22  C   UNL     1       1.733   2.732  20.463  0.00  0.00    +0.000 C 
ATOM     23  C   UNL     1       2.414   5.061  19.563  0.00  0.00    +0.000 A 
ATOM     24  O   UNL     1       1.744   5.912  20.444  0.00  0.00    +0.000 OA
ENDBRANCH  11  15
BRANCH   1  26
ATOM     25  C   UNL     1      -5.888  12.776  21.813  0.00  0.00    +0.000 C 
ATOM     26  C   UNL     1      -5.005  13.687  20.971  0.00  0.00    +0.000 C 
ENDBRANCH   1  26
TORSDOF 2
ENDMDL
MODEL 5
REMARK VINA RESULT:      -7.4      3.309      4.394
REMARK  Name = 
REMARK  4 active torsions:
REMARK  status: ('A' for Active; 'I' for Inactive)
REMARK    1  A    between atoms: C_1  and  C_2
REMARK    2  A    between atoms: C_2  and  N_3
REMARK    3  A    between atoms: C_13  and  C_15
REMARK    4  A    between atoms: C_21  and  C_22
REMARK                            x       y       z     vdW  Elec       q    Type
REMARK                         _______ _______ _______ _____ _____    ______ ____
ROOT
ATOM      1  N   UNL     1       2.680  15.358  18.982  0.00  0.00    +0.000 N 
ATOM      2  C   UNL     1       2.187  14.110  19.433  0.00  0.00    +0.000 A 
ATOM      3  C   UNL     1       2.131  13.041  18.543  0.00  0.00    +0.000 A 
ATOM      4  C   UNL     1       1.681  11.780  18.976  0.00  0.00    +0.000 A 
ATOM      5  C   UNL     1       1.221  11.662  20.276  0.00  0.00    +0.000 A 
ATOM      6  N   UNL     1       1.230  12.718  21.111  0.00  0.00    +0.000 NA
ATOM      7  N   UNL     1       1.714  13.941  20.682  0.00  0.00    +0.000 NA
ATOM      8  C   UNL     1       0.795  10.335  20.843  0.00  0.00    +0.000 C 
ATOM      9  C   UNL     1       0.504   9.285  19.766  0.00  0.00    +0.000 C 
ATOM     10  N   UNL     1       1.530   9.299  18.732  0.00  0.00    +0.000 N 
ATOM     11  C   UNL     1       2.183   8.199  18.160  0.00  0.00    +0.000 C 
ATOM     12  O   UNL     1       2.850   8.418  17.137  0.00  0.00    +0.000 OA
ATOM     13  C   UNL     1       1.703  10.594  18.051  0.00  0.00    +0.000 C 
ATOM     14  H   UNL     1       3.450  15.204  18.336  0.00  0.00    +0.000 HD
ENDROOT
BRANCH  11  15
ATOM     15  C   UNL     1       2.225   6.840  18.704  0.00  0.00    +0.000 A 
ATOM     16  C   UNL     1       2.291   6.579  20.067  0.00  0.00    +0.000 A 
ATOM     17  C   UNL     1       2.206   5.195  20.261  0.00  0.00    +0.000 A 
ATOM     18  C   UNL     1       2.138   4.388  21.409  0.00  0.00    +0.000 A 
ATOM     19  C   UNL     1       2.063   3.008  21.263  0.00  0.00    +0.000 A 
ATOM     20  C   UNL     1       2.138   2.440  19.989  0.00  0.00    +0.000 A 
ATOM     21  C   UNL     1       2.258   3.222  18.813  0.00  0.00    +0.000 A 
ATOM     22  C   UNL     1       2.504   2.508  17.518  0.00  0.00    +0.000 C 
ATOM     23  C   UNL     1       2.229   4.619  18.990  0.00  0.00    +0.000 A 
ATOM     24  O   UNL     1       2.228   5.634  18.032  0.00  0.00    +0.000 OA
ENDBRANCH  11  15
BRANCH   1  26
ATOM     25  C   UNL     1       4.577  16.058  20.368  0.00  0.00    +0.000 C 
ATOM     26  C   UNL     1       3.090  16.233  20.086  0.00  0.00    +0.000 C 
ENDBRANCH   1  26
TORSDOF 2
ENDMDL
MODEL 6
REMARK VINA RESULT:      -7.3      3.003      9.043
REMARK  Name = 
REMARK  4 active torsions:
REMARK  status: ('A' for Active; 'I' for Inactive)
REMARK    1  A    between atoms: C_1  and  C_2
REMARK    2  A    between atoms: C_2  and  N_3
REMARK    3  A    between atoms: C_13  and  C_15
REMARK    4  A    between atoms: C_21  and  C_22
REMARK                            x       y       z     vdW  Elec       q    Type
REMARK                         _______ _______ _______ _____ _____    ______ ____
ROOT
ATOM      1  N   UNL     1       3.957   6.540  18.196  0.00  0.00    +0.000 N 
ATOM      2  C   UNL     1       2.972   7.547  18.338  0.00  0.00    +0.000 A 
ATOM      3  C   UNL     1       2.222   7.601  19.509  0.00  0.00    +0.000 A 
ATOM      4  C   UNL     1       1.263   8.615  19.691  0.00  0.00    +0.000 A 
ATOM      5  C   UNL     1       1.034   9.492  18.646  0.00  0.00    +0.000 A 
ATOM      6  N   UNL     1       1.729   9.395  17.496  0.00  0.00    +0.000 NA
ATOM      7  N   UNL     1       2.697   8.418  17.349  0.00  0.00    +0.000 NA
ATOM      8  C   UNL     1       0.083  10.650  18.784  0.00  0.00    +0.000 C 
ATOM      9  C   UNL     1      -0.886  10.499  19.960  0.00  0.00    +0.000 C 
ATOM     10  N   UNL     1      -0.192  10.027  21.151  0.00  0.00    +0.000 N 
ATOM     11  C   UNL     1      -0.310  10.513  22.459  0.00  0.00    +0.000 C 
ATOM     12  O   UNL     1       0.191   9.821  23.358  0.00  0.00    +0.000 OA
ATOM     13  C   UNL     1       0.511   8.742  20.988  0.00  0.00    +0.000 C 
ATOM     14  H   UNL     1       4.415   6.386  19.091  0.00  0.00    +0.000 HD
ENDROOT
BRANCH  11  15
ATOM     15  C   UNL     1      -0.890  11.800  22.854  0.00  0.00    +0.000 A 
ATOM     16  C   UNL     1      -2.240  11.960  23.136  0.00  0.00    +0.000 A 
ATOM     17  C   UNL     1      -2.451  13.269  23.583  0.00  0.00    +0.000 A 
ATOM     18  C   UNL     1      -3.578  13.947  24.077  0.00  0.00    +0.000 A 
ATOM     19  C   UNL     1      -3.459  15.282  24.443  0.00  0.00    +0.000 A 
ATOM     20  C   UNL     1      -2.250  15.953  24.240  0.00  0.00    +0.000 A 
ATOM     21  C   UNL     1      -1.108  15.313  23.698  0.00  0.00    +0.000 A 
ATOM     22  C   UNL     1       0.081  16.165  23.363  0.00  0.00    +0.000 C 
ATOM     23  C   UNL     1      -1.233  13.936  23.433  0.00  0.00    +0.000 A 
ATOM     24  O   UNL     1      -0.270  13.025  22.995  0.00  0.00    +0.000 OA
ENDBRANCH  11  15
BRANCH   1  26
ATOM     25  C   UNL     1       6.321   6.372  17.572  0.00  0.00    +0.000 C 
ATOM     26  C   UNL     1       4.940   6.858  17.154  0.00  0.00    +0.000 C 
ENDBRANCH   1  26
TORSDOF 2
ENDMDL
MODEL 7
REMARK VINA RESULT:      -7.3      1.349      1.514
REMARK  Name = 
REMARK  4 active torsions:
REMARK  status: ('A' for Active; 'I' for Inactive)
REMARK    1  A    between atoms: C_1  and  C_2
REMARK    2  A    between atoms: C_2  and  N_3
REMARK    3  A    between atoms: C_13  and  C_15
REMARK    4  A    between atoms: C_21  and  C_22
REMARK                            x       y       z     vdW  Elec       q    Type
REMARK                         _______ _______ _______ _____ _____    ______ ____
ROOT
ATOM      1  N   UNL     1      -5.303  13.275  19.439  0.00  0.00    +0.000 N 
ATOM      2  C   UNL     1      -4.336  12.401  18.885  0.00  0.00    +0.000 A 
ATOM      3  C   UNL     1      -3.090  12.295  19.495  0.00  0.00    +0.000 A 
ATOM      4  C   UNL     1      -2.125  11.406  18.986  0.00  0.00    +0.000 A 
ATOM      5  C   UNL     1      -2.421  10.715  17.825  0.00  0.00    +0.000 A 
ATOM      6  N   UNL     1      -3.612  10.868  17.214  0.00  0.00    +0.000 NA
ATOM      7  N   UNL     1      -4.566  11.715  17.750  0.00  0.00    +0.000 NA
ATOM      8  C   UNL     1      -1.479   9.689  17.257  0.00  0.00    +0.000 C 
ATOM      9  C   UNL     1      -0.052   9.813  17.800  0.00  0.00    +0.000 C 
ATOM     10  N   UNL     1      -0.060  10.024  19.242  0.00  0.00    +0.000 N 
ATOM     11  C   UNL     1       0.738   9.389  20.203  0.00  0.00    +0.000 C 
ATOM     12  O   UNL     1       0.735   9.882  21.342  0.00  0.00    +0.000 OA
ATOM     13  C   UNL     1      -0.809  11.211  19.689  0.00  0.00    +0.000 C 
ATOM     14  H   UNL     1      -5.244  13.244  20.453  0.00  0.00    +0.000 HD
ENDROOT
BRANCH  11  15
ATOM     15  C   UNL     1       1.500   8.153  20.013  0.00  0.00    +0.000 A 
ATOM     16  C   UNL     1       1.347   7.043  20.834  0.00  0.00    +0.000 A 
ATOM     17  C   UNL     1       2.129   6.000  20.326  0.00  0.00    +0.000 A 
ATOM     18  C   UNL     1       2.292   4.653  20.693  0.00  0.00    +0.000 A 
ATOM     19  C   UNL     1       3.171   3.856  19.971  0.00  0.00    +0.000 A 
ATOM     20  C   UNL     1       3.938   4.419  18.948  0.00  0.00    +0.000 A 
ATOM     21  C   UNL     1       3.836   5.785  18.585  0.00  0.00    +0.000 A 
ATOM     22  C   UNL     1       4.825   6.324  17.594  0.00  0.00    +0.000 C 
ATOM     23  C   UNL     1       2.863   6.540  19.269  0.00  0.00    +0.000 A 
ATOM     24  O   UNL     1       2.465   7.862  19.070  0.00  0.00    +0.000 OA
ENDBRANCH  11  15
BRANCH   1  26
ATOM     25  C   UNL     1      -7.272  11.876  19.857  0.00  0.00    +0.000 C 
ATOM     26  C   UNL     1      -6.664  12.967  18.986  0.00  0.00    +0.000 C 
ENDBRANCH   1  26
TORSDOF 2
ENDMDL
MODEL 8
REMARK VINA RESULT:      -7.2      3.819      4.661
REMARK  Name = 
REMARK  4 active torsions:
REMARK  status: ('A' for Active; 'I' for Inactive)
REMARK    1  A    between atoms: C_1  and  C_2
REMARK    2  A    between atoms: C_2  and  N_3
REMARK    3  A    between atoms: C_13  and  C_15
REMARK    4  A    between atoms: C_21  and  C_22
REMARK                            x       y       z     vdW  Elec       q    Type
REMARK                         _______ _______ _______ _____ _____    ______ ____
ROOT
ATOM      1  N   UNL     1      -0.759  17.507  18.080  0.00  0.00    +0.000 N 
ATOM      2  C   UNL     1       0.004  16.431  18.593  0.00  0.00    +0.000 A 
ATOM      3  C   UNL     1      -0.577  15.168  18.677  0.00  0.00    +0.000 A 
ATOM      4  C   UNL     1       0.172  14.073  19.148  0.00  0.00    +0.000 A 
ATOM      5  C   UNL     1       1.459  14.308  19.599  0.00  0.00    +0.000 A 
ATOM      6  N   UNL     1       1.990  15.545  19.563  0.00  0.00    +0.000 NA
ATOM      7  N   UNL     1       1.255  16.603  19.059  0.00  0.00    +0.000 NA
ATOM      8  C   UNL     1       2.353  13.183  20.046  0.00  0.00    +0.000 C 
ATOM      9  C   UNL     1       1.589  11.895  20.366  0.00  0.00    +0.000 C 
ATOM     10  N   UNL     1       0.584  11.618  19.349  0.00  0.00    +0.000 N 
ATOM     11  C   UNL     1       0.316  10.394  18.722  0.00  0.00    +0.000 C 
ATOM     12  O   UNL     1      -0.731  10.325  18.060  0.00  0.00    +0.000 OA
ATOM     13  C   UNL     1      -0.412  12.687  19.157  0.00  0.00    +0.000 C 
ATOM     14  H   UNL     1      -1.344  17.174  17.318  0.00  0.00    +0.000 HD
ENDROOT
BRANCH  11  15
ATOM     15  C   UNL     1       1.196   9.222  18.703  0.00  0.00    +0.000 A 
ATOM     16  C   UNL     1       2.103   8.982  17.678  0.00  0.00    +0.000 A 
ATOM     17  C   UNL     1       2.861   7.853  18.009  0.00  0.00    +0.000 A 
ATOM     18  C   UNL     1       3.954   7.217  17.397  0.00  0.00    +0.000 A 
ATOM     19  C   UNL     1       4.494   6.081  17.989  0.00  0.00    +0.000 A 
ATOM     20  C   UNL     1       3.896   5.543  19.131  0.00  0.00    +0.000 A 
ATOM     21  C   UNL     1       2.762   6.130  19.745  0.00  0.00    +0.000 A 
ATOM     22  C   UNL     1       2.099   5.378  20.860  0.00  0.00    +0.000 C 
ATOM     23  C   UNL     1       2.303   7.335  19.179  0.00  0.00    +0.000 A 
ATOM     24  O   UNL     1       1.286   8.188  19.611  0.00  0.00    +0.000 OA
ENDBRANCH  11  15
BRANCH   1  26
ATOM     25  C   UNL     1       0.532  18.418  16.205  0.00  0.00    +0.000 C 
ATOM     26  C   UNL     1       0.078  18.631  17.643  0.00  0.00    +0.000 C 
ENDBRANCH   1  26
TORSDOF 2
ENDMDL
MODEL 9
REMARK VINA RESULT:      -7.2      2.509      9.173
REMARK  Name = 
REMARK  4 active torsions:
REMARK  status: ('A' for Active; 'I' for Inactive)
REMARK    1  A    between atoms: C_1  and  C_2
REMARK    2  A    between atoms: C_2  and  N_3
REMARK    3  A    between atoms: C_13  and  C_15
REMARK    4  A    between atoms: C_21  and  C_22
REMARK                            x       y       z     vdW  Elec       q    Type
REMARK                         _______ _______ _______ _____ _____    ______ ____
ROOT
ATOM      1  N   UNL     1       3.354   6.746  17.780  0.00  0.00    +0.000 N 
ATOM      2  C   UNL     1       2.515   7.521  18.617  0.00  0.00    +0.000 A 
ATOM      3  C   UNL     1       1.875   8.638  18.087  0.00  0.00    +0.000 A 
ATOM      4  C   UNL     1       1.006   9.403  18.888  0.00  0.00    +0.000 A 
ATOM      5  C   UNL     1       0.879   9.063  20.223  0.00  0.00    +0.000 A 
ATOM      6  N   UNL     1       1.546   8.012  20.736  0.00  0.00    +0.000 NA
ATOM      7  N   UNL     1       2.365   7.245  19.926  0.00  0.00    +0.000 NA
ATOM      8  C   UNL     1      -0.086   9.778  21.129  0.00  0.00    +0.000 C 
ATOM      9  C   UNL     1      -0.543  11.132  20.575  0.00  0.00    +0.000 C 
ATOM     10  N   UNL     1      -0.866  11.034  19.159  0.00  0.00    +0.000 N 
ATOM     11  C   UNL     1      -1.987  11.554  18.499  0.00  0.00    +0.000 C 
ATOM     12  O   UNL     1      -1.952  11.560  17.259  0.00  0.00    +0.000 OA
ATOM     13  C   UNL     1       0.236  10.556  18.305  0.00  0.00    +0.000 C 
ATOM     14  H   UNL     1       2.950   6.696  16.849  0.00  0.00    +0.000 HD
ENDROOT
BRANCH  11  15
ATOM     15  C   UNL     1      -3.229  12.008  19.132  0.00  0.00    +0.000 A 
ATOM     16  C   UNL     1      -4.484  11.719  18.613  0.00  0.00    +0.000 A 
ATOM     17  C   UNL     1      -5.455  12.196  19.502  0.00  0.00    +0.000 A 
ATOM     18  C   UNL     1      -6.857  12.110  19.531  0.00  0.00    +0.000 A 
ATOM     19  C   UNL     1      -7.551  12.708  20.576  0.00  0.00    +0.000 A 
ATOM     20  C   UNL     1      -6.857  13.451  21.534  0.00  0.00    +0.000 A 
ATOM     21  C   UNL     1      -5.448  13.600  21.507  0.00  0.00    +0.000 A 
ATOM     22  C   UNL     1      -4.825  14.557  22.479  0.00  0.00    +0.000 C 
ATOM     23  C   UNL     1      -4.768  12.898  20.494  0.00  0.00    +0.000 A 
ATOM     24  O   UNL     1      -3.396  12.770  20.270  0.00  0.00    +0.000 OA
ENDBRANCH  11  15
BRANCH   1  26
ATOM     25  C   UNL     1       2.576   4.422  17.757  0.00  0.00    +0.000 C 
ATOM     26  C   UNL     1       3.597   5.402  18.317  0.00  0.00    +0.000 C 
ENDBRANCH   1  26
TORSDOF 2
ENDMDL
