MODEL 1
REMARK VINA RESULT:      -7.1      0.000      0.000
REMARK  Name = 
REMARK  9 active torsions:
REMARK  status: ('A' for Active; 'I' for Inactive)
REMARK    1  A    between atoms: C_1  and  C_2
REMARK    2  A    between atoms: C_2  and  C_3
REMARK    3  A    between atoms: C_3  and  C_4
REMARK    4  A    between atoms: C_4  and  C_5
REMARK    5  A    between atoms: C_5  and  C_6
REMARK    6  A    between atoms: C_6  and  C_7
REMARK    7  A    between atoms: C_7  and  C_8
REMARK    8  A    between atoms: C_8  and  N_9
REMARK    9  A    between atoms: C_13  and  N_14
REMARK                            x       y       z     vdW  Elec       q    Type
REMARK                         _______ _______ _______ _____ _____    ______ ____
ROOT
ATOM      1  N   UNL     1       6.181   5.614  18.112  0.00  0.00    +0.000 N 
ATOM      2  N   UNL     1       6.687   4.534  18.728  0.00  0.00    +0.000 NA
ATOM      3  N   UNL     1       5.671   3.859  19.248  0.00  0.00    +0.000 NA
ATOM      4  C   UNL     1       4.506   4.522  18.950  0.00  0.00    +0.000 A 
ATOM      5  C   UNL     1       3.153   4.255  19.209  0.00  0.00    +0.000 A 
ATOM      6  C   UNL     1       2.160   5.142  18.747  0.00  0.00    +0.000 A 
ATOM      7  C   UNL     1       2.518   6.295  18.048  0.00  0.00    +0.000 A 
ATOM      8  C   UNL     1       3.857   6.590  17.780  0.00  0.00    +0.000 A 
ATOM      9  C   UNL     1       4.818   5.679  18.237  0.00  0.00    +0.000 A 
ENDROOT
BRANCH   5  10
ATOM     10  N   UNL     1       2.782   3.051  19.940  0.00  0.00    +0.000 N 
ATOM     11  O   UNL     1       2.420   2.052  19.312  0.00  0.00    +0.000 OA
ATOM     12  O   UNL     1       2.852   3.103  21.179  0.00  0.00    +0.000 OA
ENDBRANCH   5  10
BRANCH   1  13
ATOM     13  C   UNL     1       7.038   6.466  17.314  0.00  0.00    +0.000 C 
BRANCH  13  14
ATOM     14  C   UNL     1       7.910   7.345  18.206  0.00  0.00    +0.000 C 
BRANCH  14  15
ATOM     15  C   UNL     1       7.936   8.794  17.733  0.00  0.00    +0.000 C 
BRANCH  15  16
ATOM     16  C   UNL     1       8.816   9.635  18.657  0.00  0.00    +0.000 C 
BRANCH  16  17
ATOM     17  C   UNL     1       9.018  11.045  18.108  0.00  0.00    +0.000 C 
BRANCH  17  18
ATOM     18  C   UNL     1      10.479  11.472  18.237  0.00  0.00    +0.000 C 
BRANCH  18  20
ATOM     19  C   UNL     1      12.331  12.043  19.841  0.00  0.00    +0.000 C 
ATOM     20  C   UNL     1      10.917  11.506  19.699  0.00  0.00    +0.000 C 
ENDBRANCH  18  20
ENDBRANCH  17  18
ENDBRANCH  16  17
ENDBRANCH  15  16
ENDBRANCH  14  15
ENDBRANCH  13  14
ENDBRANCH   1  13
TORSDOF 8
ENDMDL
MODEL 2
REMARK VINA RESULT:      -7.0      4.559      6.790
REMARK  Name = 
REMARK  9 active torsions:
REMARK  status: ('A' for Active; 'I' for Inactive)
REMARK    1  A    between atoms: C_1  and  C_2
REMARK    2  A    between atoms: C_2  and  C_3
REMARK    3  A    between atoms: C_3  and  C_4
REMARK    4  A    between atoms: C_4  and  C_5
REMARK    5  A    between atoms: C_5  and  C_6
REMARK    6  A    between atoms: C_6  and  C_7
REMARK    7  A    between atoms: C_7  and  C_8
REMARK    8  A    between atoms: C_8  and  N_9
REMARK    9  A    between atoms: C_13  and  N_14
REMARK                            x       y       z     vdW  Elec       q    Type
REMARK                         _______ _______ _______ _____ _____    ______ ____
ROOT
ATOM      1  N   UNL     1       4.961   5.032  17.353  0.00  0.00    +0.000 N 
ATOM      2  N   UNL     1       5.818   5.254  18.363  0.00  0.00    +0.000 NA
ATOM      3  N   UNL     1       5.501   4.422  19.345  0.00  0.00    +0.000 NA
ATOM      4  C   UNL     1       4.431   3.659  18.945  0.00  0.00    +0.000 A 
ATOM      5  C   UNL     1       3.711   2.617  19.550  0.00  0.00    +0.000 A 
ATOM      6  C   UNL     1       2.644   2.007  18.861  0.00  0.00    +0.000 A 
ATOM      7  C   UNL     1       2.287   2.449  17.586  0.00  0.00    +0.000 A 
ATOM      8  C   UNL     1       2.980   3.488  16.961  0.00  0.00    +0.000 A 
ATOM      9  C   UNL     1       4.047   4.061  17.665  0.00  0.00    +0.000 A 
ENDROOT
BRANCH   5  10
ATOM     10  N   UNL     1       4.085   2.159  20.880  0.00  0.00    +0.000 N 
ATOM     11  O   UNL     1       3.302   2.325  21.818  0.00  0.00    +0.000 OA
ATOM     12  O   UNL     1       5.197   1.615  20.994  0.00  0.00    +0.000 OA
ENDBRANCH   5  10
BRANCH   1  13
ATOM     13  C   UNL     1       5.156   5.687  16.076  0.00  0.00    +0.000 C 
BRANCH  13  14
ATOM     14  C   UNL     1       6.248   4.991  15.271  0.00  0.00    +0.000 C 
BRANCH  14  15
ATOM     15  C   UNL     1       5.684   3.912  14.353  0.00  0.00    +0.000 C 
BRANCH  15  16
ATOM     16  C   UNL     1       6.669   3.612  13.224  0.00  0.00    +0.000 C 
BRANCH  16  17
ATOM     17  C   UNL     1       5.967   3.556  11.869  0.00  0.00    +0.000 C 
BRANCH  17  18
ATOM     18  C   UNL     1       5.428   2.153  11.596  0.00  0.00    +0.000 C 
BRANCH  18  20
ATOM     19  C   UNL     1       6.121  -0.238  11.239  0.00  0.00    +0.000 C 
ATOM     20  C   UNL     1       6.537   1.218  11.119  0.00  0.00    +0.000 C 
ENDBRANCH  18  20
ENDBRANCH  17  18
ENDBRANCH  16  17
ENDBRANCH  15  16
ENDBRANCH  14  15
ENDBRANCH  13  14
ENDBRANCH   1  13
TORSDOF 8
ENDMDL
MODEL 3
REMARK VINA RESULT:      -7.0      4.299      6.674
REMARK  Name = 
REMARK  9 active torsions:
REMARK  status: ('A' for Active; 'I' for Inactive)
REMARK    1  A    between atoms: C_1  and  C_2
REMARK    2  A    between atoms: C_2  and  C_3
REMARK    3  A    between atoms: C_3  and  C_4
REMARK    4  A    between atoms: C_4  and  C_5
REMARK    5  A    between atoms: C_5  and  C_6
REMARK    6  A    between atoms: C_6  and  C_7
REMARK    7  A    between atoms: C_7  and  C_8
REMARK    8  A    between atoms: C_8  and  N_9
REMARK    9  A    between atoms: C_13  and  N_14
REMARK                            x       y       z     vdW  Elec       q    Type
REMARK                         _______ _______ _______ _____ _____    ______ ____
ROOT
ATOM      1  N   UNL     1       4.758   3.413  18.845  0.00  0.00    +0.000 N 
ATOM      2  N   UNL     1       5.432   3.832  19.928  0.00  0.00    +0.000 NA
ATOM      3  N   UNL     1       6.205   4.840  19.550  0.00  0.00    +0.000 NA
ATOM      4  C   UNL     1       6.011   5.065  18.210  0.00  0.00    +0.000 A 
ATOM      5  C   UNL     1       6.526   6.006  17.306  0.00  0.00    +0.000 A 
ATOM      6  C   UNL     1       6.111   5.989  15.959  0.00  0.00    +0.000 A 
ATOM      7  C   UNL     1       5.202   5.028  15.517  0.00  0.00    +0.000 A 
ATOM      8  C   UNL     1       4.676   4.074  16.391  0.00  0.00    +0.000 A 
ATOM      9  C   UNL     1       5.096   4.129  17.727  0.00  0.00    +0.000 A 
ENDROOT
BRANCH   5  10
ATOM     10  N   UNL     1       7.475   7.008  17.770  0.00  0.00    +0.000 N 
ATOM     11  O   UNL     1       8.176   6.764  18.756  0.00  0.00    +0.000 OA
ATOM     12  O   UNL     1       7.523   8.074  17.133  0.00  0.00    +0.000 OA
ENDBRANCH   5  10
BRANCH   1  13
ATOM     13  C   UNL     1       3.713   2.418  18.976  0.00  0.00    +0.000 C 
BRANCH  13  14
ATOM     14  C   UNL     1       2.981   2.573  20.306  0.00  0.00    +0.000 C 
BRANCH  14  15
ATOM     15  C   UNL     1       1.506   2.904  20.112  0.00  0.00    +0.000 C 
BRANCH  15  16
ATOM     16  C   UNL     1       1.354   4.279  19.463  0.00  0.00    +0.000 C 
BRANCH  16  17
ATOM     17  C   UNL     1       1.788   5.396  20.409  0.00  0.00    +0.000 C 
BRANCH  17  18
ATOM     18  C   UNL     1       2.805   6.314  19.732  0.00  0.00    +0.000 C 
BRANCH  18  20
ATOM     19  C   UNL     1       2.253   8.000  17.950  0.00  0.00    +0.000 C 
ATOM     20  C   UNL     1       2.461   6.528  18.260  0.00  0.00    +0.000 C 
ENDBRANCH  18  20
ENDBRANCH  17  18
ENDBRANCH  16  17
ENDBRANCH  15  16
ENDBRANCH  14  15
ENDBRANCH  13  14
ENDBRANCH   1  13
TORSDOF 8
ENDMDL
MODEL 4
REMARK VINA RESULT:      -7.0      4.156      6.242
REMARK  Name = 
REMARK  9 active torsions:
REMARK  status: ('A' for Active; 'I' for Inactive)
REMARK    1  A    between atoms: C_1  and  C_2
REMARK    2  A    between atoms: C_2  and  C_3
REMARK    3  A    between atoms: C_3  and  C_4
REMARK    4  A    between atoms: C_4  and  C_5
REMARK    5  A    between atoms: C_5  and  C_6
REMARK    6  A    between atoms: C_6  and  C_7
REMARK    7  A    between atoms: C_7  and  C_8
REMARK    8  A    between atoms: C_8  and  N_9
REMARK    9  A    between atoms: C_13  and  N_14
REMARK                            x       y       z     vdW  Elec       q    Type
REMARK                         _______ _______ _______ _____ _____    ______ ____
ROOT
ATOM      1  N   UNL     1       5.681   4.502  17.893  0.00  0.00    +0.000 N 
ATOM      2  N   UNL     1       6.091   4.983  19.078  0.00  0.00    +0.000 NA
ATOM      3  N   UNL     1       5.044   4.986  19.891  0.00  0.00    +0.000 NA
ATOM      4  C   UNL     1       3.958   4.494  19.210  0.00  0.00    +0.000 A 
ATOM      5  C   UNL     1       2.626   4.244  19.573  0.00  0.00    +0.000 A 
ATOM      6  C   UNL     1       1.729   3.706  18.628  0.00  0.00    +0.000 A 
ATOM      7  C   UNL     1       2.156   3.438  17.327  0.00  0.00    +0.000 A 
ATOM      8  C   UNL     1       3.474   3.683  16.935  0.00  0.00    +0.000 A 
ATOM      9  C   UNL     1       4.345   4.200  17.902  0.00  0.00    +0.000 A 
ENDROOT
BRANCH   5  10
ATOM     10  N   UNL     1       2.183   4.524  20.931  0.00  0.00    +0.000 N 
ATOM     11  O   UNL     1       2.236   3.630  21.779  0.00  0.00    +0.000 OA
ATOM     12  O   UNL     1       1.769   5.673  21.161  0.00  0.00    +0.000 OA
ENDBRANCH   5  10
BRANCH   1  13
ATOM     13  C   UNL     1       6.643   4.233  16.844  0.00  0.00    +0.000 C 
BRANCH  13  14
ATOM     14  C   UNL     1       6.802   5.444  15.931  0.00  0.00    +0.000 C 
BRANCH  14  15
ATOM     15  C   UNL     1       5.887   5.368  14.714  0.00  0.00    +0.000 C 
BRANCH  15  16
ATOM     16  C   UNL     1       5.842   3.938  14.176  0.00  0.00    +0.000 C 
BRANCH  16  17
ATOM     17  C   UNL     1       6.596   3.813  12.855  0.00  0.00    +0.000 C 
BRANCH  17  18
ATOM     18  C   UNL     1       5.776   3.021  11.837  0.00  0.00    +0.000 C 
BRANCH  18  20
ATOM     19  C   UNL     1       3.608   3.260  10.586  0.00  0.00    +0.000 C 
ATOM     20  C   UNL     1       4.292   3.363  11.938  0.00  0.00    +0.000 C 
ENDBRANCH  18  20
ENDBRANCH  17  18
ENDBRANCH  16  17
ENDBRANCH  15  16
ENDBRANCH  14  15
ENDBRANCH  13  14
ENDBRANCH   1  13
TORSDOF 8
ENDMDL
MODEL 5
REMARK VINA RESULT:      -6.9      3.735      5.662
REMARK  Name = 
REMARK  9 active torsions:
REMARK  status: ('A' for Active; 'I' for Inactive)
REMARK    1  A    between atoms: C_1  and  C_2
REMARK    2  A    between atoms: C_2  and  C_3
REMARK    3  A    between atoms: C_3  and  C_4
REMARK    4  A    between atoms: C_4  and  C_5
REMARK    5  A    between atoms: C_5  and  C_6
REMARK    6  A    between atoms: C_6  and  C_7
REMARK    7  A    between atoms: C_7  and  C_8
REMARK    8  A    between atoms: C_8  and  N_9
REMARK    9  A    between atoms: C_13  and  N_14
REMARK                            x       y       z     vdW  Elec       q    Type
REMARK                         _______ _______ _______ _____ _____    ______ ____
ROOT
ATOM      1  N   UNL     1       5.243   5.252  18.641  0.00  0.00    +0.000 N 
ATOM      2  N   UNL     1       5.677   3.996  18.835  0.00  0.00    +0.000 NA
ATOM      3  N   UNL     1       4.765   3.367  19.563  0.00  0.00    +0.000 NA
ATOM      4  C   UNL     1       3.738   4.239  19.829  0.00  0.00    +0.000 A 
ATOM      5  C   UNL     1       2.519   4.112  20.512  0.00  0.00    +0.000 A 
ATOM      6  C   UNL     1       1.645   5.214  20.603  0.00  0.00    +0.000 A 
ATOM      7  C   UNL     1       1.996   6.437  20.032  0.00  0.00    +0.000 A 
ATOM      8  C   UNL     1       3.205   6.596  19.351  0.00  0.00    +0.000 A 
ATOM      9  C   UNL     1       4.043   5.477  19.262  0.00  0.00    +0.000 A 
ENDROOT
BRANCH   5  10
ATOM     10  N   UNL     1       2.156   2.834  21.108  0.00  0.00    +0.000 N 
ATOM     11  O   UNL     1       1.684   1.947  20.392  0.00  0.00    +0.000 OA
ATOM     12  O   UNL     1       2.347   2.709  22.330  0.00  0.00    +0.000 OA
ENDBRANCH   5  10
BRANCH   1  13
ATOM     13  C   UNL     1       5.956   6.140  17.746  0.00  0.00    +0.000 C 
BRANCH  13  14
ATOM     14  C   UNL     1       5.046   6.617  16.618  0.00  0.00    +0.000 C 
BRANCH  14  15
ATOM     15  C   UNL     1       5.325   5.887  15.309  0.00  0.00    +0.000 C 
BRANCH  15  16
ATOM     16  C   UNL     1       6.515   4.943  15.475  0.00  0.00    +0.000 C 
BRANCH  16  17
ATOM     17  C   UNL     1       6.572   3.910  14.352  0.00  0.00    +0.000 C 
BRANCH  17  18
ATOM     18  C   UNL     1       5.399   4.092  13.390  0.00  0.00    +0.000 C 
BRANCH  18  20
ATOM     19  C   UNL     1       4.291   3.174  11.328  0.00  0.00    +0.000 C 
ATOM     20  C   UNL     1       5.574   3.235  12.138  0.00  0.00    +0.000 C 
ENDBRANCH  18  20
ENDBRANCH  17  18
ENDBRANCH  16  17
ENDBRANCH  15  16
ENDBRANCH  14  15
ENDBRANCH  13  14
ENDBRANCH   1  13
TORSDOF 8
ENDMDL
MODEL 6
REMARK VINA RESULT:      -6.8      4.168      6.708
REMARK  Name = 
REMARK  9 active torsions:
REMARK  status: ('A' for Active; 'I' for Inactive)
REMARK    1  A    between atoms: C_1  and  C_2
REMARK    2  A    between atoms: C_2  and  C_3
REMARK    3  A    between atoms: C_3  and  C_4
REMARK    4  A    between atoms: C_4  and  C_5
REMARK    5  A    between atoms: C_5  and  C_6
REMARK    6  A    between atoms: C_6  and  C_7
REMARK    7  A    between atoms: C_7  and  C_8
REMARK    8  A    between atoms: C_8  and  N_9
REMARK    9  A    between atoms: C_13  and  N_14
REMARK                            x       y       z     vdW  Elec       q    Type
REMARK                         _______ _______ _______ _____ _____    ______ ____
ROOT
ATOM      1  N   UNL     1       4.292   3.445  18.671  0.00  0.00    +0.000 N 
ATOM      2  N   UNL     1       3.858   2.894  17.526  0.00  0.00    +0.000 NA
ATOM      3  N   UNL     1       4.592   3.390  16.541  0.00  0.00    +0.000 NA
ATOM      4  C   UNL     1       5.508   4.264  17.074  0.00  0.00    +0.000 A 
ATOM      5  C   UNL     1       6.539   5.036  16.518  0.00  0.00    +0.000 A 
ATOM      6  C   UNL     1       7.340   5.844  17.350  0.00  0.00    +0.000 A 
ATOM      7  C   UNL     1       7.099   5.893  18.724  0.00  0.00    +0.000 A 
ATOM      8  C   UNL     1       6.076   5.141  19.305  0.00  0.00    +0.000 A 
ATOM      9  C   UNL     1       5.310   4.334  18.453  0.00  0.00    +0.000 A 
ENDROOT
BRANCH   5  10
ATOM     10  N   UNL     1       6.789   4.983  15.085  0.00  0.00    +0.000 N 
ATOM     11  O   UNL     1       6.006   4.363  14.359  0.00  0.00    +0.000 OA
ATOM     12  O   UNL     1       7.797   5.578  14.668  0.00  0.00    +0.000 OA
ENDBRANCH   5  10
BRANCH   1  13
ATOM     13  C   UNL     1       3.782   2.977  19.944  0.00  0.00    +0.000 C 
BRANCH  13  14
ATOM     14  C   UNL     1       2.369   2.423  19.791  0.00  0.00    +0.000 C 
BRANCH  14  15
ATOM     15  C   UNL     1       1.315   3.381  20.337  0.00  0.00    +0.000 C 
BRANCH  15  16
ATOM     16  C   UNL     1       1.987   4.535  21.080  0.00  0.00    +0.000 C 
BRANCH  16  17
ATOM     17  C   UNL     1       1.530   5.889  20.543  0.00  0.00    +0.000 C 
BRANCH  17  18
ATOM     18  C   UNL     1       2.667   6.590  19.802  0.00  0.00    +0.000 C 
BRANCH  18  20
ATOM     19  C   UNL     1       3.461   7.406  17.560  0.00  0.00    +0.000 C 
ATOM     20  C   UNL     1       2.465   6.523  18.290  0.00  0.00    +0.000 C 
ENDBRANCH  18  20
ENDBRANCH  17  18
ENDBRANCH  16  17
ENDBRANCH  15  16
ENDBRANCH  14  15
ENDBRANCH  13  14
ENDBRANCH   1  13
TORSDOF 8
ENDMDL
MODEL 7
REMARK VINA RESULT:      -6.8      4.231      6.934
REMARK  Name = 
REMARK  9 active torsions:
REMARK  status: ('A' for Active; 'I' for Inactive)
REMARK    1  A    between atoms: C_1  and  C_2
REMARK    2  A    between atoms: C_2  and  C_3
REMARK    3  A    between atoms: C_3  and  C_4
REMARK    4  A    between atoms: C_4  and  C_5
REMARK    5  A    between atoms: C_5  and  C_6
REMARK    6  A    between atoms: C_6  and  C_7
REMARK    7  A    between atoms: C_7  and  C_8
REMARK    8  A    between atoms: C_8  and  N_9
REMARK    9  A    between atoms: C_13  and  N_14
REMARK                            x       y       z     vdW  Elec       q    Type
REMARK                         _______ _______ _______ _____ _____    ______ ____
ROOT
ATOM      1  N   UNL     1       4.121   3.214  18.048  0.00  0.00    +0.000 N 
ATOM      2  N   UNL     1       4.609   3.030  19.286  0.00  0.00    +0.000 NA
ATOM      3  N   UNL     1       5.650   3.839  19.428  0.00  0.00    +0.000 NA
ATOM      4  C   UNL     1       5.817   4.548  18.264  0.00  0.00    +0.000 A 
ATOM      5  C   UNL     1       6.717   5.548  17.866  0.00  0.00    +0.000 A 
ATOM      6  C   UNL     1       6.622   6.107  16.576  0.00  0.00    +0.000 A 
ATOM      7  C   UNL     1       5.648   5.656  15.685  0.00  0.00    +0.000 A 
ATOM      8  C   UNL     1       4.742   4.658  16.050  0.00  0.00    +0.000 A 
ATOM      9  C   UNL     1       4.851   4.136  17.346  0.00  0.00    +0.000 A 
ENDROOT
BRANCH   5  10
ATOM     10  N   UNL     1       7.733   6.017  18.798  0.00  0.00    +0.000 N 
ATOM     11  O   UNL     1       8.239   7.129  18.629  0.00  0.00    +0.000 OA
ATOM     12  O   UNL     1       8.038   5.251  19.728  0.00  0.00    +0.000 OA
ENDBRANCH   5  10
BRANCH   1  13
ATOM     13  C   UNL     1       2.881   2.578  17.652  0.00  0.00    +0.000 C 
BRANCH  13  14
ATOM     14  C   UNL     1       2.189   1.945  18.855  0.00  0.00    +0.000 C 
BRANCH  14  15
ATOM     15  C   UNL     1       1.070   2.826  19.400  0.00  0.00    +0.000 C 
BRANCH  15  16
ATOM     16  C   UNL     1       1.223   2.997  20.911  0.00  0.00    +0.000 C 
BRANCH  16  17
ATOM     17  C   UNL     1       2.079   4.215  21.252  0.00  0.00    +0.000 C 
BRANCH  17  18
ATOM     18  C   UNL     1       1.953   5.286  20.170  0.00  0.00    +0.000 C 
BRANCH  18  20
ATOM     19  C   UNL     1       1.938   7.783  19.877  0.00  0.00    +0.000 C 
ATOM     20  C   UNL     1       1.519   6.623  20.764  0.00  0.00    +0.000 C 
ENDBRANCH  18  20
ENDBRANCH  17  18
ENDBRANCH  16  17
ENDBRANCH  15  16
ENDBRANCH  14  15
ENDBRANCH  13  14
ENDBRANCH   1  13
TORSDOF 8
ENDMDL
MODEL 8
REMARK VINA RESULT:      -6.8      4.079      6.750
REMARK  Name = 
REMARK  9 active torsions:
REMARK  status: ('A' for Active; 'I' for Inactive)
REMARK    1  A    between atoms: C_1  and  C_2
REMARK    2  A    between atoms: C_2  and  C_3
REMARK    3  A    between atoms: C_3  and  C_4
REMARK    4  A    between atoms: C_4  and  C_5
REMARK    5  A    between atoms: C_5  and  C_6
REMARK    6  A    between atoms: C_6  and  C_7
REMARK    7  A    between atoms: C_7  and  C_8
REMARK    8  A    between atoms: C_8  and  N_9
REMARK    9  A    between atoms: C_13  and  N_14
REMARK                            x       y       z     vdW  Elec       q    Type
REMARK                         _______ _______ _______ _____ _____    ______ ____
ROOT
ATOM      1  N   UNL     1       4.743   3.334  18.808  0.00  0.00    +0.000 N 
ATOM      2  N   UNL     1       4.197   2.910  17.657  0.00  0.00    +0.000 NA
ATOM      3  N   UNL     1       4.749   3.608  16.674  0.00  0.00    +0.000 NA
ATOM      4  C   UNL     1       5.661   4.482  17.213  0.00  0.00    +0.000 A 
ATOM      5  C   UNL     1       6.543   5.419  16.656  0.00  0.00    +0.000 A 
ATOM      6  C   UNL     1       7.388   6.175  17.493  0.00  0.00    +0.000 A 
ATOM      7  C   UNL     1       7.337   6.008  18.877  0.00  0.00    +0.000 A 
ATOM      8  C   UNL     1       6.464   5.087  19.462  0.00  0.00    +0.000 A 
ATOM      9  C   UNL     1       5.651   4.339  18.601  0.00  0.00    +0.000 A 
ENDROOT
BRANCH   5  10
ATOM     10  N   UNL     1       6.595   5.591  15.211  0.00  0.00    +0.000 N 
ATOM     11  O   UNL     1       7.577   5.179  14.589  0.00  0.00    +0.000 OA
ATOM     12  O   UNL     1       5.625   6.156  14.678  0.00  0.00    +0.000 OA
ENDBRANCH   5  10
BRANCH   1  13
ATOM     13  C   UNL     1       4.451   2.647  20.050  0.00  0.00    +0.000 C 
BRANCH  13  14
ATOM     14  C   UNL     1       2.946   2.484  20.237  0.00  0.00    +0.000 C 
BRANCH  14  15
ATOM     15  C   UNL     1       2.386   3.468  21.259  0.00  0.00    +0.000 C 
BRANCH  15  16
ATOM     16  C   UNL     1       2.012   4.782  20.576  0.00  0.00    +0.000 C 
BRANCH  16  17
ATOM     17  C   UNL     1       1.355   4.541  19.220  0.00  0.00    +0.000 C 
BRANCH  17  18
ATOM     18  C   UNL     1       1.923   5.492  18.167  0.00  0.00    +0.000 C 
BRANCH  18  20
ATOM     19  C   UNL     1       3.493   7.412  17.753  0.00  0.00    +0.000 C 
ATOM     20  C   UNL     1       2.804   6.561  18.806  0.00  0.00    +0.000 C 
ENDBRANCH  18  20
ENDBRANCH  17  18
ENDBRANCH  16  17
ENDBRANCH  15  16
ENDBRANCH  14  15
ENDBRANCH  13  14
ENDBRANCH   1  13
TORSDOF 8
ENDMDL
MODEL 9
REMARK VINA RESULT:      -6.8      4.374      7.372
REMARK  Name = 
REMARK  9 active torsions:
REMARK  status: ('A' for Active; 'I' for Inactive)
REMARK    1  A    between atoms: C_1  and  C_2
REMARK    2  A    between atoms: C_2  and  C_3
REMARK    3  A    between atoms: C_3  and  C_4
REMARK    4  A    between atoms: C_4  and  C_5
REMARK    5  A    between atoms: C_5  and  C_6
REMARK    6  A    between atoms: C_6  and  C_7
REMARK    7  A    between atoms: C_7  and  C_8
REMARK    8  A    between atoms: C_8  and  N_9
REMARK    9  A    between atoms: C_13  and  N_14
REMARK                            x       y       z     vdW  Elec       q    Type
REMARK                         _______ _______ _______ _____ _____    ______ ____
ROOT
ATOM      1  N   UNL     1       3.574   5.618  19.403  0.00  0.00    +0.000 N 
ATOM      2  N   UNL     1       4.257   4.730  20.143  0.00  0.00    +0.000 NA
ATOM      3  N   UNL     1       5.389   4.467  19.506  0.00  0.00    +0.000 NA
ATOM      4  C   UNL     1       5.423   5.205  18.348  0.00  0.00    +0.000 A 
ATOM      5  C   UNL     1       6.372   5.349  17.325  0.00  0.00    +0.000 A 
ATOM      6  C   UNL     1       6.117   6.219  16.246  0.00  0.00    +0.000 A 
ATOM      7  C   UNL     1       4.914   6.924  16.181  0.00  0.00    +0.000 A 
ATOM      8  C   UNL     1       3.947   6.796  17.182  0.00  0.00    +0.000 A 
ATOM      9  C   UNL     1       4.240   5.938  18.250  0.00  0.00    +0.000 A 
ENDROOT
BRANCH   5  10
ATOM     10  N   UNL     1       7.626   4.612  17.395  0.00  0.00    +0.000 N 
ATOM     11  O   UNL     1       8.211   4.519  18.477  0.00  0.00    +0.000 OA
ATOM     12  O   UNL     1       8.042   4.111  16.337  0.00  0.00    +0.000 OA
ENDBRANCH   5  10
BRANCH   1  13
ATOM     13  C   UNL     1       2.360   6.217  19.920  0.00  0.00    +0.000 C 
BRANCH  13  14
ATOM     14  C   UNL     1       1.743   5.341  21.005  0.00  0.00    +0.000 C 
BRANCH  14  15
ATOM     15  C   UNL     1       0.766   4.320  20.431  0.00  0.00    +0.000 C 
BRANCH  15  16
ATOM     16  C   UNL     1       1.261   2.902  20.708  0.00  0.00    +0.000 C 
BRANCH  16  17
ATOM     17  C   UNL     1       1.352   2.079  19.425  0.00  0.00    +0.000 C 
BRANCH  17  18
ATOM     18  C   UNL     1       1.376   2.990  18.198  0.00  0.00    +0.000 C 
BRANCH  18  20
ATOM     19  C   UNL     1       3.551   1.740  18.021  0.00  0.00    +0.000 C 
ATOM     20  C   UNL     1       2.657   2.795  17.392  0.00  0.00    +0.000 C 
ENDBRANCH  18  20
ENDBRANCH  17  18
ENDBRANCH  16  17
ENDBRANCH  15  16
ENDBRANCH  14  15
ENDBRANCH  13  14
ENDBRANCH   1  13
TORSDOF 8
ENDMDL
