MODEL 1
REMARK VINA RESULT:      -7.9      0.000      0.000
REMARK  Name = 
REMARK  6 active torsions:
REMARK  status: ('A' for Active; 'I' for Inactive)
REMARK    1  A    between atoms: N_3  and  C_4
REMARK    2  A    between atoms: C_4  and  C_5
REMARK    3  A    between atoms: C_5  and  C_6
REMARK    4  A    between atoms: N_9  and  C_10
REMARK    5  A    between atoms: C_10  and  C_11
REMARK    6  A    between atoms: N_25  and  C_26
REMARK                            x       y       z     vdW  Elec       q    Type
REMARK                         _______ _______ _______ _____ _____    ______ ____
ROOT
ATOM      1  C   UNL     1      -0.543  10.173  20.007  0.00  0.00    +0.000 C 
ATOM      2  C   UNL     1      -1.387  10.709  18.838  0.00  0.00    +0.000 C 
ATOM      3  C   UNL     1      -0.855  12.042  18.294  0.00  0.00    +0.000 C 
ATOM      4  N   UNL     1      -0.732  13.045  19.368  0.00  0.00    +0.000 NA
ATOM      5  C   UNL     1       0.166  12.573  20.427  0.00  0.00    +0.000 C 
ATOM      6  C   UNL     1      -0.385  11.290  21.045  0.00  0.00    +0.000 C 
ENDROOT
BRANCH   1   7
ATOM      7  C   UNL     1       0.795   9.626  19.474  0.00  0.00    +0.000 C 
BRANCH   7   8
ATOM      8  C   UNL     1       1.480   8.623  20.389  0.00  0.00    +0.000 C 
BRANCH   8  11
ATOM      9  O   UNL     1       1.462   5.742  20.792  0.00  0.00    +0.000 OA
ATOM     10  C   UNL     1       2.072   6.234  19.856  0.00  0.00    +0.000 C 
ATOM     11  N   UNL     1       2.194   7.616  19.631  0.00  0.00    +0.000 N 
ATOM     12  C   UNL     1       2.694   7.848  18.299  0.00  0.00    +0.000 C 
ATOM     13  C   UNL     1       3.469   6.577  18.013  0.00  0.00    +0.000 C 
ATOM     14  N   UNL     1       2.795   5.587  18.827  0.00  0.00    +0.000 N 
BRANCH  14  15
ATOM     15  C   UNL     1       3.018   4.197  18.701  0.00  0.00    +0.000 A 
ATOM     16  C   UNL     1       3.864   3.511  19.580  0.00  0.00    +0.000 A 
ATOM     17  C   UNL     1       4.102   2.141  19.429  0.00  0.00    +0.000 A 
ATOM     18  C   UNL     1       3.504   1.439  18.388  0.00  0.00    +0.000 A 
ATOM     19  C   UNL     1       2.648   2.099  17.513  0.00  0.00    +0.000 A 
ATOM     20  C   UNL     1       2.398   3.466  17.675  0.00  0.00    +0.000 A 
ENDBRANCH  14  15
ENDBRANCH   8  11
ENDBRANCH   7   8
ENDBRANCH   1   7
BRANCH   4  21
ATOM     21  C   UNL     1      -0.317  14.341  18.801  0.00  0.00    +0.000 C 
BRANCH  21  22
ATOM     22  C   UNL     1      -0.119  15.500  19.815  0.00  0.00    +0.000 C 
ATOM     23  C   UNL     1      -1.314  16.447  19.955  0.00  0.00    +0.000 C 
ATOM     24  O   UNL     1      -1.523  17.312  18.836  0.00  0.00    +0.000 OA
ATOM     25  C   UNL     1      -0.388  17.591  18.130  0.00  0.00    +0.000 A 
ATOM     26  C   UNL     1      -0.542  18.395  17.003  0.00  0.00    +0.000 A 
ATOM     27  C   UNL     1       0.546  18.626  16.159  0.00  0.00    +0.000 A 
ATOM     28  C   UNL     1       1.795  18.083  16.461  0.00  0.00    +0.000 A 
ATOM     29  C   UNL     1       1.963  17.320  17.616  0.00  0.00    +0.000 A 
ATOM     30  C   UNL     1       0.866  17.063  18.435  0.00  0.00    +0.000 A 
ATOM     31  O   UNL     1       1.081  16.224  19.493  0.00  0.00    +0.000 OA
ENDBRANCH  21  22
ENDBRANCH   4  21
TORSDOF 6
ENDMDL
MODEL 2
REMARK VINA RESULT:      -7.9      3.474     10.412
REMARK  Name = 
REMARK  6 active torsions:
REMARK  status: ('A' for Active; 'I' for Inactive)
REMARK    1  A    between atoms: N_3  and  C_4
REMARK    2  A    between atoms: C_4  and  C_5
REMARK    3  A    between atoms: C_5  and  C_6
REMARK    4  A    between atoms: N_9  and  C_10
REMARK    5  A    between atoms: C_10  and  C_11
REMARK    6  A    between atoms: N_25  and  C_26
REMARK                            x       y       z     vdW  Elec       q    Type
REMARK                         _______ _______ _______ _____ _____    ______ ____
ROOT
ATOM      1  C   UNL     1       0.211  10.305  19.173  0.00  0.00    +0.000 C 
ATOM      2  C   UNL     1       0.106   9.282  20.317  0.00  0.00    +0.000 C 
ATOM      3  C   UNL     1       1.387   8.453  20.481  0.00  0.00    +0.000 C 
ATOM      4  N   UNL     1       1.767   7.800  19.215  0.00  0.00    +0.000 NA
ATOM      5  C   UNL     1       1.976   8.792  18.154  0.00  0.00    +0.000 C 
ATOM      6  C   UNL     1       0.688   9.576  17.911  0.00  0.00    +0.000 C 
ENDROOT
BRANCH   1   7
ATOM      7  C   UNL     1       1.122  11.471  19.599  0.00  0.00    +0.000 C 
BRANCH   7   8
ATOM      8  C   UNL     1       0.798  12.065  20.961  0.00  0.00    +0.000 C 
BRANCH   8  11
ATOM      9  O   UNL     1      -1.189  11.323  22.952  0.00  0.00    +0.000 OA
ATOM     10  C   UNL     1      -1.458  12.133  22.079  0.00  0.00    +0.000 C 
ATOM     11  N   UNL     1      -0.586  12.491  21.037  0.00  0.00    +0.000 N 
ATOM     12  C   UNL     1      -1.076  13.676  20.379  0.00  0.00    +0.000 C 
ATOM     13  C   UNL     1      -2.568  13.600  20.637  0.00  0.00    +0.000 C 
ATOM     14  N   UNL     1      -2.653  12.862  21.879  0.00  0.00    +0.000 N 
BRANCH  14  15
ATOM     15  C   UNL     1      -3.841  12.755  22.638  0.00  0.00    +0.000 A 
ATOM     16  C   UNL     1      -5.100  12.932  22.051  0.00  0.00    +0.000 A 
ATOM     17  C   UNL     1      -6.269  12.854  22.815  0.00  0.00    +0.000 A 
ATOM     18  C   UNL     1      -6.194  12.606  24.182  0.00  0.00    +0.000 A 
ATOM     19  C   UNL     1      -4.954  12.413  24.781  0.00  0.00    +0.000 A 
ATOM     20  C   UNL     1      -3.787  12.475  24.012  0.00  0.00    +0.000 A 
ENDBRANCH  14  15
ENDBRANCH   8  11
ENDBRANCH   7   8
ENDBRANCH   1   7
BRANCH   4  21
ATOM     21  C   UNL     1       2.940   6.933  19.427  0.00  0.00    +0.000 C 
BRANCH  21  22
ATOM     22  C   UNL     1       3.132   5.780  18.404  0.00  0.00    +0.000 C 
ATOM     23  C   UNL     1       3.616   4.458  19.005  0.00  0.00    +0.000 C 
ATOM     24  O   UNL     1       4.981   4.460  19.430  0.00  0.00    +0.000 OA
ATOM     25  C   UNL     1       5.772   5.341  18.750  0.00  0.00    +0.000 A 
ATOM     26  C   UNL     1       7.104   5.416  19.154  0.00  0.00    +0.000 A 
ATOM     27  C   UNL     1       7.948   6.378  18.595  0.00  0.00    +0.000 A 
ATOM     28  C   UNL     1       7.470   7.239  17.607  0.00  0.00    +0.000 A 
ATOM     29  C   UNL     1       6.152   7.132  17.166  0.00  0.00    +0.000 A 
ATOM     30  C   UNL     1       5.305   6.196  17.752  0.00  0.00    +0.000 A 
ATOM     31  O   UNL     1       4.000   6.216  17.344  0.00  0.00    +0.000 OA
ENDBRANCH  21  22
ENDBRANCH   4  21
TORSDOF 6
ENDMDL
MODEL 3
REMARK VINA RESULT:      -7.8      7.112     12.306
REMARK  Name = 
REMARK  6 active torsions:
REMARK  status: ('A' for Active; 'I' for Inactive)
REMARK    1  A    between atoms: N_3  and  C_4
REMARK    2  A    between atoms: C_4  and  C_5
REMARK    3  A    between atoms: C_5  and  C_6
REMARK    4  A    between atoms: N_9  and  C_10
REMARK    5  A    between atoms: C_10  and  C_11
REMARK    6  A    between atoms: N_25  and  C_26
REMARK                            x       y       z     vdW  Elec       q    Type
REMARK                         _______ _______ _______ _____ _____    ______ ____
ROOT
ATOM      1  C   UNL     1       8.034   7.077  17.790  0.00  0.00    +0.000 C 
ATOM      2  C   UNL     1       7.282   6.724  16.496  0.00  0.00    +0.000 C 
ATOM      3  C   UNL     1       5.806   6.387  16.749  0.00  0.00    +0.000 C 
ATOM      4  N   UNL     1       5.667   5.318  17.755  0.00  0.00    +0.000 NA
ATOM      5  C   UNL     1       6.290   5.708  19.025  0.00  0.00    +0.000 C 
ATOM      6  C   UNL     1       7.780   5.967  18.818  0.00  0.00    +0.000 C 
ENDROOT
BRANCH   1   7
ATOM      7  C   UNL     1       7.613   8.478  18.272  0.00  0.00    +0.000 C 
BRANCH   7   8
ATOM      8  C   UNL     1       8.243   9.629  17.504  0.00  0.00    +0.000 C 
BRANCH   8  11
ATOM      9  O   UNL     1       8.471  12.523  17.313  0.00  0.00    +0.000 OA
ATOM     10  C   UNL     1       8.963  11.923  18.256  0.00  0.00    +0.000 C 
ATOM     11  N   UNL     1       8.964  10.524  18.388  0.00  0.00    +0.000 N 
ATOM     12  C   UNL     1       9.332  10.163  19.734  0.00  0.00    +0.000 C 
ATOM     13  C   UNL     1      10.172  11.347  20.172  0.00  0.00    +0.000 C 
ATOM     14  N   UNL     1       9.643  12.439  19.383  0.00  0.00    +0.000 N 
BRANCH  14  15
ATOM     15  C   UNL     1       9.956  13.796  19.628  0.00  0.00    +0.000 A 
ATOM     16  C   UNL     1       8.954  14.745  19.864  0.00  0.00    +0.000 A 
ATOM     17  C   UNL     1       9.270  16.091  20.075  0.00  0.00    +0.000 A 
ATOM     18  C   UNL     1      10.597  16.509  20.045  0.00  0.00    +0.000 A 
ATOM     19  C   UNL     1      11.609  15.578  19.828  0.00  0.00    +0.000 A 
ATOM     20  C   UNL     1      11.291  14.231  19.632  0.00  0.00    +0.000 A 
ENDBRANCH  14  15
ENDBRANCH   8  11
ENDBRANCH   7   8
ENDBRANCH   1   7
BRANCH   4  21
ATOM     21  C   UNL     1       4.248   4.947  17.903  0.00  0.00    +0.000 C 
BRANCH  21  22
ATOM     22  C   UNL     1       3.869   3.507  17.464  0.00  0.00    +0.000 C 
ATOM     23  C   UNL     1       2.459   3.359  16.885  0.00  0.00    +0.000 C 
ATOM     24  O   UNL     1       1.406   3.463  17.847  0.00  0.00    +0.000 OA
ATOM     25  C   UNL     1       1.771   3.098  19.112  0.00  0.00    +0.000 A 
ATOM     26  C   UNL     1       0.795   3.222  20.098  0.00  0.00    +0.000 A 
ATOM     27  C   UNL     1       1.123   2.988  21.435  0.00  0.00    +0.000 A 
ATOM     28  C   UNL     1       2.416   2.594  21.781  0.00  0.00    +0.000 A 
ATOM     29  C   UNL     1       3.380   2.420  20.790  0.00  0.00    +0.000 A 
ATOM     30  C   UNL     1       3.058   2.690  19.462  0.00  0.00    +0.000 A 
ATOM     31  O   UNL     1       4.079   2.598  18.557  0.00  0.00    +0.000 OA
ENDBRANCH  21  22
ENDBRANCH   4  21
TORSDOF 6
ENDMDL
MODEL 4
REMARK VINA RESULT:      -7.7      3.841     11.318
REMARK  Name = 
REMARK  6 active torsions:
REMARK  status: ('A' for Active; 'I' for Inactive)
REMARK    1  A    between atoms: N_3  and  C_4
REMARK    2  A    between atoms: C_4  and  C_5
REMARK    3  A    between atoms: C_5  and  C_6
REMARK    4  A    between atoms: N_9  and  C_10
REMARK    5  A    between atoms: C_10  and  C_11
REMARK    6  A    between atoms: N_25  and  C_26
REMARK                            x       y       z     vdW  Elec       q    Type
REMARK                         _______ _______ _______ _____ _____    ______ ____
ROOT
ATOM      1  C   UNL     1       0.653  10.809  20.366  0.00  0.00    +0.000 C 
ATOM      2  C   UNL     1       1.349  10.950  19.001  0.00  0.00    +0.000 C 
ATOM      3  C   UNL     1       1.430   9.617  18.245  0.00  0.00    +0.000 C 
ATOM      4  N   UNL     1       2.072   8.575  19.066  0.00  0.00    +0.000 NA
ATOM      5  C   UNL     1       1.337   8.366  20.319  0.00  0.00    +0.000 C 
ATOM      6  C   UNL     1       1.314   9.658  21.132  0.00  0.00    +0.000 C 
ENDROOT
BRANCH   1   7
ATOM      7  C   UNL     1      -0.863  10.630  20.161  0.00  0.00    +0.000 C 
BRANCH   7   8
ATOM      8  C   UNL     1      -1.632  11.924  19.949  0.00  0.00    +0.000 C 
BRANCH   8  11
ATOM      9  O   UNL     1      -4.315  13.017  20.212  0.00  0.00    +0.000 OA
ATOM     10  C   UNL     1      -3.633  12.801  21.202  0.00  0.00    +0.000 C 
ATOM     11  N   UNL     1      -2.305  12.346  21.161  0.00  0.00    +0.000 N 
ATOM     12  C   UNL     1      -1.905  11.899  22.472  0.00  0.00    +0.000 C 
ATOM     13  C   UNL     1      -2.799  12.716  23.384  0.00  0.00    +0.000 C 
ATOM     14  N   UNL     1      -3.967  12.966  22.566  0.00  0.00    +0.000 N 
BRANCH  14  15
ATOM     15  C   UNL     1      -5.177  13.487  23.079  0.00  0.00    +0.000 A 
ATOM     16  C   UNL     1      -6.284  12.664  23.317  0.00  0.00    +0.000 A 
ATOM     17  C   UNL     1      -7.486  13.194  23.796  0.00  0.00    +0.000 A 
ATOM     18  C   UNL     1      -7.601  14.559  24.037  0.00  0.00    +0.000 A 
ATOM     19  C   UNL     1      -6.508  15.392  23.821  0.00  0.00    +0.000 A 
ATOM     20  C   UNL     1      -5.301  14.858  23.357  0.00  0.00    +0.000 A 
ENDBRANCH  14  15
ENDBRANCH   8  11
ENDBRANCH   7   8
ENDBRANCH   1   7
BRANCH   4  21
ATOM     21  C   UNL     1       2.227   7.337  18.280  0.00  0.00    +0.000 C 
BRANCH  21  22
ATOM     22  C   UNL     1       3.534   6.534  18.520  0.00  0.00    +0.000 C 
ATOM     23  C   UNL     1       3.933   5.595  17.378  0.00  0.00    +0.000 C 
ATOM     24  O   UNL     1       3.110   4.433  17.246  0.00  0.00    +0.000 OA
ATOM     25  C   UNL     1       2.522   4.034  18.412  0.00  0.00    +0.000 A 
ATOM     26  C   UNL     1       1.673   2.932  18.333  0.00  0.00    +0.000 A 
ATOM     27  C   UNL     1       0.938   2.537  19.453  0.00  0.00    +0.000 A 
ATOM     28  C   UNL     1       1.080   3.221  20.660  0.00  0.00    +0.000 A 
ATOM     29  C   UNL     1       1.967   4.292  20.755  0.00  0.00    +0.000 A 
ATOM     30  C   UNL     1       2.670   4.705  19.626  0.00  0.00    +0.000 A 
ATOM     31  O   UNL     1       3.442   5.824  19.766  0.00  0.00    +0.000 OA
ENDBRANCH  21  22
ENDBRANCH   4  21
TORSDOF 6
ENDMDL
MODEL 5
REMARK VINA RESULT:      -7.7      3.753      5.827
REMARK  Name = 
REMARK  6 active torsions:
REMARK  status: ('A' for Active; 'I' for Inactive)
REMARK    1  A    between atoms: N_3  and  C_4
REMARK    2  A    between atoms: C_4  and  C_5
REMARK    3  A    between atoms: C_5  and  C_6
REMARK    4  A    between atoms: N_9  and  C_10
REMARK    5  A    between atoms: C_10  and  C_11
REMARK    6  A    between atoms: N_25  and  C_26
REMARK                            x       y       z     vdW  Elec       q    Type
REMARK                         _______ _______ _______ _____ _____    ______ ____
ROOT
ATOM      1  C   UNL     1       2.437   5.456  19.190  0.00  0.00    +0.000 C 
ATOM      2  C   UNL     1       2.201   6.693  18.305  0.00  0.00    +0.000 C 
ATOM      3  C   UNL     1       2.254   8.002  19.103  0.00  0.00    +0.000 C 
ATOM      4  N   UNL     1       1.316   7.974  20.240  0.00  0.00    +0.000 NA
ATOM      5  C   UNL     1       1.617   6.856  21.141  0.00  0.00    +0.000 C 
ATOM      6  C   UNL     1       1.489   5.532  20.393  0.00  0.00    +0.000 C 
ENDROOT
BRANCH   1   7
ATOM      7  C   UNL     1       3.925   5.368  19.576  0.00  0.00    +0.000 C 
BRANCH   7   8
ATOM      8  C   UNL     1       4.589   4.042  19.244  0.00  0.00    +0.000 C 
BRANCH   8  11
ATOM      9  O   UNL     1       4.169   3.745  16.381  0.00  0.00    +0.000 OA
ATOM     10  C   UNL     1       5.256   4.092  16.816  0.00  0.00    +0.000 C 
ATOM     11  N   UNL     1       5.565   4.188  18.183  0.00  0.00    +0.000 N 
ATOM     12  C   UNL     1       6.799   4.914  18.352  0.00  0.00    +0.000 C 
ATOM     13  C   UNL     1       7.513   4.655  17.039  0.00  0.00    +0.000 C 
ATOM     14  N   UNL     1       6.427   4.444  16.106  0.00  0.00    +0.000 N 
BRANCH  14  15
ATOM     15  C   UNL     1       6.605   4.406  14.704  0.00  0.00    +0.000 A 
ATOM     16  C   UNL     1       5.844   3.554  13.895  0.00  0.00    +0.000 A 
ATOM     17  C   UNL     1       6.048   3.501  12.512  0.00  0.00    +0.000 A 
ATOM     18  C   UNL     1       7.024   4.296  11.920  0.00  0.00    +0.000 A 
ATOM     19  C   UNL     1       7.780   5.161  12.705  0.00  0.00    +0.000 A 
ATOM     20  C   UNL     1       7.564   5.223  14.085  0.00  0.00    +0.000 A 
ENDBRANCH  14  15
ENDBRANCH   8  11
ENDBRANCH   7   8
ENDBRANCH   1   7
BRANCH   4  21
ATOM     21  C   UNL     1       1.315   9.279  20.926  0.00  0.00    +0.000 C 
BRANCH  21  22
ATOM     22  C   UNL     1       0.059  10.166  20.707  0.00  0.00    +0.000 C 
ATOM     23  C   UNL     1      -0.448  10.221  19.263  0.00  0.00    +0.000 C 
ATOM     24  O   UNL     1       0.377  10.973  18.370  0.00  0.00    +0.000 OA
ATOM     25  C   UNL     1       1.101  11.958  18.979  0.00  0.00    +0.000 A 
ATOM     26  C   UNL     1       1.956  12.694  18.161  0.00  0.00    +0.000 A 
ATOM     27  C   UNL     1       2.820  13.634  18.725  0.00  0.00    +0.000 A 
ATOM     28  C   UNL     1       2.803  13.865  20.101  0.00  0.00    +0.000 A 
ATOM     29  C   UNL     1       1.912  13.167  20.914  0.00  0.00    +0.000 A 
ATOM     30  C   UNL     1       1.078  12.203  20.352  0.00  0.00    +0.000 A 
ATOM     31  O   UNL     1       0.305  11.485  21.221  0.00  0.00    +0.000 OA
ENDBRANCH  21  22
ENDBRANCH   4  21
TORSDOF 6
ENDMDL
MODEL 6
REMARK VINA RESULT:      -7.6      3.251     10.476
REMARK  Name = 
REMARK  6 active torsions:
REMARK  status: ('A' for Active; 'I' for Inactive)
REMARK    1  A    between atoms: N_3  and  C_4
REMARK    2  A    between atoms: C_4  and  C_5
REMARK    3  A    between atoms: C_5  and  C_6
REMARK    4  A    between atoms: N_9  and  C_10
REMARK    5  A    between atoms: C_10  and  C_11
REMARK    6  A    between atoms: N_25  and  C_26
REMARK                            x       y       z     vdW  Elec       q    Type
REMARK                         _______ _______ _______ _____ _____    ______ ____
ROOT
ATOM      1  C   UNL     1       0.144  10.379  19.095  0.00  0.00    +0.000 C 
ATOM      2  C   UNL     1       0.078   9.416  20.292  0.00  0.00    +0.000 C 
ATOM      3  C   UNL     1       1.365   8.596  20.457  0.00  0.00    +0.000 C 
ATOM      4  N   UNL     1       1.704   7.879  19.214  0.00  0.00    +0.000 NA
ATOM      5  C   UNL     1       1.877   8.816  18.098  0.00  0.00    +0.000 C 
ATOM      6  C   UNL     1       0.582   9.586  17.857  0.00  0.00    +0.000 C 
ENDROOT
BRANCH   1   7
ATOM      7  C   UNL     1       1.067  11.565  19.431  0.00  0.00    +0.000 C 
BRANCH   7   8
ATOM      8  C   UNL     1       0.422  12.933  19.284  0.00  0.00    +0.000 C 
BRANCH   8  11
ATOM      9  O   UNL     1      -2.383  12.479  19.906  0.00  0.00    +0.000 OA
ATOM     10  C   UNL     1      -1.641  12.991  20.729  0.00  0.00    +0.000 C 
ATOM     11  N   UNL     1      -0.295  13.313  20.485  0.00  0.00    +0.000 N 
ATOM     12  C   UNL     1       0.369  13.603  21.732  0.00  0.00    +0.000 C 
ATOM     13  C   UNL     1      -0.774  14.078  22.608  0.00  0.00    +0.000 C 
ATOM     14  N   UNL     1      -1.924  13.395  22.054  0.00  0.00    +0.000 N 
BRANCH  14  15
ATOM     15  C   UNL     1      -3.180  13.343  22.699  0.00  0.00    +0.000 A 
ATOM     16  C   UNL     1      -4.236  14.175  22.308  0.00  0.00    +0.000 A 
ATOM     17  C   UNL     1      -5.467  14.138  22.972  0.00  0.00    +0.000 A 
ATOM     18  C   UNL     1      -5.656  13.273  24.045  0.00  0.00    +0.000 A 
ATOM     19  C   UNL     1      -4.624  12.428  24.439  0.00  0.00    +0.000 A 
ATOM     20  C   UNL     1      -3.399  12.455  23.763  0.00  0.00    +0.000 A 
ENDBRANCH  14  15
ENDBRANCH   8  11
ENDBRANCH   7   8
ENDBRANCH   1   7
BRANCH   4  21
ATOM     21  C   UNL     1       2.885   7.024  19.432  0.00  0.00    +0.000 C 
BRANCH  21  22
ATOM     22  C   UNL     1       3.054   5.830  18.454  0.00  0.00    +0.000 C 
ATOM     23  C   UNL     1       3.522   4.524  19.104  0.00  0.00    +0.000 C 
ATOM     24  O   UNL     1       4.890   4.523  19.520  0.00  0.00    +0.000 OA
ATOM     25  C   UNL     1       5.690   5.365  18.802  0.00  0.00    +0.000 A 
ATOM     26  C   UNL     1       7.025   5.436  19.195  0.00  0.00    +0.000 A 
ATOM     27  C   UNL     1       7.879   6.363  18.594  0.00  0.00    +0.000 A 
ATOM     28  C   UNL     1       7.408   7.192  17.576  0.00  0.00    +0.000 A 
ATOM     29  C   UNL     1       6.086   7.088  17.147  0.00  0.00    +0.000 A 
ATOM     30  C   UNL     1       5.229   6.187  17.774  0.00  0.00    +0.000 A 
ATOM     31  O   UNL     1       3.922   6.210  17.373  0.00  0.00    +0.000 OA
ENDBRANCH  21  22
ENDBRANCH   4  21
TORSDOF 6
ENDMDL
MODEL 7
REMARK VINA RESULT:      -7.6      3.641     11.242
REMARK  Name = 
REMARK  6 active torsions:
REMARK  status: ('A' for Active; 'I' for Inactive)
REMARK    1  A    between atoms: N_3  and  C_4
REMARK    2  A    between atoms: C_4  and  C_5
REMARK    3  A    between atoms: C_5  and  C_6
REMARK    4  A    between atoms: N_9  and  C_10
REMARK    5  A    between atoms: C_10  and  C_11
REMARK    6  A    between atoms: N_25  and  C_26
REMARK                            x       y       z     vdW  Elec       q    Type
REMARK                         _______ _______ _______ _____ _____    ______ ____
ROOT
ATOM      1  C   UNL     1       0.513  10.827  19.535  0.00  0.00    +0.000 C 
ATOM      2  C   UNL     1       1.517  10.748  18.373  0.00  0.00    +0.000 C 
ATOM      3  C   UNL     1       1.723   9.313  17.872  0.00  0.00    +0.000 C 
ATOM      4  N   UNL     1       2.111   8.413  18.973  0.00  0.00    +0.000 NA
ATOM      5  C   UNL     1       1.093   8.406  20.030  0.00  0.00    +0.000 C 
ATOM      6  C   UNL     1       0.929   9.810  20.606  0.00  0.00    +0.000 C 
ENDROOT
BRANCH   1   7
ATOM      7  C   UNL     1      -0.917  10.619  19.003  0.00  0.00    +0.000 C 
BRANCH   7   8
ATOM      8  C   UNL     1      -1.620  11.891  18.559  0.00  0.00    +0.000 C 
BRANCH   8  11
ATOM      9  O   UNL     1      -2.938  13.108  20.849  0.00  0.00    +0.000 OA
ATOM     10  C   UNL     1      -3.591  12.537  19.988  0.00  0.00    +0.000 C 
ATOM     11  N   UNL     1      -3.031  11.861  18.892  0.00  0.00    +0.000 N 
ATOM     12  C   UNL     1      -4.057  11.579  17.919  0.00  0.00    +0.000 C 
ATOM     13  C   UNL     1      -5.309  11.522  18.772  0.00  0.00    +0.000 C 
ATOM     14  N   UNL     1      -4.993  12.392  19.885  0.00  0.00    +0.000 N 
BRANCH  14  15
ATOM     15  C   UNL     1      -5.957  12.840  20.818  0.00  0.00    +0.000 A 
ATOM     16  C   UNL     1      -6.842  11.949  21.436  0.00  0.00    +0.000 A 
ATOM     17  C   UNL     1      -7.812  12.403  22.335  0.00  0.00    +0.000 A 
ATOM     18  C   UNL     1      -7.916  13.761  22.622  0.00  0.00    +0.000 A 
ATOM     19  C   UNL     1      -7.036  14.661  22.029  0.00  0.00    +0.000 A 
ATOM     20  C   UNL     1      -6.057  14.201  21.143  0.00  0.00    +0.000 A 
ENDBRANCH  14  15
ENDBRANCH   8  11
ENDBRANCH   7   8
ENDBRANCH   1   7
BRANCH   4  21
ATOM     21  C   UNL     1       2.400   7.067  18.447  0.00  0.00    +0.000 C 
BRANCH  21  22
ATOM     22  C   UNL     1       3.550   6.292  19.144  0.00  0.00    +0.000 C 
ATOM     23  C   UNL     1       4.444   5.478  18.203  0.00  0.00    +0.000 C 
ATOM     24  O   UNL     1       3.829   4.305  17.664  0.00  0.00    +0.000 OA
ATOM     25  C   UNL     1       2.849   3.778  18.455  0.00  0.00    +0.000 A 
ATOM     26  C   UNL     1       2.186   2.659  17.957  0.00  0.00    +0.000 A 
ATOM     27  C   UNL     1       1.090   2.135  18.645  0.00  0.00    +0.000 A 
ATOM     28  C   UNL     1       0.681   2.707  19.850  0.00  0.00    +0.000 A 
ATOM     29  C   UNL     1       1.374   3.796  20.376  0.00  0.00    +0.000 A 
ATOM     30  C   UNL     1       2.444   4.337  19.667  0.00  0.00    +0.000 A 
ATOM     31  O   UNL     1       3.012   5.466  20.190  0.00  0.00    +0.000 OA
ENDBRANCH  21  22
ENDBRANCH   4  21
TORSDOF 6
ENDMDL
MODEL 8
REMARK VINA RESULT:      -7.6      5.275      6.841
REMARK  Name = 
REMARK  6 active torsions:
REMARK  status: ('A' for Active; 'I' for Inactive)
REMARK    1  A    between atoms: N_3  and  C_4
REMARK    2  A    between atoms: C_4  and  C_5
REMARK    3  A    between atoms: C_5  and  C_6
REMARK    4  A    between atoms: N_9  and  C_10
REMARK    5  A    between atoms: C_10  and  C_11
REMARK    6  A    between atoms: N_25  and  C_26
REMARK                            x       y       z     vdW  Elec       q    Type
REMARK                         _______ _______ _______ _____ _____    ______ ____
ROOT
ATOM      1  C   UNL     1       9.577  10.156  18.702  0.00  0.00    +0.000 C 
ATOM      2  C   UNL     1       9.527  10.650  20.158  0.00  0.00    +0.000 C 
ATOM      3  C   UNL     1       8.669  11.912  20.319  0.00  0.00    +0.000 C 
ATOM      4  N   UNL     1       9.116  12.982  19.408  0.00  0.00    +0.000 NA
ATOM      5  C   UNL     1       9.055  12.541  18.010  0.00  0.00    +0.000 C 
ATOM      6  C   UNL     1       9.967  11.335  17.802  0.00  0.00    +0.000 C 
ENDROOT
BRANCH   1   7
ATOM      7  C   UNL     1       8.233   9.506  18.325  0.00  0.00    +0.000 C 
BRANCH   7   8
ATOM      8  C   UNL     1       8.353   8.198  17.559  0.00  0.00    +0.000 C 
BRANCH   8  11
ATOM      9  O   UNL     1       5.728   7.468  16.542  0.00  0.00    +0.000 OA
ATOM     10  C   UNL     1       6.220   6.861  17.480  0.00  0.00    +0.000 C 
ATOM     11  N   UNL     1       7.447   7.194  18.079  0.00  0.00    +0.000 N 
ATOM     12  C   UNL     1       7.882   6.112  18.927  0.00  0.00    +0.000 C 
ATOM     13  C   UNL     1       6.574   5.448  19.308  0.00  0.00    +0.000 C 
ATOM     14  N   UNL     1       5.711   5.746  18.185  0.00  0.00    +0.000 N 
BRANCH  14  15
ATOM     15  C   UNL     1       4.458   5.124  17.983  0.00  0.00    +0.000 A 
ATOM     16  C   UNL     1       3.273   5.696  18.461  0.00  0.00    +0.000 A 
ATOM     17  C   UNL     1       2.041   5.059  18.283  0.00  0.00    +0.000 A 
ATOM     18  C   UNL     1       1.978   3.832  17.630  0.00  0.00    +0.000 A 
ATOM     19  C   UNL     1       3.142   3.254  17.134  0.00  0.00    +0.000 A 
ATOM     20  C   UNL     1       4.371   3.901  17.299  0.00  0.00    +0.000 A 
ENDBRANCH  14  15
ENDBRANCH   8  11
ENDBRANCH   7   8
ENDBRANCH   1   7
BRANCH   4  21
ATOM     21  C   UNL     1       8.342  14.212  19.656  0.00  0.00    +0.000 C 
BRANCH  21  22
ATOM     22  C   UNL     1       8.410  15.298  18.548  0.00  0.00    +0.000 C 
ATOM     23  C   UNL     1       8.486  16.739  19.062  0.00  0.00    +0.000 C 
ATOM     24  O   UNL     1       7.271  17.234  19.629  0.00  0.00    +0.000 OA
ATOM     25  C   UNL     1       6.144  16.643  19.132  0.00  0.00    +0.000 A 
ATOM     26  C   UNL     1       4.933  17.058  19.683  0.00  0.00    +0.000 A 
ATOM     27  C   UNL     1       3.748  16.416  19.318  0.00  0.00    +0.000 A 
ATOM     28  C   UNL     1       3.769  15.387  18.377  0.00  0.00    +0.000 A 
ATOM     29  C   UNL     1       4.972  15.005  17.788  0.00  0.00    +0.000 A 
ATOM     30  C   UNL     1       6.157  15.623  18.181  0.00  0.00    +0.000 A 
ATOM     31  O   UNL     1       7.311  15.129  17.638  0.00  0.00    +0.000 OA
ENDBRANCH  21  22
ENDBRANCH   4  21
TORSDOF 6
ENDMDL
MODEL 9
REMARK VINA RESULT:      -7.5      3.511      5.270
REMARK  Name = 
REMARK  6 active torsions:
REMARK  status: ('A' for Active; 'I' for Inactive)
REMARK    1  A    between atoms: N_3  and  C_4
REMARK    2  A    between atoms: C_4  and  C_5
REMARK    3  A    between atoms: C_5  and  C_6
REMARK    4  A    between atoms: N_9  and  C_10
REMARK    5  A    between atoms: C_10  and  C_11
REMARK    6  A    between atoms: N_25  and  C_26
REMARK                            x       y       z     vdW  Elec       q    Type
REMARK                         _______ _______ _______ _____ _____    ______ ____
ROOT
ATOM      1  C   UNL     1       0.534  10.939  19.702  0.00  0.00    +0.000 C 
ATOM      2  C   UNL     1       0.637  11.657  21.058  0.00  0.00    +0.000 C 
ATOM      3  C   UNL     1      -0.724  11.799  21.751  0.00  0.00    +0.000 C 
ATOM      4  N   UNL     1      -1.706  12.459  20.871  0.00  0.00    +0.000 NA
ATOM      5  C   UNL     1      -1.884  11.707  19.624  0.00  0.00    +0.000 C 
ATOM      6  C   UNL     1      -0.558  11.624  18.871  0.00  0.00    +0.000 C 
ENDROOT
BRANCH   1   7
ATOM      7  C   UNL     1       0.293   9.435  19.926  0.00  0.00    +0.000 C 
BRANCH   7   8
ATOM      8  C   UNL     1       1.409   8.717  20.667  0.00  0.00    +0.000 C 
BRANCH   8  11
ATOM      9  O   UNL     1       1.513   5.827  20.986  0.00  0.00    +0.000 OA
ATOM     10  C   UNL     1       2.016   6.362  20.010  0.00  0.00    +0.000 C 
ATOM     11  N   UNL     1       2.076   7.752  19.815  0.00  0.00    +0.000 N 
ATOM     12  C   UNL     1       2.438   8.035  18.449  0.00  0.00    +0.000 C 
ATOM     13  C   UNL     1       3.219   6.797  18.054  0.00  0.00    +0.000 C 
ATOM     14  N   UNL     1       2.655   5.766  18.899  0.00  0.00    +0.000 N 
BRANCH  14  15
ATOM     15  C   UNL     1       2.904   4.387  18.711  0.00  0.00    +0.000 A 
ATOM     16  C   UNL     1       2.041   3.586  17.954  0.00  0.00    +0.000 A 
ATOM     17  C   UNL     1       2.279   2.216  17.798  0.00  0.00    +0.000 A 
ATOM     18  C   UNL     1       3.382   1.626  18.407  0.00  0.00    +0.000 A 
ATOM     19  C   UNL     1       4.260   2.408  19.151  0.00  0.00    +0.000 A 
ATOM     20  C   UNL     1       4.029   3.780  19.291  0.00  0.00    +0.000 A 
ENDBRANCH  14  15
ENDBRANCH   8  11
ENDBRANCH   7   8
ENDBRANCH   1   7
BRANCH   4  21
ATOM     21  C   UNL     1      -2.971  12.672  21.597  0.00  0.00    +0.000 C 
BRANCH  21  22
ATOM     22  C   UNL     1      -3.801  13.915  21.176  0.00  0.00    +0.000 C 
ATOM     23  C   UNL     1      -4.489  14.653  22.328  0.00  0.00    +0.000 C 
ATOM     24  O   UNL     1      -5.603  13.962  22.897  0.00  0.00    +0.000 OA
ATOM     25  C   UNL     1      -6.232  13.114  22.030  0.00  0.00    +0.000 A 
ATOM     26  C   UNL     1      -7.299  12.381  22.546  0.00  0.00    +0.000 A 
ATOM     27  C   UNL     1      -7.915  11.404  21.762  0.00  0.00    +0.000 A 
ATOM     28  C   UNL     1      -7.488  11.185  20.452  0.00  0.00    +0.000 A 
ATOM     29  C   UNL     1      -6.455  11.952  19.918  0.00  0.00    +0.000 A 
ATOM     30  C   UNL     1      -5.819  12.900  20.715  0.00  0.00    +0.000 A 
ATOM     31  O   UNL     1      -4.747  13.543  20.161  0.00  0.00    +0.000 OA
ENDBRANCH  21  22
ENDBRANCH   4  21
TORSDOF 6
ENDMDL
