MODEL 1
REMARK VINA RESULT:      -8.3      0.000      0.000
REMARK  Name = 
REMARK  13 active torsions:
REMARK  status: ('A' for Active; 'I' for Inactive)
REMARK    1  A    between atoms: C_1  and  C_2
REMARK    2  A    between atoms: C_2  and  N_3
REMARK    3  A    between atoms: N_3  and  C_4
REMARK    4  A    between atoms: N_3  and  C_6
REMARK    5  A    between atoms: C_4  and  C_5
REMARK    6  A    between atoms: C_6  and  C_7
REMARK    7  A    between atoms: C_7  and  N_8
REMARK    8  A    between atoms: C_9  and  C_11
REMARK    9  A    between atoms: C_12  and  C_13
REMARK   10  A    between atoms: C_15  and  C_16
REMARK   11  A    between atoms: C_24  and  C_25
REMARK   12  A    between atoms: C_28  and  C_29
REMARK   13  A    between atoms: C_35  and  C_36
REMARK                            x       y       z     vdW  Elec       q    Type
REMARK                         _______ _______ _______ _____ _____    ______ ____
ROOT
ATOM      1  C   UNL     1       1.346   9.452  18.848  0.00  0.00    +0.000 C 
ATOM      2  C   UNL     1       1.650   8.345  19.550  0.00  0.00    +0.000 C 
ATOM      3  C   UNL     1       1.212   8.066  20.974  0.00  0.00    +0.000 C 
ATOM      4  O   UNL     1       0.665   8.796  21.771  0.00  0.00    +0.000 OA
ATOM      5  N   UNL     1       1.635   6.772  21.231  0.00  0.00    +0.000 N 
ATOM      6  C   UNL     1       2.348   6.248  20.167  0.00  0.00    +0.000 A 
ATOM      7  C   UNL     1       2.956   5.013  20.151  0.00  0.00    +0.000 A 
ATOM      8  C   UNL     1       3.694   4.685  19.021  0.00  0.00    +0.000 A 
ATOM      9  C   UNL     1       3.818   5.562  17.910  0.00  0.00    +0.000 A 
ATOM     10  C   UNL     1       3.148   6.816  17.968  0.00  0.00    +0.000 A 
ATOM     11  C   UNL     1       2.420   7.157  19.104  0.00  0.00    +0.000 A 
ATOM     12  H   UNL     1       1.487   6.328  22.123  0.00  0.00    +0.000 HD
ENDROOT
BRANCH   1  17
ATOM     13  C   UNL     1      -1.166  11.923  20.001  0.00  0.00    +0.000 A 
ATOM     14  C   UNL     1       0.026  12.295  20.620  0.00  0.00    +0.000 A 
ATOM     15  C   UNL     1       0.351  13.322  21.650  0.00  0.00    +0.000 C 
ATOM     16  N   UNL     1       1.011  11.426  20.195  0.00  0.00    +0.000 N 
ATOM     17  C   UNL     1       0.493  10.481  19.346  0.00  0.00    +0.000 A 
ATOM     18  C   UNL     1      -0.855  10.764  19.186  0.00  0.00    +0.000 A 
ATOM     19  C   UNL     1      -1.818   9.979  18.360  0.00  0.00    +0.000 C 
ATOM     20  H   UNL     1       1.963  11.436  20.533  0.00  0.00    +0.000 HD
BRANCH  13  22
ATOM     21  N   UNL     1      -3.069  12.329  21.457  0.00  0.00    +0.000 N 
ATOM     22  C   UNL     1      -2.505  12.501  20.207  0.00  0.00    +0.000 C 
ATOM     23  O   UNL     1      -3.090  13.126  19.324  0.00  0.00    +0.000 OA
ATOM     24  H   UNL     1      -2.467  12.084  22.231  0.00  0.00    +0.000 HD
BRANCH  21  25
ATOM     25  C   UNL     1      -4.376  12.888  21.746  0.00  0.00    +0.000 C 
BRANCH  25  26
ATOM     26  C   UNL     1      -5.524  12.363  20.850  0.00  0.00    +0.000 C 
BRANCH  26  27
ATOM     27  N   UNL     1      -6.679  11.764  21.566  0.00  0.00    +0.000 NA
BRANCH  27  29
ATOM     28  C   UNL     1      -7.285  12.545  23.909  0.00  0.00    +0.000 C 
ATOM     29  C   UNL     1      -7.347  12.778  22.405  0.00  0.00    +0.000 C 
ENDBRANCH  27  29
BRANCH  27  30
ATOM     30  C   UNL     1      -7.599  11.083  20.630  0.00  0.00    +0.000 C 
ATOM     31  C   UNL     1      -7.782   9.574  20.803  0.00  0.00    +0.000 C 
ENDBRANCH  27  30
ENDBRANCH  26  27
ENDBRANCH  25  26
ENDBRANCH  21  25
ENDBRANCH  13  22
ENDBRANCH   1  17
BRANCH   9  32
ATOM     32  C   UNL     1       4.686   5.158  16.772  0.00  0.00    +0.000 A 
ATOM     33  C   UNL     1       5.190   6.115  15.863  0.00  0.00    +0.000 A 
ATOM     34  C   UNL     1       5.897   5.744  14.715  0.00  0.00    +0.000 A 
ATOM     35  C   UNL     1       6.144   4.398  14.467  0.00  0.00    +0.000 A 
ATOM     36  C   UNL     1       5.690   3.427  15.359  0.00  0.00    +0.000 A 
ATOM     37  C   UNL     1       4.967   3.808  16.498  0.00  0.00    +0.000 A 
BRANCH  35  38
ATOM     38  C   UNL     1       6.879   3.993  13.252  0.00  0.00    +0.000 C 
ATOM     39  O   UNL     1       6.329   3.424  12.317  0.00  0.00    +0.000 OA
ENDBRANCH  35  38
ENDBRANCH   9  32
TORSDOF 9
ENDMDL
MODEL 2
REMARK VINA RESULT:      -8.2      1.327      1.763
REMARK  Name = 
REMARK  13 active torsions:
REMARK  status: ('A' for Active; 'I' for Inactive)
REMARK    1  A    between atoms: C_1  and  C_2
REMARK    2  A    between atoms: C_2  and  N_3
REMARK    3  A    between atoms: N_3  and  C_4
REMARK    4  A    between atoms: N_3  and  C_6
REMARK    5  A    between atoms: C_4  and  C_5
REMARK    6  A    between atoms: C_6  and  C_7
REMARK    7  A    between atoms: C_7  and  N_8
REMARK    8  A    between atoms: C_9  and  C_11
REMARK    9  A    between atoms: C_12  and  C_13
REMARK   10  A    between atoms: C_15  and  C_16
REMARK   11  A    between atoms: C_24  and  C_25
REMARK   12  A    between atoms: C_28  and  C_29
REMARK   13  A    between atoms: C_35  and  C_36
REMARK                            x       y       z     vdW  Elec       q    Type
REMARK                         _______ _______ _______ _____ _____    ______ ____
ROOT
ATOM      1  C   UNL     1       1.375   9.985  18.982  0.00  0.00    +0.000 C 
ATOM      2  C   UNL     1       1.537   8.849  19.685  0.00  0.00    +0.000 C 
ATOM      3  C   UNL     1       1.002   8.602  21.082  0.00  0.00    +0.000 C 
ATOM      4  O   UNL     1       0.487   9.375  21.859  0.00  0.00    +0.000 OA
ATOM      5  N   UNL     1       1.288   7.272  21.344  0.00  0.00    +0.000 N 
ATOM      6  C   UNL     1       2.003   6.691  20.311  0.00  0.00    +0.000 A 
ATOM      7  C   UNL     1       2.492   5.404  20.311  0.00  0.00    +0.000 A 
ATOM      8  C   UNL     1       3.253   5.016  19.215  0.00  0.00    +0.000 A 
ATOM      9  C   UNL     1       3.516   5.886  18.122  0.00  0.00    +0.000 A 
ATOM     10  C   UNL     1       2.964   7.198  18.162  0.00  0.00    +0.000 A 
ATOM     11  C   UNL     1       2.214   7.597  19.264  0.00  0.00    +0.000 A 
ATOM     12  H   UNL     1       1.054   6.838  22.222  0.00  0.00    +0.000 HD
ENDROOT
BRANCH   1  17
ATOM     13  C   UNL     1      -0.951  12.669  20.047  0.00  0.00    +0.000 A 
ATOM     14  C   UNL     1       0.249  12.943  20.700  0.00  0.00    +0.000 A 
ATOM     15  C   UNL     1       0.629  13.945  21.735  0.00  0.00    +0.000 C 
ATOM     16  N   UNL     1       1.169  11.990  20.310  0.00  0.00    +0.000 N 
ATOM     17  C   UNL     1       0.599  11.086  19.449  0.00  0.00    +0.000 A 
ATOM     18  C   UNL     1      -0.715  11.482  19.247  0.00  0.00    +0.000 A 
ATOM     19  C   UNL     1      -1.716  10.775  18.394  0.00  0.00    +0.000 C 
ATOM     20  H   UNL     1       2.107  11.921  20.677  0.00  0.00    +0.000 HD
BRANCH  13  22
ATOM     21  N   UNL     1      -3.345  12.562  20.444  0.00  0.00    +0.000 N 
ATOM     22  C   UNL     1      -2.242  13.360  20.208  0.00  0.00    +0.000 C 
ATOM     23  O   UNL     1      -2.339  14.584  20.160  0.00  0.00    +0.000 OA
ATOM     24  H   UNL     1      -3.201  11.616  20.769  0.00  0.00    +0.000 HD
BRANCH  21  25
ATOM     25  C   UNL     1      -4.650  13.168  20.637  0.00  0.00    +0.000 C 
BRANCH  25  26
ATOM     26  C   UNL     1      -4.953  13.619  22.087  0.00  0.00    +0.000 C 
BRANCH  26  27
ATOM     27  N   UNL     1      -4.737  12.594  23.140  0.00  0.00    +0.000 NA
BRANCH  27  29
ATOM     28  C   UNL     1      -2.363  11.742  23.460  0.00  0.00    +0.000 C 
ATOM     29  C   UNL     1      -3.424  12.786  23.783  0.00  0.00    +0.000 C 
ENDBRANCH  27  29
BRANCH  27  30
ATOM     30  C   UNL     1      -5.860  12.565  24.102  0.00  0.00    +0.000 C 
ATOM     31  C   UNL     1      -6.963  13.608  23.919  0.00  0.00    +0.000 C 
ENDBRANCH  27  30
ENDBRANCH  26  27
ENDBRANCH  25  26
ENDBRANCH  21  25
ENDBRANCH  13  22
ENDBRANCH   1  17
BRANCH   9  32
ATOM     32  C   UNL     1       4.399   5.410  17.025  0.00  0.00    +0.000 A 
ATOM     33  C   UNL     1       4.947   6.313  16.087  0.00  0.00    +0.000 A 
ATOM     34  C   UNL     1       5.671   5.874  14.974  0.00  0.00    +0.000 A 
ATOM     35  C   UNL     1       5.890   4.512  14.792  0.00  0.00    +0.000 A 
ATOM     36  C   UNL     1       5.393   3.594  15.716  0.00  0.00    +0.000 A 
ATOM     37  C   UNL     1       4.653   4.043  16.819  0.00  0.00    +0.000 A 
BRANCH  35  38
ATOM     38  C   UNL     1       6.642   4.036  13.614  0.00  0.00    +0.000 C 
ATOM     39  O   UNL     1       6.084   3.575  12.627  0.00  0.00    +0.000 OA
ENDBRANCH  35  38
ENDBRANCH   9  32
TORSDOF 9
ENDMDL
MODEL 3
REMARK VINA RESULT:      -8.2      2.556      4.867
REMARK  Name = 
REMARK  13 active torsions:
REMARK  status: ('A' for Active; 'I' for Inactive)
REMARK    1  A    between atoms: C_1  and  C_2
REMARK    2  A    between atoms: C_2  and  N_3
REMARK    3  A    between atoms: N_3  and  C_4
REMARK    4  A    between atoms: N_3  and  C_6
REMARK    5  A    between atoms: C_4  and  C_5
REMARK    6  A    between atoms: C_6  and  C_7
REMARK    7  A    between atoms: C_7  and  N_8
REMARK    8  A    between atoms: C_9  and  C_11
REMARK    9  A    between atoms: C_12  and  C_13
REMARK   10  A    between atoms: C_15  and  C_16
REMARK   11  A    between atoms: C_24  and  C_25
REMARK   12  A    between atoms: C_28  and  C_29
REMARK   13  A    between atoms: C_35  and  C_36
REMARK                            x       y       z     vdW  Elec       q    Type
REMARK                         _______ _______ _______ _____ _____    ______ ____
ROOT
ATOM      1  C   UNL     1       1.204   9.922  18.499  0.00  0.00    +0.000 C 
ATOM      2  C   UNL     1       1.507   8.890  19.308  0.00  0.00    +0.000 C 
ATOM      3  C   UNL     1       1.067   8.753  20.752  0.00  0.00    +0.000 C 
ATOM      4  O   UNL     1       0.521   9.559  21.472  0.00  0.00    +0.000 OA
ATOM      5  N   UNL     1       1.490   7.491  21.137  0.00  0.00    +0.000 N 
ATOM      6  C   UNL     1       2.204   6.864  20.131  0.00  0.00    +0.000 A 
ATOM      7  C   UNL     1       2.811   5.633  20.238  0.00  0.00    +0.000 A 
ATOM      8  C   UNL     1       3.550   5.195  19.146  0.00  0.00    +0.000 A 
ATOM      9  C   UNL     1       3.676   5.958  17.953  0.00  0.00    +0.000 A 
ATOM     10  C   UNL     1       3.005   7.212  17.886  0.00  0.00    +0.000 A 
ATOM     11  C   UNL     1       2.277   7.663  18.982  0.00  0.00    +0.000 A 
ATOM     12  H   UNL     1       1.341   7.138  22.068  0.00  0.00    +0.000 HD
ENDROOT
BRANCH   1  17
ATOM     13  C   UNL     1      -0.698  12.937  19.517  0.00  0.00    +0.000 A 
ATOM     14  C   UNL     1      -1.664  11.986  19.194  0.00  0.00    +0.000 A 
ATOM     15  C   UNL     1      -3.148  12.053  19.080  0.00  0.00    +0.000 C 
ATOM     16  N   UNL     1      -1.009  10.823  18.841  0.00  0.00    +0.000 N 
ATOM     17  C   UNL     1       0.351  10.996  18.892  0.00  0.00    +0.000 A 
ATOM     18  C   UNL     1       0.586  12.292  19.324  0.00  0.00    +0.000 A 
ATOM     19  C   UNL     1       1.929  12.920  19.506  0.00  0.00    +0.000 C 
ATOM     20  H   UNL     1      -1.471   9.989  18.507  0.00  0.00    +0.000 HD
BRANCH  13  22
ATOM     21  N   UNL     1      -0.633  15.284  18.893  0.00  0.00    +0.000 N 
ATOM     22  C   UNL     1      -0.910  14.351  19.873  0.00  0.00    +0.000 C 
ATOM     23  O   UNL     1      -1.335  14.691  20.976  0.00  0.00    +0.000 OA
ATOM     24  H   UNL     1      -0.577  14.978  17.931  0.00  0.00    +0.000 HD
BRANCH  21  25
ATOM     25  C   UNL     1      -0.839  16.696  19.158  0.00  0.00    +0.000 C 
BRANCH  25  26
ATOM     26  C   UNL     1       0.458  17.523  19.337  0.00  0.00    +0.000 C 
BRANCH  26  27
ATOM     27  N   UNL     1       1.668  16.751  19.718  0.00  0.00    +0.000 NA
BRANCH  27  29
ATOM     28  C   UNL     1       3.198  16.031  17.819  0.00  0.00    +0.000 C 
ATOM     29  C   UNL     1       2.797  17.095  18.833  0.00  0.00    +0.000 C 
ENDBRANCH  27  29
BRANCH  27  30
ATOM     30  C   UNL     1       1.982  16.914  21.154  0.00  0.00    +0.000 C 
ATOM     31  C   UNL     1       1.852  15.676  22.042  0.00  0.00    +0.000 C 
ENDBRANCH  27  30
ENDBRANCH  26  27
ENDBRANCH  25  26
ENDBRANCH  21  25
ENDBRANCH  13  22
ENDBRANCH   1  17
BRANCH   9  32
ATOM     32  C   UNL     1       4.544   5.442  16.861  0.00  0.00    +0.000 A 
ATOM     33  C   UNL     1       5.098   6.314  15.898  0.00  0.00    +0.000 A 
ATOM     34  C   UNL     1       5.808   5.837  14.791  0.00  0.00    +0.000 A 
ATOM     35  C   UNL     1       6.006   4.469  14.641  0.00  0.00    +0.000 A 
ATOM     36  C   UNL     1       5.501   3.580  15.591  0.00  0.00    +0.000 A 
ATOM     37  C   UNL     1       4.776   4.067  16.687  0.00  0.00    +0.000 A 
BRANCH  35  38
ATOM     38  C   UNL     1       6.743   3.952  13.470  0.00  0.00    +0.000 C 
ATOM     39  O   UNL     1       7.366   4.689  12.717  0.00  0.00    +0.000 OA
ENDBRANCH  35  38
ENDBRANCH   9  32
TORSDOF 9
ENDMDL
MODEL 4
REMARK VINA RESULT:      -8.2      1.456      1.937
REMARK  Name = 
REMARK  13 active torsions:
REMARK  status: ('A' for Active; 'I' for Inactive)
REMARK    1  A    between atoms: C_1  and  C_2
REMARK    2  A    between atoms: C_2  and  N_3
REMARK    3  A    between atoms: N_3  and  C_4
REMARK    4  A    between atoms: N_3  and  C_6
REMARK    5  A    between atoms: C_4  and  C_5
REMARK    6  A    between atoms: C_6  and  C_7
REMARK    7  A    between atoms: C_7  and  N_8
REMARK    8  A    between atoms: C_9  and  C_11
REMARK    9  A    between atoms: C_12  and  C_13
REMARK   10  A    between atoms: C_15  and  C_16
REMARK   11  A    between atoms: C_24  and  C_25
REMARK   12  A    between atoms: C_28  and  C_29
REMARK   13  A    between atoms: C_35  and  C_36
REMARK                            x       y       z     vdW  Elec       q    Type
REMARK                         _______ _______ _______ _____ _____    ______ ____
ROOT
ATOM      1  C   UNL     1       1.380   9.573  18.970  0.00  0.00    +0.000 C 
ATOM      2  C   UNL     1       1.640   8.438  19.644  0.00  0.00    +0.000 C 
ATOM      3  C   UNL     1       1.176   8.135  21.055  0.00  0.00    +0.000 C 
ATOM      4  O   UNL     1       0.644   8.861  21.865  0.00  0.00    +0.000 OA
ATOM      5  N   UNL     1       1.555   6.821  21.281  0.00  0.00    +0.000 N 
ATOM      6  C   UNL     1       2.264   6.304  20.211  0.00  0.00    +0.000 A 
ATOM      7  C   UNL     1       2.832   5.050  20.168  0.00  0.00    +0.000 A 
ATOM      8  C   UNL     1       3.572   4.730  19.037  0.00  0.00    +0.000 A 
ATOM      9  C   UNL     1       3.738   5.632  17.952  0.00  0.00    +0.000 A 
ATOM     10  C   UNL     1       3.107   6.906  18.037  0.00  0.00    +0.000 A 
ATOM     11  C   UNL     1       2.377   7.238  19.174  0.00  0.00    +0.000 A 
ATOM     12  H   UNL     1       1.382   6.359  22.159  0.00  0.00    +0.000 HD
ENDROOT
BRANCH   1  17
ATOM     13  C   UNL     1      -1.066  12.056  20.234  0.00  0.00    +0.000 A 
ATOM     14  C   UNL     1       0.180  12.527  20.643  0.00  0.00    +0.000 A 
ATOM     15  C   UNL     1       0.593  13.659  21.519  0.00  0.00    +0.000 C 
ATOM     16  N   UNL     1       1.138  11.656  20.165  0.00  0.00    +0.000 N 
ATOM     17  C   UNL     1       0.555  10.616  19.486  0.00  0.00    +0.000 A 
ATOM     18  C   UNL     1      -0.814  10.835  19.492  0.00  0.00    +0.000 A 
ATOM     19  C   UNL     1      -1.842   9.940  18.883  0.00  0.00    +0.000 C 
ATOM     20  H   UNL     1       2.126  11.731  20.364  0.00  0.00    +0.000 HD
BRANCH  13  22
ATOM     21  N   UNL     1      -3.229  12.893  19.511  0.00  0.00    +0.000 N 
ATOM     22  C   UNL     1      -2.391  12.604  20.571  0.00  0.00    +0.000 C 
ATOM     23  O   UNL     1      -2.750  12.777  21.734  0.00  0.00    +0.000 OA
ATOM     24  H   UNL     1      -3.037  12.475  18.611  0.00  0.00    +0.000 HD
BRANCH  21  25
ATOM     25  C   UNL     1      -4.560  13.414  19.761  0.00  0.00    +0.000 C 
BRANCH  25  26
ATOM     26  C   UNL     1      -5.684  12.349  19.794  0.00  0.00    +0.000 C 
BRANCH  26  27
ATOM     27  N   UNL     1      -6.175  11.889  18.470  0.00  0.00    +0.000 NA
BRANCH  27  29
ATOM     28  C   UNL     1      -7.819  13.684  17.734  0.00  0.00    +0.000 C 
ATOM     29  C   UNL     1      -6.444  13.042  17.591  0.00  0.00    +0.000 C 
ENDBRANCH  27  29
BRANCH  27  30
ATOM     30  C   UNL     1      -5.256  10.898  17.869  0.00  0.00    +0.000 C 
ATOM     31  C   UNL     1      -4.535  11.305  16.583  0.00  0.00    +0.000 C 
ENDBRANCH  27  30
ENDBRANCH  26  27
ENDBRANCH  25  26
ENDBRANCH  21  25
ENDBRANCH  13  22
ENDBRANCH   1  17
BRANCH   9  32
ATOM     32  C   UNL     1       4.605   5.231  16.813  0.00  0.00    +0.000 A 
ATOM     33  C   UNL     1       5.024   6.174  15.848  0.00  0.00    +0.000 A 
ATOM     34  C   UNL     1       5.729   5.795  14.701  0.00  0.00    +0.000 A 
ATOM     35  C   UNL     1       6.060   4.458  14.510  0.00  0.00    +0.000 A 
ATOM     36  C   UNL     1       5.692   3.503  15.459  0.00  0.00    +0.000 A 
ATOM     37  C   UNL     1       4.970   3.891  16.596  0.00  0.00    +0.000 A 
BRANCH  35  38
ATOM     38  C   UNL     1       6.794   4.044  13.298  0.00  0.00    +0.000 C 
ATOM     39  O   UNL     1       6.220   3.630  12.299  0.00  0.00    +0.000 OA
ENDBRANCH  35  38
ENDBRANCH   9  32
TORSDOF 9
ENDMDL
MODEL 5
REMARK VINA RESULT:      -8.0      1.413      1.923
REMARK  Name = 
REMARK  13 active torsions:
REMARK  status: ('A' for Active; 'I' for Inactive)
REMARK    1  A    between atoms: C_1  and  C_2
REMARK    2  A    between atoms: C_2  and  N_3
REMARK    3  A    between atoms: N_3  and  C_4
REMARK    4  A    between atoms: N_3  and  C_6
REMARK    5  A    between atoms: C_4  and  C_5
REMARK    6  A    between atoms: C_6  and  C_7
REMARK    7  A    between atoms: C_7  and  N_8
REMARK    8  A    between atoms: C_9  and  C_11
REMARK    9  A    between atoms: C_12  and  C_13
REMARK   10  A    between atoms: C_15  and  C_16
REMARK   11  A    between atoms: C_24  and  C_25
REMARK   12  A    between atoms: C_28  and  C_29
REMARK   13  A    between atoms: C_35  and  C_36
REMARK                            x       y       z     vdW  Elec       q    Type
REMARK                         _______ _______ _______ _____ _____    ______ ____
ROOT
ATOM      1  C   UNL     1       1.480   9.832  18.839  0.00  0.00    +0.000 C 
ATOM      2  C   UNL     1       1.658   8.709  19.560  0.00  0.00    +0.000 C 
ATOM      3  C   UNL     1       1.146   8.485  20.969  0.00  0.00    +0.000 C 
ATOM      4  O   UNL     1       0.639   9.270  21.739  0.00  0.00    +0.000 OA
ATOM      5  N   UNL     1       1.442   7.162  21.251  0.00  0.00    +0.000 N 
ATOM      6  C   UNL     1       2.144   6.565  20.218  0.00  0.00    +0.000 A 
ATOM      7  C   UNL     1       2.639   5.281  20.233  0.00  0.00    +0.000 A 
ATOM      8  C   UNL     1       3.385   4.877  19.133  0.00  0.00    +0.000 A 
ATOM      9  C   UNL     1       3.628   5.728  18.021  0.00  0.00    +0.000 A 
ATOM     10  C   UNL     1       3.070   7.037  18.045  0.00  0.00    +0.000 A 
ATOM     11  C   UNL     1       2.335   7.453  19.151  0.00  0.00    +0.000 A 
ATOM     12  H   UNL     1       1.224   6.742  22.140  0.00  0.00    +0.000 HD
ENDROOT
BRANCH   1  17
ATOM     13  C   UNL     1      -0.843  12.523  19.890  0.00  0.00    +0.000 A 
ATOM     14  C   UNL     1       0.366  12.815  20.520  0.00  0.00    +0.000 A 
ATOM     15  C   UNL     1       0.756  13.837  21.531  0.00  0.00    +0.000 C 
ATOM     16  N   UNL     1       1.284  11.859  20.133  0.00  0.00    +0.000 N 
ATOM     17  C   UNL     1       0.705  10.938  19.298  0.00  0.00    +0.000 A 
ATOM     18  C   UNL     1      -0.613  11.324  19.108  0.00  0.00    +0.000 A 
ATOM     19  C   UNL     1      -1.624  10.597  18.283  0.00  0.00    +0.000 C 
ATOM     20  H   UNL     1       2.228  11.801  20.487  0.00  0.00    +0.000 HD
BRANCH  13  22
ATOM     21  N   UNL     1      -3.234  12.411  20.301  0.00  0.00    +0.000 N 
ATOM     22  C   UNL     1      -2.134  13.211  20.058  0.00  0.00    +0.000 C 
ATOM     23  O   UNL     1      -2.234  14.436  20.009  0.00  0.00    +0.000 OA
ATOM     24  H   UNL     1      -3.086  11.466  20.627  0.00  0.00    +0.000 HD
BRANCH  21  25
ATOM     25  C   UNL     1      -4.539  13.015  20.502  0.00  0.00    +0.000 C 
BRANCH  25  26
ATOM     26  C   UNL     1      -5.027  13.044  21.971  0.00  0.00    +0.000 C 
BRANCH  26  27
ATOM     27  N   UNL     1      -4.008  13.427  22.982  0.00  0.00    +0.000 NA
BRANCH  27  29
ATOM     28  C   UNL     1      -3.494  15.334  24.583  0.00  0.00    +0.000 C 
ATOM     29  C   UNL     1      -4.535  14.480  23.870  0.00  0.00    +0.000 C 
ENDBRANCH  27  29
BRANCH  27  30
ATOM     30  C   UNL     1      -3.505  12.244  23.713  0.00  0.00    +0.000 C 
ATOM     31  C   UNL     1      -2.069  11.804  23.425  0.00  0.00    +0.000 C 
ENDBRANCH  27  30
ENDBRANCH  26  27
ENDBRANCH  25  26
ENDBRANCH  21  25
ENDBRANCH  13  22
ENDBRANCH   1  17
BRANCH   9  32
ATOM     32  C   UNL     1       4.496   5.236  16.918  0.00  0.00    +0.000 A 
ATOM     33  C   UNL     1       4.992   6.117  15.932  0.00  0.00    +0.000 A 
ATOM     34  C   UNL     1       5.699   5.657  14.818  0.00  0.00    +0.000 A 
ATOM     35  C   UNL     1       5.955   4.297  14.681  0.00  0.00    +0.000 A 
ATOM     36  C   UNL     1       5.510   3.400  15.653  0.00  0.00    +0.000 A 
ATOM     37  C   UNL     1       4.786   3.869  16.758  0.00  0.00    +0.000 A 
BRANCH  35  38
ATOM     38  C   UNL     1       6.691   3.797  13.503  0.00  0.00    +0.000 C 
ATOM     39  O   UNL     1       6.181   3.744  12.391  0.00  0.00    +0.000 OA
ENDBRANCH  35  38
ENDBRANCH   9  32
TORSDOF 9
ENDMDL
MODEL 6
REMARK VINA RESULT:      -8.0      2.840      4.894
REMARK  Name = 
REMARK  13 active torsions:
REMARK  status: ('A' for Active; 'I' for Inactive)
REMARK    1  A    between atoms: C_1  and  C_2
REMARK    2  A    between atoms: C_2  and  N_3
REMARK    3  A    between atoms: N_3  and  C_4
REMARK    4  A    between atoms: N_3  and  C_6
REMARK    5  A    between atoms: C_4  and  C_5
REMARK    6  A    between atoms: C_6  and  C_7
REMARK    7  A    between atoms: C_7  and  N_8
REMARK    8  A    between atoms: C_9  and  C_11
REMARK    9  A    between atoms: C_12  and  C_13
REMARK   10  A    between atoms: C_15  and  C_16
REMARK   11  A    between atoms: C_24  and  C_25
REMARK   12  A    between atoms: C_28  and  C_29
REMARK   13  A    between atoms: C_35  and  C_36
REMARK                            x       y       z     vdW  Elec       q    Type
REMARK                         _______ _______ _______ _____ _____    ______ ____
ROOT
ATOM      1  C   UNL     1       1.265   9.820  18.509  0.00  0.00    +0.000 C 
ATOM      2  C   UNL     1       1.559   8.754  19.277  0.00  0.00    +0.000 C 
ATOM      3  C   UNL     1       1.023   8.509  20.673  0.00  0.00    +0.000 C 
ATOM      4  O   UNL     1       0.388   9.244  21.396  0.00  0.00    +0.000 OA
ATOM      5  N   UNL     1       1.477   7.244  21.013  0.00  0.00    +0.000 N 
ATOM      6  C   UNL     1       2.291   6.713  20.028  0.00  0.00    +0.000 A 
ATOM      7  C   UNL     1       2.948   5.506  20.108  0.00  0.00    +0.000 A 
ATOM      8  C   UNL     1       3.784   5.169  19.051  0.00  0.00    +0.000 A 
ATOM      9  C   UNL     1       3.959   6.010  17.918  0.00  0.00    +0.000 A 
ATOM     10  C   UNL     1       3.235   7.235  17.875  0.00  0.00    +0.000 A 
ATOM     11  C   UNL     1       2.409   7.585  18.938  0.00  0.00    +0.000 A 
ATOM     12  H   UNL     1       1.279   6.828  21.908  0.00  0.00    +0.000 HD
ENDROOT
BRANCH   1  17
ATOM     13  C   UNL     1      -0.846  12.671  19.586  0.00  0.00    +0.000 A 
ATOM     14  C   UNL     1      -1.732  11.744  19.041  0.00  0.00    +0.000 A 
ATOM     15  C   UNL     1      -3.191  11.796  18.744  0.00  0.00    +0.000 C 
ATOM     16  N   UNL     1      -1.001  10.639  18.655  0.00  0.00    +0.000 N 
ATOM     17  C   UNL     1       0.336  10.829  18.900  0.00  0.00    +0.000 A 
ATOM     18  C   UNL     1       0.473  12.075  19.494  0.00  0.00    +0.000 A 
ATOM     19  C   UNL     1       1.760  12.703  19.914  0.00  0.00    +0.000 C 
ATOM     20  H   UNL     1      -1.389   9.837  18.178  0.00  0.00    +0.000 HD
BRANCH  13  22
ATOM     21  N   UNL     1      -0.908  15.064  19.170  0.00  0.00    +0.000 N 
ATOM     22  C   UNL     1      -1.147  14.033  20.059  0.00  0.00    +0.000 C 
ATOM     23  O   UNL     1      -1.609  14.250  21.177  0.00  0.00    +0.000 OA
ATOM     24  H   UNL     1      -0.818  14.847  18.187  0.00  0.00    +0.000 HD
BRANCH  21  25
ATOM     25  C   UNL     1      -1.201  16.433  19.552  0.00  0.00    +0.000 C 
BRANCH  25  26
ATOM     26  C   UNL     1      -0.569  17.515  18.643  0.00  0.00    +0.000 C 
BRANCH  26  27
ATOM     27  N   UNL     1       0.874  17.342  18.340  0.00  0.00    +0.000 NA
BRANCH  27  29
ATOM     28  C   UNL     1       0.303  18.525  16.163  0.00  0.00    +0.000 C 
ATOM     29  C   UNL     1       1.298  18.291  17.293  0.00  0.00    +0.000 C 
ENDBRANCH  27  29
BRANCH  27  30
ATOM     30  C   UNL     1       1.696  17.421  19.567  0.00  0.00    +0.000 C 
ATOM     31  C   UNL     1       2.676  16.277  19.826  0.00  0.00    +0.000 C 
ENDBRANCH  27  30
ENDBRANCH  26  27
ENDBRANCH  25  26
ENDBRANCH  21  25
ENDBRANCH  13  22
ENDBRANCH   1  17
BRANCH   9  32
ATOM     32  C   UNL     1       4.927   5.602  16.866  0.00  0.00    +0.000 A 
ATOM     33  C   UNL     1       6.214   6.180  16.796  0.00  0.00    +0.000 A 
ATOM     34  C   UNL     1       7.090   5.908  15.741  0.00  0.00    +0.000 A 
ATOM     35  C   UNL     1       6.706   5.020  14.742  0.00  0.00    +0.000 A 
ATOM     36  C   UNL     1       5.456   4.404  14.796  0.00  0.00    +0.000 A 
ATOM     37  C   UNL     1       4.577   4.697  15.848  0.00  0.00    +0.000 A 
BRANCH  35  38
ATOM     38  C   UNL     1       7.618   4.734  13.616  0.00  0.00    +0.000 C 
ATOM     39  O   UNL     1       8.078   5.621  12.909  0.00  0.00    +0.000 OA
ENDBRANCH  35  38
ENDBRANCH   9  32
TORSDOF 9
ENDMDL
MODEL 7
REMARK VINA RESULT:      -8.0      1.086      1.669
REMARK  Name = 
REMARK  13 active torsions:
REMARK  status: ('A' for Active; 'I' for Inactive)
REMARK    1  A    between atoms: C_1  and  C_2
REMARK    2  A    between atoms: C_2  and  N_3
REMARK    3  A    between atoms: N_3  and  C_4
REMARK    4  A    between atoms: N_3  and  C_6
REMARK    5  A    between atoms: C_4  and  C_5
REMARK    6  A    between atoms: C_6  and  C_7
REMARK    7  A    between atoms: C_7  and  N_8
REMARK    8  A    between atoms: C_9  and  C_11
REMARK    9  A    between atoms: C_12  and  C_13
REMARK   10  A    between atoms: C_15  and  C_16
REMARK   11  A    between atoms: C_24  and  C_25
REMARK   12  A    between atoms: C_28  and  C_29
REMARK   13  A    between atoms: C_35  and  C_36
REMARK                            x       y       z     vdW  Elec       q    Type
REMARK                         _______ _______ _______ _____ _____    ______ ____
ROOT
ATOM      1  C   UNL     1       1.382   9.529  18.686  0.00  0.00    +0.000 C 
ATOM      2  C   UNL     1       1.685   8.424  19.392  0.00  0.00    +0.000 C 
ATOM      3  C   UNL     1       1.165   8.104  20.779  0.00  0.00    +0.000 C 
ATOM      4  O   UNL     1       0.537   8.799  21.547  0.00  0.00    +0.000 OA
ATOM      5  N   UNL     1       1.624   6.824  21.047  0.00  0.00    +0.000 N 
ATOM      6  C   UNL     1       2.427   6.347  20.026  0.00  0.00    +0.000 A 
ATOM      7  C   UNL     1       3.086   5.139  20.034  0.00  0.00    +0.000 A 
ATOM      8  C   UNL     1       3.910   4.859  18.951  0.00  0.00    +0.000 A 
ATOM      9  C   UNL     1       4.071   5.759  17.863  0.00  0.00    +0.000 A 
ATOM     10  C   UNL     1       3.347   6.984  17.893  0.00  0.00    +0.000 A 
ATOM     11  C   UNL     1       2.532   7.276  18.982  0.00  0.00    +0.000 A 
ATOM     12  H   UNL     1       1.436   6.361  21.921  0.00  0.00    +0.000 HD
ENDROOT
BRANCH   1  17
ATOM     13  C   UNL     1      -1.294  11.902  19.663  0.00  0.00    +0.000 A 
ATOM     14  C   UNL     1      -0.212  12.210  20.486  0.00  0.00    +0.000 A 
ATOM     15  C   UNL     1      -0.055  13.137  21.642  0.00  0.00    +0.000 C 
ATOM     16  N   UNL     1       0.832  11.376  20.139  0.00  0.00    +0.000 N 
ATOM     17  C   UNL     1       0.456  10.515  19.139  0.00  0.00    +0.000 A 
ATOM     18  C   UNL     1      -0.854  10.820  18.803  0.00  0.00    +0.000 A 
ATOM     19  C   UNL     1      -1.675  10.117  17.773  0.00  0.00    +0.000 C 
ATOM     20  H   UNL     1       1.722  11.349  20.617  0.00  0.00    +0.000 HD
BRANCH  13  22
ATOM     21  N   UNL     1      -3.597  11.885  18.890  0.00  0.00    +0.000 N 
ATOM     22  C   UNL     1      -2.653  12.467  19.714  0.00  0.00    +0.000 C 
ATOM     23  O   UNL     1      -2.948  13.394  20.465  0.00  0.00    +0.000 OA
ATOM     24  H   UNL     1      -3.415  10.963  18.518  0.00  0.00    +0.000 HD
BRANCH  21  25
ATOM     25  C   UNL     1      -4.965  12.369  18.899  0.00  0.00    +0.000 C 
BRANCH  25  26
ATOM     26  C   UNL     1      -5.789  11.976  20.149  0.00  0.00    +0.000 C 
BRANCH  26  27
ATOM     27  N   UNL     1      -7.075  11.282  19.882  0.00  0.00    +0.000 NA
BRANCH  27  29
ATOM     28  C   UNL     1      -7.102   8.743  19.741  0.00  0.00    +0.000 C 
ATOM     29  C   UNL     1      -6.850  10.080  19.056  0.00  0.00    +0.000 C 
ENDBRANCH  27  29
BRANCH  27  30
ATOM     30  C   UNL     1      -7.805  10.999  21.137  0.00  0.00    +0.000 C 
ATOM     31  C   UNL     1      -7.916  12.138  22.152  0.00  0.00    +0.000 C 
ENDBRANCH  27  30
ENDBRANCH  26  27
ENDBRANCH  25  26
ENDBRANCH  21  25
ENDBRANCH  13  22
ENDBRANCH   1  17
BRANCH   9  32
ATOM     32  C   UNL     1       5.029   5.409  16.780  0.00  0.00    +0.000 A 
ATOM     33  C   UNL     1       6.361   5.877  16.806  0.00  0.00    +0.000 A 
ATOM     34  C   UNL     1       7.238   5.669  15.736  0.00  0.00    +0.000 A 
ATOM     35  C   UNL     1       6.806   4.956  14.623  0.00  0.00    +0.000 A 
ATOM     36  C   UNL     1       5.507   4.450  14.578  0.00  0.00    +0.000 A 
ATOM     37  C   UNL     1       4.630   4.678  15.647  0.00  0.00    +0.000 A 
BRANCH  35  38
ATOM     38  C   UNL     1       7.719   4.741  13.483  0.00  0.00    +0.000 C 
ATOM     39  O   UNL     1       7.894   5.591  12.619  0.00  0.00    +0.000 OA
ENDBRANCH  35  38
ENDBRANCH   9  32
TORSDOF 9
ENDMDL
MODEL 8
REMARK VINA RESULT:      -8.0      0.699      1.365
REMARK  Name = 
REMARK  13 active torsions:
REMARK  status: ('A' for Active; 'I' for Inactive)
REMARK    1  A    between atoms: C_1  and  C_2
REMARK    2  A    between atoms: C_2  and  N_3
REMARK    3  A    between atoms: N_3  and  C_4
REMARK    4  A    between atoms: N_3  and  C_6
REMARK    5  A    between atoms: C_4  and  C_5
REMARK    6  A    between atoms: C_6  and  C_7
REMARK    7  A    between atoms: C_7  and  N_8
REMARK    8  A    between atoms: C_9  and  C_11
REMARK    9  A    between atoms: C_12  and  C_13
REMARK   10  A    between atoms: C_15  and  C_16
REMARK   11  A    between atoms: C_24  and  C_25
REMARK   12  A    between atoms: C_28  and  C_29
REMARK   13  A    between atoms: C_35  and  C_36
REMARK                            x       y       z     vdW  Elec       q    Type
REMARK                         _______ _______ _______ _____ _____    ______ ____
ROOT
ATOM      1  C   UNL     1       1.417   9.697  18.904  0.00  0.00    +0.000 C 
ATOM      2  C   UNL     1       1.659   8.566  19.594  0.00  0.00    +0.000 C 
ATOM      3  C   UNL     1       1.183   8.285  21.005  0.00  0.00    +0.000 C 
ATOM      4  O   UNL     1       0.654   9.026  21.803  0.00  0.00    +0.000 OA
ATOM      5  N   UNL     1       1.543   6.969  21.248  0.00  0.00    +0.000 N 
ATOM      6  C   UNL     1       2.253   6.431  20.188  0.00  0.00    +0.000 A 
ATOM      7  C   UNL     1       2.805   5.170  20.163  0.00  0.00    +0.000 A 
ATOM      8  C   UNL     1       3.549   4.828  19.041  0.00  0.00    +0.000 A 
ATOM      9  C   UNL     1       3.733   5.716  17.946  0.00  0.00    +0.000 A 
ATOM     10  C   UNL     1       3.117   6.998  18.013  0.00  0.00    +0.000 A 
ATOM     11  C   UNL     1       2.384   7.352  19.142  0.00  0.00    +0.000 A 
ATOM     12  H   UNL     1       1.359   6.519  22.129  0.00  0.00    +0.000 HD
ENDROOT
BRANCH   1  17
ATOM     13  C   UNL     1      -1.007  12.229  20.112  0.00  0.00    +0.000 A 
ATOM     14  C   UNL     1       0.236  12.664  20.567  0.00  0.00    +0.000 A 
ATOM     15  C   UNL     1       0.647  13.777  21.469  0.00  0.00    +0.000 C 
ATOM     16  N   UNL     1       1.187  11.773  20.113  0.00  0.00    +0.000 N 
ATOM     17  C   UNL     1       0.602  10.755  19.404  0.00  0.00    +0.000 A 
ATOM     18  C   UNL     1      -0.761  11.010  19.366  0.00  0.00    +0.000 A 
ATOM     19  C   UNL     1      -1.790  10.147  18.714  0.00  0.00    +0.000 C 
ATOM     20  H   UNL     1       2.169  11.821  20.346  0.00  0.00    +0.000 HD
BRANCH  13  22
ATOM     21  N   UNL     1      -3.336  12.550  19.500  0.00  0.00    +0.000 N 
ATOM     22  C   UNL     1      -2.328  12.807  20.410  0.00  0.00    +0.000 C 
ATOM     23  O   UNL     1      -2.539  13.467  21.426  0.00  0.00    +0.000 OA
ATOM     24  H   UNL     1      -3.223  11.782  18.853  0.00  0.00    +0.000 HD
BRANCH  21  25
ATOM     25  C   UNL     1      -4.673  13.065  19.734  0.00  0.00    +0.000 C 
BRANCH  25  26
ATOM     26  C   UNL     1      -5.529  12.237  20.723  0.00  0.00    +0.000 C 
BRANCH  26  27
ATOM     27  N   UNL     1      -6.960  12.622  20.818  0.00  0.00    +0.000 NA
BRANCH  27  29
ATOM     28  C   UNL     1      -7.209  10.189  20.123  0.00  0.00    +0.000 C 
ATOM     29  C   UNL     1      -7.819  11.424  20.774  0.00  0.00    +0.000 C 
ENDBRANCH  27  29
BRANCH  27  30
ATOM     30  C   UNL     1      -7.211  13.477  21.998  0.00  0.00    +0.000 C 
ATOM     31  C   UNL     1      -6.894  12.883  23.371  0.00  0.00    +0.000 C 
ENDBRANCH  27  30
ENDBRANCH  26  27
ENDBRANCH  25  26
ENDBRANCH  21  25
ENDBRANCH  13  22
ENDBRANCH   1  17
BRANCH   9  32
ATOM     32  C   UNL     1       4.603   5.292  16.817  0.00  0.00    +0.000 A 
ATOM     33  C   UNL     1       5.048   6.221  15.851  0.00  0.00    +0.000 A 
ATOM     34  C   UNL     1       5.756   5.821  14.713  0.00  0.00    +0.000 A 
ATOM     35  C   UNL     1       6.063   4.477  14.533  0.00  0.00    +0.000 A 
ATOM     36  C   UNL     1       5.668   3.535  15.483  0.00  0.00    +0.000 A 
ATOM     37  C   UNL     1       4.943   3.943  16.612  0.00  0.00    +0.000 A 
BRANCH  35  38
ATOM     38  C   UNL     1       6.799   4.042  13.329  0.00  0.00    +0.000 C 
ATOM     39  O   UNL     1       6.278   3.355  12.459  0.00  0.00    +0.000 OA
ENDBRANCH  35  38
ENDBRANCH   9  32
TORSDOF 9
ENDMDL
MODEL 9
REMARK VINA RESULT:      -7.9      1.404      2.200
REMARK  Name = 
REMARK  13 active torsions:
REMARK  status: ('A' for Active; 'I' for Inactive)
REMARK    1  A    between atoms: C_1  and  C_2
REMARK    2  A    between atoms: C_2  and  N_3
REMARK    3  A    between atoms: N_3  and  C_4
REMARK    4  A    between atoms: N_3  and  C_6
REMARK    5  A    between atoms: C_4  and  C_5
REMARK    6  A    between atoms: C_6  and  C_7
REMARK    7  A    between atoms: C_7  and  N_8
REMARK    8  A    between atoms: C_9  and  C_11
REMARK    9  A    between atoms: C_12  and  C_13
REMARK   10  A    between atoms: C_15  and  C_16
REMARK   11  A    between atoms: C_24  and  C_25
REMARK   12  A    between atoms: C_28  and  C_29
REMARK   13  A    between atoms: C_35  and  C_36
REMARK                            x       y       z     vdW  Elec       q    Type
REMARK                         _______ _______ _______ _____ _____    ______ ____
ROOT
ATOM      1  C   UNL     1       1.082  10.754  19.428  0.00  0.00    +0.000 C 
ATOM      2  C   UNL     1       1.112   9.598  20.117  0.00  0.00    +0.000 C 
ATOM      3  C   UNL     1       0.509   9.385  21.492  0.00  0.00    +0.000 C 
ATOM      4  O   UNL     1       0.043  10.194  22.264  0.00  0.00    +0.000 OA
ATOM      5  N   UNL     1       0.658   8.031  21.742  0.00  0.00    +0.000 N 
ATOM      6  C   UNL     1       1.349   7.397  20.723  0.00  0.00    +0.000 A 
ATOM      7  C   UNL     1       1.714   6.070  20.718  0.00  0.00    +0.000 A 
ATOM      8  C   UNL     1       2.470   5.626  19.641  0.00  0.00    +0.000 A 
ATOM      9  C   UNL     1       2.852   6.481  18.572  0.00  0.00    +0.000 A 
ATOM     10  C   UNL     1       2.426   7.838  18.615  0.00  0.00    +0.000 A 
ATOM     11  C   UNL     1       1.681   8.293  19.698  0.00  0.00    +0.000 A 
ATOM     12  H   UNL     1       0.354   7.610  22.604  0.00  0.00    +0.000 HD
ENDROOT
BRANCH   1  17
ATOM     13  C   UNL     1      -1.018  13.620  20.484  0.00  0.00    +0.000 A 
ATOM     14  C   UNL     1       0.215  13.821  21.102  0.00  0.00    +0.000 A 
ATOM     15  C   UNL     1       0.691  14.816  22.104  0.00  0.00    +0.000 C 
ATOM     16  N   UNL     1       1.053  12.797  20.712  0.00  0.00    +0.000 N 
ATOM     17  C   UNL     1       0.399  11.918  19.887  0.00  0.00    +0.000 A 
ATOM     18  C   UNL     1      -0.888  12.403  19.706  0.00  0.00    +0.000 A 
ATOM     19  C   UNL     1      -1.958  11.752  18.894  0.00  0.00    +0.000 C 
ATOM     20  H   UNL     1       1.994  12.668  21.059  0.00  0.00    +0.000 HD
BRANCH  13  22
ATOM     21  N   UNL     1      -3.349  13.731  21.159  0.00  0.00    +0.000 N 
ATOM     22  C   UNL     1      -2.252  14.406  20.659  0.00  0.00    +0.000 C 
ATOM     23  O   UNL     1      -2.305  15.606  20.399  0.00  0.00    +0.000 OA
ATOM     24  H   UNL     1      -3.204  12.851  21.634  0.00  0.00    +0.000 HD
BRANCH  21  25
ATOM     25  C   UNL     1      -4.596  14.440  21.382  0.00  0.00    +0.000 C 
BRANCH  25  26
ATOM     26  C   UNL     1      -5.078  14.466  22.853  0.00  0.00    +0.000 C 
BRANCH  26  27
ATOM     27  N   UNL     1      -6.182  13.531  23.188  0.00  0.00    +0.000 NA
BRANCH  27  29
ATOM     28  C   UNL     1      -7.851  11.923  22.142  0.00  0.00    +0.000 C 
ATOM     29  C   UNL     1      -6.600  12.778  21.990  0.00  0.00    +0.000 C 
ENDBRANCH  27  29
BRANCH  27  30
ATOM     30  C   UNL     1      -5.823  12.660  24.329  0.00  0.00    +0.000 C 
ATOM     31  C   UNL     1      -4.334  12.431  24.592  0.00  0.00    +0.000 C 
ENDBRANCH  27  30
ENDBRANCH  26  27
ENDBRANCH  25  26
ENDBRANCH  21  25
ENDBRANCH  13  22
ENDBRANCH   1  17
BRANCH   9  32
ATOM     32  C   UNL     1       3.723   5.937  17.495  0.00  0.00    +0.000 A 
ATOM     33  C   UNL     1       3.833   4.545  17.281  0.00  0.00    +0.000 A 
ATOM     34  C   UNL     1       4.742   4.009  16.364  0.00  0.00    +0.000 A 
ATOM     35  C   UNL     1       5.544   4.862  15.614  0.00  0.00    +0.000 A 
ATOM     36  C   UNL     1       5.439   6.244  15.775  0.00  0.00    +0.000 A 
ATOM     37  C   UNL     1       4.537   6.771  16.710  0.00  0.00    +0.000 A 
BRANCH  35  38
ATOM     38  C   UNL     1       6.517   4.307  14.651  0.00  0.00    +0.000 C 
ATOM     39  O   UNL     1       6.173   3.602  13.711  0.00  0.00    +0.000 OA
ENDBRANCH  35  38
ENDBRANCH   9  32
TORSDOF 9
ENDMDL
