MODEL 1
REMARK VINA RESULT:      -7.6      0.000      0.000
REMARK  Name = 
REMARK  4 active torsions:
REMARK  status: ('A' for Active; 'I' for Inactive)
REMARK    1  A    between atoms: N_1  and  C_2
REMARK    2  A    between atoms: N_4  and  C_5
REMARK    3  A    between atoms: C_10  and  C_11
REMARK    4  A    between atoms: C_20  and  C_21
REMARK                            x       y       z     vdW  Elec       q    Type
REMARK                         _______ _______ _______ _____ _____    ______ ____
ROOT
ATOM      1  C   UNL     1       4.876   4.526  16.869  0.00  0.00    +0.000 A 
ATOM      2  C   UNL     1       4.786   3.166  17.191  0.00  0.00    +0.000 A 
ATOM      3  C   UNL     1       3.938   2.751  18.194  0.00  0.00    +0.000 A 
ATOM      4  N   UNL     1       3.161   3.579  18.900  0.00  0.00    +0.000 NA
ATOM      5  C   UNL     1       3.205   4.891  18.642  0.00  0.00    +0.000 A 
ATOM      6  C   UNL     1       2.400   5.750  19.390  0.00  0.00    +0.000 A 
ATOM      7  C   UNL     1       2.423   7.138  19.160  0.00  0.00    +0.000 A 
ATOM      8  C   UNL     1       3.262   7.678  18.201  0.00  0.00    +0.000 A 
ATOM      9  C   UNL     1       4.077   6.830  17.460  0.00  0.00    +0.000 A 
ATOM     10  C   UNL     1       4.060   5.426  17.631  0.00  0.00    +0.000 A 
ENDROOT
BRANCH   1  13
ATOM     11  C   UNL     1       7.317   4.519  14.079  0.00  0.00    +0.000 C 
ATOM     12  C   UNL     1       7.036   4.333  15.594  0.00  0.00    +0.000 C 
ATOM     13  N   UNL     1       5.734   4.971  15.854  0.00  0.00    +0.000 N 
ATOM     14  C   UNL     1       5.126   5.407  14.582  0.00  0.00    +0.000 C 
ATOM     15  C   UNL     1       5.920   4.711  13.467  0.00  0.00    +0.000 C 
BRANCH  11  16
ATOM     16  N   UNL     1       8.193   5.672  13.808  0.00  0.00    +0.000 NA
ATOM     17  H   UNL     1       7.742   6.279  13.121  0.00  0.00    +0.000 HD
ATOM     18  H   UNL     1       9.044   5.338  13.358  0.00  0.00    +0.000 HD
ENDBRANCH  11  16
BRANCH  15  19
ATOM     19  C   UNL     1       5.282   3.403  13.048  0.00  0.00    +0.000 C 
ATOM     20  C   UNL     1       4.550   3.310  11.729  0.00  0.00    +0.000 C 
ATOM     21  C   UNL     1       5.873   2.622  11.898  0.00  0.00    +0.000 C 
ENDBRANCH  15  19
ENDBRANCH   1  13
BRANCH   6  22
ATOM     22  C   UNL     1       1.472   5.244  20.468  0.00  0.00    +0.000 C 
ATOM     23  F   UNL     1       0.545   4.310  20.132  0.00  0.00    +0.000 F 
ATOM     24  F   UNL     1       2.170   4.694  21.509  0.00  0.00    +0.000 F 
ATOM     25  F   UNL     1       0.760   6.271  21.033  0.00  0.00    +0.000 F 
ENDBRANCH   6  22
TORSDOF 4
ENDMDL
MODEL 2
REMARK VINA RESULT:      -7.4      4.738      6.422
REMARK  Name = 
REMARK  4 active torsions:
REMARK  status: ('A' for Active; 'I' for Inactive)
REMARK    1  A    between atoms: N_1  and  C_2
REMARK    2  A    between atoms: N_4  and  C_5
REMARK    3  A    between atoms: C_10  and  C_11
REMARK    4  A    between atoms: C_20  and  C_21
REMARK                            x       y       z     vdW  Elec       q    Type
REMARK                         _______ _______ _______ _____ _____    ______ ____
ROOT
ATOM      1  C   UNL     1       2.190   7.023  19.586  0.00  0.00    +0.000 A 
ATOM      2  C   UNL     1       2.587   7.156  18.249  0.00  0.00    +0.000 A 
ATOM      3  C   UNL     1       2.351   8.333  17.576  0.00  0.00    +0.000 A 
ATOM      4  N   UNL     1       1.757   9.399  18.125  0.00  0.00    +0.000 NA
ATOM      5  C   UNL     1       1.351   9.332  19.398  0.00  0.00    +0.000 A 
ATOM      6  C   UNL     1       0.724  10.442  19.961  0.00  0.00    +0.000 A 
ATOM      7  C   UNL     1       0.270  10.412  21.293  0.00  0.00    +0.000 A 
ATOM      8  C   UNL     1       0.420   9.271  22.061  0.00  0.00    +0.000 A 
ATOM      9  C   UNL     1       1.032   8.155  21.502  0.00  0.00    +0.000 A 
ATOM     10  C   UNL     1       1.537   8.152  20.181  0.00  0.00    +0.000 A 
ENDROOT
BRANCH   1  13
ATOM     11  C   UNL     1       2.006   3.472  20.635  0.00  0.00    +0.000 C 
ATOM     12  C   UNL     1       1.338   4.871  20.572  0.00  0.00    +0.000 C 
ATOM     13  N   UNL     1       2.418   5.833  20.291  0.00  0.00    +0.000 N 
ATOM     14  C   UNL     1       3.677   5.110  20.030  0.00  0.00    +0.000 C 
ATOM     15  C   UNL     1       3.290   3.641  19.807  0.00  0.00    +0.000 C 
BRANCH  11  16
ATOM     16  N   UNL     1       2.300   3.052  22.017  0.00  0.00    +0.000 NA
ATOM     17  H   UNL     1       1.461   3.171  22.587  0.00  0.00    +0.000 HD
ATOM     18  H   UNL     1       2.990   3.689  22.412  0.00  0.00    +0.000 HD
ENDBRANCH  11  16
BRANCH  15  19
ATOM     19  C   UNL     1       3.084   3.325  18.341  0.00  0.00    +0.000 C 
ATOM     20  C   UNL     1       3.523   1.989  17.788  0.00  0.00    +0.000 C 
ATOM     21  C   UNL     1       2.060   2.288  17.940  0.00  0.00    +0.000 C 
ENDBRANCH  15  19
ENDBRANCH   1  13
BRANCH   6  22
ATOM     22  C   UNL     1       0.504  11.719  19.186  0.00  0.00    +0.000 C 
ATOM     23  F   UNL     1       1.562  12.268  18.537  0.00  0.00    +0.000 F 
ATOM     24  F   UNL     1      -0.458  11.559  18.224  0.00  0.00    +0.000 F 
ATOM     25  F   UNL     1       0.021  12.715  19.995  0.00  0.00    +0.000 F 
ENDBRANCH   6  22
TORSDOF 4
ENDMDL
MODEL 3
REMARK VINA RESULT:      -7.1      1.726      3.112
REMARK  Name = 
REMARK  4 active torsions:
REMARK  status: ('A' for Active; 'I' for Inactive)
REMARK    1  A    between atoms: N_1  and  C_2
REMARK    2  A    between atoms: N_4  and  C_5
REMARK    3  A    between atoms: C_10  and  C_11
REMARK    4  A    between atoms: C_20  and  C_21
REMARK                            x       y       z     vdW  Elec       q    Type
REMARK                         _______ _______ _______ _____ _____    ______ ____
ROOT
ATOM      1  C   UNL     1       4.679   3.536  17.144  0.00  0.00    +0.000 A 
ATOM      2  C   UNL     1       4.446   2.159  17.249  0.00  0.00    +0.000 A 
ATOM      3  C   UNL     1       3.450   1.692  18.077  0.00  0.00    +0.000 A 
ATOM      4  N   UNL     1       2.655   2.483  18.807  0.00  0.00    +0.000 NA
ATOM      5  C   UNL     1       2.832   3.808  18.752  0.00  0.00    +0.000 A 
ATOM      6  C   UNL     1       2.008   4.627  19.523  0.00  0.00    +0.000 A 
ATOM      7  C   UNL     1       2.166   6.026  19.505  0.00  0.00    +0.000 A 
ATOM      8  C   UNL     1       3.157   6.611  18.737  0.00  0.00    +0.000 A 
ATOM      9  C   UNL     1       3.991   5.801  17.976  0.00  0.00    +0.000 A 
ATOM     10  C   UNL     1       3.846   4.395  17.935  0.00  0.00    +0.000 A 
ENDROOT
BRANCH   1  13
ATOM     11  C   UNL     1       6.729   5.868  15.119  0.00  0.00    +0.000 C 
ATOM     12  C   UNL     1       5.421   5.048  15.276  0.00  0.00    +0.000 C 
ATOM     13  N   UNL     1       5.690   4.034  16.310  0.00  0.00    +0.000 N 
ATOM     14  C   UNL     1       7.019   4.266  16.905  0.00  0.00    +0.000 C 
ATOM     15  C   UNL     1       7.448   5.672  16.464  0.00  0.00    +0.000 C 
BRANCH  11  16
ATOM     16  N   UNL     1       7.552   5.401  13.989  0.00  0.00    +0.000 NA
ATOM     17  H   UNL     1       8.519   5.296  14.302  0.00  0.00    +0.000 HD
ATOM     18  H   UNL     1       7.574   6.129  13.277  0.00  0.00    +0.000 HD
ENDBRANCH  11  16
BRANCH  15  19
ATOM     19  C   UNL     1       7.072   6.726  17.484  0.00  0.00    +0.000 C 
ATOM     20  C   UNL     1       8.044   7.094  18.581  0.00  0.00    +0.000 C 
ATOM     21  C   UNL     1       7.777   8.063  17.466  0.00  0.00    +0.000 C 
ENDBRANCH  15  19
ENDBRANCH   1  13
BRANCH   6  22
ATOM     22  C   UNL     1       0.916   4.067  20.402  0.00  0.00    +0.000 C 
ATOM     23  F   UNL     1       0.155   3.055  19.915  0.00  0.00    +0.000 F 
ATOM     24  F   UNL     1       1.421   3.596  21.585  0.00  0.00    +0.000 F 
ATOM     25  F   UNL     1       0.026   5.042  20.771  0.00  0.00    +0.000 F 
ENDBRANCH   6  22
TORSDOF 4
ENDMDL
MODEL 4
REMARK VINA RESULT:      -7.1      3.862      7.994
REMARK  Name = 
REMARK  4 active torsions:
REMARK  status: ('A' for Active; 'I' for Inactive)
REMARK    1  A    between atoms: N_1  and  C_2
REMARK    2  A    between atoms: N_4  and  C_5
REMARK    3  A    between atoms: C_10  and  C_11
REMARK    4  A    between atoms: C_20  and  C_21
REMARK                            x       y       z     vdW  Elec       q    Type
REMARK                         _______ _______ _______ _____ _____    ______ ____
ROOT
ATOM      1  C   UNL     1       1.802   7.325  20.102  0.00  0.00    +0.000 A 
ATOM      2  C   UNL     1       2.241   8.080  19.008  0.00  0.00    +0.000 A 
ATOM      3  C   UNL     1       2.897   7.463  17.966  0.00  0.00    +0.000 A 
ATOM      4  N   UNL     1       3.145   6.149  17.917  0.00  0.00    +0.000 NA
ATOM      5  C   UNL     1       2.754   5.375  18.936  0.00  0.00    +0.000 A 
ATOM      6  C   UNL     1       3.026   4.009  18.883  0.00  0.00    +0.000 A 
ATOM      7  C   UNL     1       2.642   3.159  19.937  0.00  0.00    +0.000 A 
ATOM      8  C   UNL     1       2.006   3.670  21.055  0.00  0.00    +0.000 A 
ATOM      9  C   UNL     1       1.744   5.033  21.121  0.00  0.00    +0.000 A 
ATOM     10  C   UNL     1       2.078   5.918  20.070  0.00  0.00    +0.000 A 
ENDROOT
BRANCH   1  13
ATOM     11  C   UNL     1       0.621   9.888  22.507  0.00  0.00    +0.000 C 
ATOM     12  C   UNL     1       1.769   8.972  22.004  0.00  0.00    +0.000 C 
ATOM     13  N   UNL     1       1.134   7.932  21.176  0.00  0.00    +0.000 N 
ATOM     14  C   UNL     1      -0.302   8.228  21.013  0.00  0.00    +0.000 C 
ATOM     15  C   UNL     1      -0.495   9.680  21.471  0.00  0.00    +0.000 C 
BRANCH  11  16
ATOM     16  N   UNL     1       0.175   9.534  23.866  0.00  0.00    +0.000 NA
ATOM     17  H   UNL     1      -0.642  10.098  24.106  0.00  0.00    +0.000 HD
ATOM     18  H   UNL     1       0.899   9.807  24.529  0.00  0.00    +0.000 HD
ENDBRANCH  11  16
BRANCH  15  19
ATOM     19  C   UNL     1      -0.409  10.656  20.317  0.00  0.00    +0.000 C 
ATOM     20  C   UNL     1      -1.460  11.728  20.155  0.00  0.00    +0.000 C 
ATOM     21  C   UNL     1      -0.074  12.104  20.590  0.00  0.00    +0.000 C 
ENDBRANCH  15  19
ENDBRANCH   1  13
BRANCH   6  22
ATOM     22  C   UNL     1       3.733   3.375  17.709  0.00  0.00    +0.000 C 
ATOM     23  F   UNL     1       4.966   3.834  17.377  0.00  0.00    +0.000 F 
ATOM     24  F   UNL     1       3.892   2.028  17.890  0.00  0.00    +0.000 F 
ATOM     25  F   UNL     1       2.988   3.484  16.563  0.00  0.00    +0.000 F 
ENDBRANCH   6  22
TORSDOF 4
ENDMDL
MODEL 5
REMARK VINA RESULT:      -7.0      2.850      4.190
REMARK  Name = 
REMARK  4 active torsions:
REMARK  status: ('A' for Active; 'I' for Inactive)
REMARK    1  A    between atoms: N_1  and  C_2
REMARK    2  A    between atoms: N_4  and  C_5
REMARK    3  A    between atoms: C_10  and  C_11
REMARK    4  A    between atoms: C_20  and  C_21
REMARK                            x       y       z     vdW  Elec       q    Type
REMARK                         _______ _______ _______ _____ _____    ______ ____
ROOT
ATOM      1  C   UNL     1       2.906   6.282  18.667  0.00  0.00    +0.000 A 
ATOM      2  C   UNL     1       2.783   5.322  19.679  0.00  0.00    +0.000 A 
ATOM      3  C   UNL     1       2.053   5.606  20.811  0.00  0.00    +0.000 A 
ATOM      4  N   UNL     1       1.423   6.768  21.018  0.00  0.00    +0.000 NA
ATOM      5  C   UNL     1       1.507   7.727  20.090  0.00  0.00    +0.000 A 
ATOM      6  C   UNL     1       0.857   8.940  20.316  0.00  0.00    +0.000 A 
ATOM      7  C   UNL     1       0.928   9.980  19.372  0.00  0.00    +0.000 A 
ATOM      8  C   UNL     1       1.662   9.825  18.209  0.00  0.00    +0.000 A 
ATOM      9  C   UNL     1       2.324   8.624  17.981  0.00  0.00    +0.000 A 
ATOM     10  C   UNL     1       2.250   7.539  18.885  0.00  0.00    +0.000 A 
ENDROOT
BRANCH   1  13
ATOM     11  C   UNL     1       5.704   6.156  16.238  0.00  0.00    +0.000 C 
ATOM     12  C   UNL     1       4.603   6.987  16.949  0.00  0.00    +0.000 C 
ATOM     13  N   UNL     1       3.647   6.016  17.507  0.00  0.00    +0.000 N 
ATOM     14  C   UNL     1       4.157   4.645  17.317  0.00  0.00    +0.000 C 
ATOM     15  C   UNL     1       5.637   4.788  16.935  0.00  0.00    +0.000 C 
BRANCH  11  16
ATOM     16  N   UNL     1       5.471   6.041  14.787  0.00  0.00    +0.000 NA
ATOM     17  H   UNL     1       6.285   5.602  14.353  0.00  0.00    +0.000 HD
ATOM     18  H   UNL     1       5.421   6.977  14.388  0.00  0.00    +0.000 HD
ENDBRANCH  11  16
BRANCH  15  19
ATOM     19  C   UNL     1       6.547   4.703  18.142  0.00  0.00    +0.000 C 
ATOM     20  C   UNL     1       8.024   4.442  17.957  0.00  0.00    +0.000 C 
ATOM     21  C   UNL     1       7.555   5.800  18.392  0.00  0.00    +0.000 C 
ENDBRANCH  15  19
ENDBRANCH   1  13
BRANCH   6  22
ATOM     22  C   UNL     1       0.052   9.198  21.568  0.00  0.00    +0.000 C 
ATOM     23  F   UNL     1      -0.852   8.262  21.954  0.00  0.00    +0.000 F 
ATOM     24  F   UNL     1       0.864   9.377  22.655  0.00  0.00    +0.000 F 
ATOM     25  F   UNL     1      -0.658  10.366  21.470  0.00  0.00    +0.000 F 
ENDBRANCH   6  22
TORSDOF 4
ENDMDL
MODEL 6
REMARK VINA RESULT:      -6.9      2.554      3.918
REMARK  Name = 
REMARK  4 active torsions:
REMARK  status: ('A' for Active; 'I' for Inactive)
REMARK    1  A    between atoms: N_1  and  C_2
REMARK    2  A    between atoms: N_4  and  C_5
REMARK    3  A    between atoms: C_10  and  C_11
REMARK    4  A    between atoms: C_20  and  C_21
REMARK                            x       y       z     vdW  Elec       q    Type
REMARK                         _______ _______ _______ _____ _____    ______ ____
ROOT
ATOM      1  C   UNL     1       3.366   4.877  19.233  0.00  0.00    +0.000 A 
ATOM      2  C   UNL     1       2.926   4.092  20.306  0.00  0.00    +0.000 A 
ATOM      3  C   UNL     1       2.023   4.606  21.210  0.00  0.00    +0.000 A 
ATOM      4  N   UNL     1       1.511   5.840  21.131  0.00  0.00    +0.000 NA
ATOM      5  C   UNL     1       1.896   6.640  20.130  0.00  0.00    +0.000 A 
ATOM      6  C   UNL     1       1.368   7.928  20.060  0.00  0.00    +0.000 A 
ATOM      7  C   UNL     1       1.753   8.808  19.031  0.00  0.00    +0.000 A 
ATOM      8  C   UNL     1       2.681   8.416  18.083  0.00  0.00    +0.000 A 
ATOM      9  C   UNL     1       3.223   7.138  18.154  0.00  0.00    +0.000 A 
ATOM     10  C   UNL     1       2.838   6.208  19.147  0.00  0.00    +0.000 A 
ENDROOT
BRANCH   1  13
ATOM     11  C   UNL     1       5.579   4.622  16.270  0.00  0.00    +0.000 C 
ATOM     12  C   UNL     1       4.142   4.609  16.855  0.00  0.00    +0.000 C 
ATOM     13  N   UNL     1       4.287   4.376  18.302  0.00  0.00    +0.000 N 
ATOM     14  C   UNL     1       5.715   4.392  18.672  0.00  0.00    +0.000 C 
ATOM     15  C   UNL     1       6.461   4.993  17.473  0.00  0.00    +0.000 C 
BRANCH  11  16
ATOM     16  N   UNL     1       5.962   3.321  15.694  0.00  0.00    +0.000 NA
ATOM     17  H   UNL     1       6.953   3.153  15.881  0.00  0.00    +0.000 HD
ATOM     18  H   UNL     1       5.882   3.375  14.680  0.00  0.00    +0.000 HD
ENDBRANCH  11  16
BRANCH  15  19
ATOM     19  C   UNL     1       6.654   6.488  17.615  0.00  0.00    +0.000 C 
ATOM     20  C   UNL     1       7.923   7.030  18.231  0.00  0.00    +0.000 C 
ATOM     21  C   UNL     1       7.681   7.191  16.758  0.00  0.00    +0.000 C 
ENDBRANCH  15  19
ENDBRANCH   1  13
BRANCH   6  22
ATOM     22  C   UNL     1       0.365   8.440  21.066  0.00  0.00    +0.000 C 
ATOM     23  F   UNL     1      -0.713   7.666  21.351  0.00  0.00    +0.000 F 
ATOM     24  F   UNL     1       0.955   8.687  22.277  0.00  0.00    +0.000 F 
ATOM     25  F   UNL     1      -0.152   9.650  20.681  0.00  0.00    +0.000 F 
ENDBRANCH   6  22
TORSDOF 4
ENDMDL
MODEL 7
REMARK VINA RESULT:      -6.7      3.818      5.869
REMARK  Name = 
REMARK  4 active torsions:
REMARK  status: ('A' for Active; 'I' for Inactive)
REMARK    1  A    between atoms: N_1  and  C_2
REMARK    2  A    between atoms: N_4  and  C_5
REMARK    3  A    between atoms: C_10  and  C_11
REMARK    4  A    between atoms: C_20  and  C_21
REMARK                            x       y       z     vdW  Elec       q    Type
REMARK                         _______ _______ _______ _____ _____    ______ ____
ROOT
ATOM      1  C   UNL     1       2.264   7.458  19.060  0.00  0.00    +0.000 A 
ATOM      2  C   UNL     1       2.580   8.075  17.843  0.00  0.00    +0.000 A 
ATOM      3  C   UNL     1       2.161   9.364  17.597  0.00  0.00    +0.000 A 
ATOM      4  N   UNL     1       1.459  10.098  18.468  0.00  0.00    +0.000 NA
ATOM      5  C   UNL     1       1.123   9.562  19.647  0.00  0.00    +0.000 A 
ATOM      6  C   UNL     1       0.382  10.328  20.545  0.00  0.00    +0.000 A 
ATOM      7  C   UNL     1      -0.004   9.800  21.792  0.00  0.00    +0.000 A 
ATOM      8  C   UNL     1       0.329   8.503  22.139  0.00  0.00    +0.000 A 
ATOM      9  C   UNL     1       1.056   7.728  21.243  0.00  0.00    +0.000 A 
ATOM     10  C   UNL     1       1.496   8.228  19.995  0.00  0.00    +0.000 A 
ENDROOT
BRANCH   1  13
ATOM     11  C   UNL     1       3.124   3.881  18.604  0.00  0.00    +0.000 C 
ATOM     12  C   UNL     1       2.031   4.978  18.709  0.00  0.00    +0.000 C 
ATOM     13  N   UNL     1       2.677   6.146  19.332  0.00  0.00    +0.000 N 
ATOM     14  C   UNL     1       4.123   5.898  19.483  0.00  0.00    +0.000 C 
ATOM     15  C   UNL     1       4.441   4.674  18.614  0.00  0.00    +0.000 C 
BRANCH  11  16
ATOM     16  N   UNL     1       3.060   2.916  19.716  0.00  0.00    +0.000 NA
ATOM     17  H   UNL     1       2.098   2.863  20.056  0.00  0.00    +0.000 HD
ATOM     18  H   UNL     1       3.604   3.281  20.496  0.00  0.00    +0.000 HD
ENDBRANCH  11  16
BRANCH  15  19
ATOM     19  C   UNL     1       4.897   5.066  17.225  0.00  0.00    +0.000 C 
ATOM     20  C   UNL     1       6.208   4.543  16.685  0.00  0.00    +0.000 C 
ATOM     21  C   UNL     1       4.913   4.028  16.127  0.00  0.00    +0.000 C 
ENDBRANCH  15  19
ENDBRANCH   1  13
BRANCH   6  22
ATOM     22  C   UNL     1      -0.038  11.745  20.236  0.00  0.00    +0.000 C 
ATOM     23  F   UNL     1       0.920  12.634  19.871  0.00  0.00    +0.000 F 
ATOM     24  F   UNL     1      -0.961  11.782  19.226  0.00  0.00    +0.000 F 
ATOM     25  F   UNL     1      -0.674  12.320  21.306  0.00  0.00    +0.000 F 
ENDBRANCH   6  22
TORSDOF 4
ENDMDL
MODEL 8
REMARK VINA RESULT:      -6.6      3.592      6.542
REMARK  Name = 
REMARK  4 active torsions:
REMARK  status: ('A' for Active; 'I' for Inactive)
REMARK    1  A    between atoms: N_1  and  C_2
REMARK    2  A    between atoms: N_4  and  C_5
REMARK    3  A    between atoms: C_10  and  C_11
REMARK    4  A    between atoms: C_20  and  C_21
REMARK                            x       y       z     vdW  Elec       q    Type
REMARK                         _______ _______ _______ _____ _____    ______ ____
ROOT
ATOM      1  C   UNL     1       2.186   6.987  19.456  0.00  0.00    +0.000 A 
ATOM      2  C   UNL     1       1.406   6.491  20.509  0.00  0.00    +0.000 A 
ATOM      3  C   UNL     1       1.386   5.140  20.773  0.00  0.00    +0.000 A 
ATOM      4  N   UNL     1       2.087   4.236  20.079  0.00  0.00    +0.000 NA
ATOM      5  C   UNL     1       2.847   4.646  19.058  0.00  0.00    +0.000 A 
ATOM      6  C   UNL     1       3.566   3.698  18.333  0.00  0.00    +0.000 A 
ATOM      7  C   UNL     1       4.370   4.084  17.245  0.00  0.00    +0.000 A 
ATOM      8  C   UNL     1       4.444   5.411  16.862  0.00  0.00    +0.000 A 
ATOM      9  C   UNL     1       3.719   6.362  17.571  0.00  0.00    +0.000 A 
ATOM     10  C   UNL     1       2.928   6.025  18.694  0.00  0.00    +0.000 A 
ENDROOT
BRANCH   1  13
ATOM     11  C   UNL     1       1.517  10.252  17.833  0.00  0.00    +0.000 C 
ATOM     12  C   UNL     1       2.215   8.867  17.785  0.00  0.00    +0.000 C 
ATOM     13  N   UNL     1       2.220   8.358  19.167  0.00  0.00    +0.000 N 
ATOM     14  C   UNL     1       1.445   9.263  20.037  0.00  0.00    +0.000 C 
ATOM     15  C   UNL     1       0.648  10.181  19.100  0.00  0.00    +0.000 C 
BRANCH  11  16
ATOM     16  N   UNL     1       2.481  11.365  17.896  0.00  0.00    +0.000 NA
ATOM     17  H   UNL     1       2.119  12.083  18.525  0.00  0.00    +0.000 HD
ATOM     18  H   UNL     1       2.531  11.806  16.979  0.00  0.00    +0.000 HD
ENDBRANCH  11  16
BRANCH  15  19
ATOM     19  C   UNL     1      -0.740   9.644  18.825  0.00  0.00    +0.000 C 
ATOM     20  C   UNL     1      -1.914  10.593  18.743  0.00  0.00    +0.000 C 
ATOM     21  C   UNL     1      -1.400   9.933  17.497  0.00  0.00    +0.000 C 
ENDBRANCH  15  19
ENDBRANCH   1  13
BRANCH   6  22
ATOM     22  C   UNL     1       3.525   2.227  18.673  0.00  0.00    +0.000 C 
ATOM     23  F   UNL     1       2.329   1.677  19.002  0.00  0.00    +0.000 F 
ATOM     24  F   UNL     1       3.996   1.463  17.639  0.00  0.00    +0.000 F 
ATOM     25  F   UNL     1       4.357   1.937  19.724  0.00  0.00    +0.000 F 
ENDBRANCH   6  22
TORSDOF 4
ENDMDL
MODEL 9
REMARK VINA RESULT:      -6.6      3.902      7.396
REMARK  Name = 
REMARK  4 active torsions:
REMARK  status: ('A' for Active; 'I' for Inactive)
REMARK    1  A    between atoms: N_1  and  C_2
REMARK    2  A    between atoms: N_4  and  C_5
REMARK    3  A    between atoms: C_10  and  C_11
REMARK    4  A    between atoms: C_20  and  C_21
REMARK                            x       y       z     vdW  Elec       q    Type
REMARK                         _______ _______ _______ _____ _____    ______ ____
ROOT
ATOM      1  C   UNL     1       2.144   7.927  18.895  0.00  0.00    +0.000 A 
ATOM      2  C   UNL     1       2.958   8.295  17.816  0.00  0.00    +0.000 A 
ATOM      3  C   UNL     1       3.883   7.405  17.317  0.00  0.00    +0.000 A 
ATOM      4  N   UNL     1       4.061   6.169  17.798  0.00  0.00    +0.000 NA
ATOM      5  C   UNL     1       3.316   5.760  18.831  0.00  0.00    +0.000 A 
ATOM      6  C   UNL     1       3.514   4.475  19.334  0.00  0.00    +0.000 A 
ATOM      7  C   UNL     1       2.761   4.008  20.427  0.00  0.00    +0.000 A 
ATOM      8  C   UNL     1       1.824   4.824  21.036  0.00  0.00    +0.000 A 
ATOM      9  C   UNL     1       1.631   6.112  20.549  0.00  0.00    +0.000 A 
ATOM     10  C   UNL     1       2.338   6.611  19.430  0.00  0.00    +0.000 A 
ENDROOT
BRANCH   1  13
ATOM     11  C   UNL     1       0.648  10.820  20.666  0.00  0.00    +0.000 C 
ATOM     12  C   UNL     1       1.365   9.445  20.743  0.00  0.00    +0.000 C 
ATOM     13  N   UNL     1       1.198   8.817  19.421  0.00  0.00    +0.000 N 
ATOM     14  C   UNL     1       0.558   9.768  18.492  0.00  0.00    +0.000 C 
ATOM     15  C   UNL     1       0.641  11.146  19.164  0.00  0.00    +0.000 C 
BRANCH  11  16
ATOM     16  N   UNL     1      -0.717  10.772  21.220  0.00  0.00    +0.000 NA
ATOM     17  H   UNL     1      -0.673  10.442  22.185  0.00  0.00    +0.000 HD
ATOM     18  H   UNL     1      -1.250  10.067  20.715  0.00  0.00    +0.000 HD
ENDBRANCH  11  16
BRANCH  15  19
ATOM     19  C   UNL     1       1.869  11.917  18.728  0.00  0.00    +0.000 C 
ATOM     20  C   UNL     1       1.727  13.326  18.202  0.00  0.00    +0.000 C 
ATOM     21  C   UNL     1       2.339  13.093  19.552  0.00  0.00    +0.000 C 
ENDBRANCH  15  19
ENDBRANCH   1  13
BRANCH   6  22
ATOM     22  C   UNL     1       4.529   3.528  18.740  0.00  0.00    +0.000 C 
ATOM     23  F   UNL     1       4.387   3.167  17.439  0.00  0.00    +0.000 F 
ATOM     24  F   UNL     1       5.798   4.036  18.831  0.00  0.00    +0.000 F 
ATOM     25  F   UNL     1       4.578   2.350  19.438  0.00  0.00    +0.000 F 
ENDBRANCH   6  22
TORSDOF 4
ENDMDL
