MODEL 1
REMARK VINA RESULT:      -7.9      0.000      0.000
REMARK  Name = 
REMARK  8 active torsions:
REMARK  status: ('A' for Active; 'I' for Inactive)
REMARK    1  A    between atoms: C_1  and  O_2
REMARK    2  A    between atoms: O_2  and  C_3
REMARK    3  A    between atoms: C_3  and  C_5
REMARK    4  A    between atoms: C_8  and  C_9
REMARK    5  A    between atoms: C_9  and  C_11
REMARK    6  A    between atoms: C_11  and  C_12
REMARK    7  A    between atoms: N_14  and  N_15
REMARK    8  A    between atoms: N_15  and  C_16
REMARK                            x       y       z     vdW  Elec       q    Type
REMARK                         _______ _______ _______ _____ _____    ______ ____
ROOT
ATOM      1  C   UNL     1       6.710   6.808  17.434  0.00  0.00    +0.000 C 
ATOM      2  N   UNL     1       7.196   8.020  17.400  0.00  0.00    +0.000 NA
ENDROOT
BRANCH   1   3
ATOM      3  C   UNL     1       5.460   6.468  16.677  0.00  0.00    +0.000 C 
ATOM      4  O   UNL     1       5.398   6.825  15.505  0.00  0.00    +0.000 OA
BRANCH   3   8
ATOM      5  C   UNL     1       2.213   4.204  18.365  0.00  0.00    +0.000 A 
ATOM      6  C   UNL     1       3.250   3.576  17.668  0.00  0.00    +0.000 A 
ATOM      7  C   UNL     1       4.297   4.331  17.129  0.00  0.00    +0.000 A 
ATOM      8  C   UNL     1       4.331   5.725  17.293  0.00  0.00    +0.000 A 
ATOM      9  C   UNL     1       3.292   6.357  17.985  0.00  0.00    +0.000 A 
ATOM     10  C   UNL     1       2.237   5.598  18.515  0.00  0.00    +0.000 A 
BRANCH   5  11
ATOM     11  C   UNL     1       1.119   3.354  18.918  0.00  0.00    +0.000 C 
ATOM     12  O   UNL     1       0.615   2.420  18.316  0.00  0.00    +0.000 OA
BRANCH  11  14
ATOM     13  C   UNL     1       1.528   3.161  21.215  0.00  0.00    +0.000 C 
ATOM     14  O   UNL     1       0.781   3.774  20.164  0.00  0.00    +0.000 OA
ENDBRANCH  11  14
ENDBRANCH   5  11
ENDBRANCH   3   8
ENDBRANCH   1   3
BRANCH   1  15
ATOM     15  C   UNL     1       7.378   5.819  18.249  0.00  0.00    +0.000 C 
ATOM     16  N   UNL     1       7.993   5.059  18.879  0.00  0.00    +0.000 NA
ENDBRANCH   1  15
BRANCH   2  17
ATOM     17  N   UNL     1       8.336   8.322  18.087  0.00  0.00    +0.000 N 
ATOM     18  H   UNL     1       8.814   7.657  18.702  0.00  0.00    +0.000 HD
BRANCH  17  19
ATOM     19  C   UNL     1       8.679   9.672  18.300  0.00  0.00    +0.000 A 
ATOM     20  C   UNL     1       9.615  10.064  19.265  0.00  0.00    +0.000 A 
ATOM     21  C   UNL     1       9.865  11.417  19.506  0.00  0.00    +0.000 A 
ATOM     22 CL   UNL     1      11.025  11.868  20.696  0.00  0.00    +0.000 Cl
ATOM     23  C   UNL     1       9.179  12.403  18.805  0.00  0.00    +0.000 A 
ATOM     24  C   UNL     1       8.241  12.023  17.853  0.00  0.00    +0.000 A 
ATOM     25 CL   UNL     1       7.370  13.228  16.986  0.00  0.00    +0.000 Cl
ATOM     26  C   UNL     1       7.988  10.672  17.600  0.00  0.00    +0.000 A 
ENDBRANCH  17  19
ENDBRANCH   2  17
TORSDOF 7
ENDMDL
MODEL 2
REMARK VINA RESULT:      -7.8      1.421      2.061
REMARK  Name = 
REMARK  8 active torsions:
REMARK  status: ('A' for Active; 'I' for Inactive)
REMARK    1  A    between atoms: C_1  and  O_2
REMARK    2  A    between atoms: O_2  and  C_3
REMARK    3  A    between atoms: C_3  and  C_5
REMARK    4  A    between atoms: C_8  and  C_9
REMARK    5  A    between atoms: C_9  and  C_11
REMARK    6  A    between atoms: C_11  and  C_12
REMARK    7  A    between atoms: N_14  and  N_15
REMARK    8  A    between atoms: N_15  and  C_16
REMARK                            x       y       z     vdW  Elec       q    Type
REMARK                         _______ _______ _______ _____ _____    ______ ____
ROOT
ATOM      1  C   UNL     1       7.752   6.858  18.223  0.00  0.00    +0.000 C 
ATOM      2  N   UNL     1       8.206   8.082  18.168  0.00  0.00    +0.000 NA
ENDROOT
BRANCH   1   3
ATOM      3  C   UNL     1       6.909   6.308  17.110  0.00  0.00    +0.000 C 
ATOM      4  O   UNL     1       7.395   6.310  15.984  0.00  0.00    +0.000 OA
BRANCH   3   8
ATOM      5  C   UNL     1       2.976   4.650  17.652  0.00  0.00    +0.000 A 
ATOM      6  C   UNL     1       4.008   3.898  17.085  0.00  0.00    +0.000 A 
ATOM      7  C   UNL     1       5.280   4.456  16.919  0.00  0.00    +0.000 A 
ATOM      8  C   UNL     1       5.543   5.771  17.335  0.00  0.00    +0.000 A 
ATOM      9  C   UNL     1       4.510   6.529  17.898  0.00  0.00    +0.000 A 
ATOM     10  C   UNL     1       3.232   5.970  18.052  0.00  0.00    +0.000 A 
BRANCH   5  11
ATOM     11  C   UNL     1       1.637   4.010  17.805  0.00  0.00    +0.000 C 
ATOM     12  O   UNL     1       0.690   4.232  17.067  0.00  0.00    +0.000 OA
BRANCH  11  14
ATOM     13  C   UNL     1       0.958   3.667  20.019  0.00  0.00    +0.000 C 
ATOM     14  O   UNL     1       1.637   3.165  18.867  0.00  0.00    +0.000 OA
ENDBRANCH  11  14
ENDBRANCH   5  11
ENDBRANCH   3   8
ENDBRANCH   1   3
BRANCH   1  15
ATOM     15  C   UNL     1       8.044   6.066  19.396  0.00  0.00    +0.000 C 
ATOM     16  N   UNL     1       8.192   5.423  20.353  0.00  0.00    +0.000 NA
ENDBRANCH   1  15
BRANCH   2  17
ATOM     17  N   UNL     1       8.976   8.575  19.181  0.00  0.00    +0.000 N 
ATOM     18  H   UNL     1       9.136   8.074  20.060  0.00  0.00    +0.000 HD
BRANCH  17  19
ATOM     19  C   UNL     1       9.251   9.956  19.233  0.00  0.00    +0.000 A 
ATOM     20  C   UNL     1       9.714  10.670  18.121  0.00  0.00    +0.000 A 
ATOM     21  C   UNL     1      10.057  12.019  18.234  0.00  0.00    +0.000 A 
ATOM     22 CL   UNL     1      10.619  12.872  16.847  0.00  0.00    +0.000 Cl
ATOM     23  C   UNL     1       9.962  12.678  19.455  0.00  0.00    +0.000 A 
ATOM     24  C   UNL     1       9.514  11.974  20.566  0.00  0.00    +0.000 A 
ATOM     25 CL   UNL     1       9.404  12.767  22.090  0.00  0.00    +0.000 Cl
ATOM     26  C   UNL     1       9.162  10.625  20.463  0.00  0.00    +0.000 A 
ENDBRANCH  17  19
ENDBRANCH   2  17
TORSDOF 7
ENDMDL
MODEL 3
REMARK VINA RESULT:      -7.5      1.280      2.116
REMARK  Name = 
REMARK  8 active torsions:
REMARK  status: ('A' for Active; 'I' for Inactive)
REMARK    1  A    between atoms: C_1  and  O_2
REMARK    2  A    between atoms: O_2  and  C_3
REMARK    3  A    between atoms: C_3  and  C_5
REMARK    4  A    between atoms: C_8  and  C_9
REMARK    5  A    between atoms: C_9  and  C_11
REMARK    6  A    between atoms: C_11  and  C_12
REMARK    7  A    between atoms: N_14  and  N_15
REMARK    8  A    between atoms: N_15  and  C_16
REMARK                            x       y       z     vdW  Elec       q    Type
REMARK                         _______ _______ _______ _____ _____    ______ ____
ROOT
ATOM      1  C   UNL     1       7.311   7.026  17.993  0.00  0.00    +0.000 C 
ATOM      2  N   UNL     1       7.833   8.224  17.960  0.00  0.00    +0.000 NA
ENDROOT
BRANCH   1   3
ATOM      3  C   UNL     1       6.225   6.643  17.031  0.00  0.00    +0.000 C 
ATOM      4  O   UNL     1       6.254   7.158  15.918  0.00  0.00    +0.000 OA
BRANCH   3   8
ATOM      5  C   UNL     1       3.076   3.937  18.158  0.00  0.00    +0.000 A 
ATOM      6  C   UNL     1       3.020   5.293  18.491  0.00  0.00    +0.000 A 
ATOM      7  C   UNL     1       4.055   6.156  18.113  0.00  0.00    +0.000 A 
ATOM      8  C   UNL     1       5.153   5.678  17.381  0.00  0.00    +0.000 A 
ATOM      9  C   UNL     1       5.215   4.319  17.052  0.00  0.00    +0.000 A 
ATOM     10  C   UNL     1       4.181   3.454  17.442  0.00  0.00    +0.000 A 
BRANCH   5  11
ATOM     11  C   UNL     1       1.949   3.058  18.587  0.00  0.00    +0.000 C 
ATOM     12  O   UNL     1       0.828   3.111  18.108  0.00  0.00    +0.000 OA
BRANCH  11  14
ATOM     13  C   UNL     1       2.281   2.759  20.885  0.00  0.00    +0.000 C 
ATOM     14  O   UNL     1       2.357   2.212  19.567  0.00  0.00    +0.000 OA
ENDBRANCH  11  14
ENDBRANCH   5  11
ENDBRANCH   3   8
ENDBRANCH   1   3
BRANCH   1  15
ATOM     15  C   UNL     1       7.773   6.099  19.001  0.00  0.00    +0.000 C 
ATOM     16  N   UNL     1       8.166   5.297  19.745  0.00  0.00    +0.000 NA
ENDBRANCH   1  15
BRANCH   2  17
ATOM     17  N   UNL     1       8.823   8.565  18.836  0.00  0.00    +0.000 N 
ATOM     18  H   UNL     1       9.161   7.940  19.573  0.00  0.00    +0.000 HD
BRANCH  17  19
ATOM     19  C   UNL     1       9.141   9.924  19.025  0.00  0.00    +0.000 A 
ATOM     20  C   UNL     1       9.616  10.735  17.987  0.00  0.00    +0.000 A 
ATOM     21  C   UNL     1      10.002  12.054  18.233  0.00  0.00    +0.000 A 
ATOM     22 CL   UNL     1      10.578  13.028  16.935  0.00  0.00    +0.000 Cl
ATOM     23  C   UNL     1       9.938  12.587  19.516  0.00  0.00    +0.000 A 
ATOM     24  C   UNL     1       9.478  11.786  20.555  0.00  0.00    +0.000 A 
ATOM     25 CL   UNL     1       9.407  12.421  22.153  0.00  0.00    +0.000 Cl
ATOM     26  C   UNL     1       9.084  10.466  20.318  0.00  0.00    +0.000 A 
ENDBRANCH  17  19
ENDBRANCH   2  17
TORSDOF 7
ENDMDL
MODEL 4
REMARK VINA RESULT:      -7.5      1.096      1.148
REMARK  Name = 
REMARK  8 active torsions:
REMARK  status: ('A' for Active; 'I' for Inactive)
REMARK    1  A    between atoms: C_1  and  O_2
REMARK    2  A    between atoms: O_2  and  C_3
REMARK    3  A    between atoms: C_3  and  C_5
REMARK    4  A    between atoms: C_8  and  C_9
REMARK    5  A    between atoms: C_9  and  C_11
REMARK    6  A    between atoms: C_11  and  C_12
REMARK    7  A    between atoms: N_14  and  N_15
REMARK    8  A    between atoms: N_15  and  C_16
REMARK                            x       y       z     vdW  Elec       q    Type
REMARK                         _______ _______ _______ _____ _____    ______ ____
ROOT
ATOM      1  C   UNL     1       7.278   7.044  18.010  0.00  0.00    +0.000 C 
ATOM      2  N   UNL     1       7.820   8.233  18.000  0.00  0.00    +0.000 NA
ENDROOT
BRANCH   1   3
ATOM      3  C   UNL     1       6.141   6.719  17.086  0.00  0.00    +0.000 C 
ATOM      4  O   UNL     1       6.268   7.033  15.908  0.00  0.00    +0.000 OA
BRANCH   3   8
ATOM      5  C   UNL     1       2.601   4.627  18.353  0.00  0.00    +0.000 A 
ATOM      6  C   UNL     1       3.746   3.935  17.947  0.00  0.00    +0.000 A 
ATOM      7  C   UNL     1       4.887   4.635  17.540  0.00  0.00    +0.000 A 
ATOM      8  C   UNL     1       4.905   6.039  17.550  0.00  0.00    +0.000 A 
ATOM      9  C   UNL     1       3.758   6.735  17.951  0.00  0.00    +0.000 A 
ATOM     10  C   UNL     1       2.612   6.029  18.348  0.00  0.00    +0.000 A 
BRANCH   5  11
ATOM     11  C   UNL     1       1.410   3.834  18.775  0.00  0.00    +0.000 C 
ATOM     12  O   UNL     1       0.902   2.957  18.094  0.00  0.00    +0.000 OA
BRANCH  11  14
ATOM     13  C   UNL     1       1.703   3.642  21.090  0.00  0.00    +0.000 C 
ATOM     14  O   UNL     1       0.989   4.232  20.003  0.00  0.00    +0.000 OA
ENDBRANCH  11  14
ENDBRANCH   5  11
ENDBRANCH   3   8
ENDBRANCH   1   3
BRANCH   1  15
ATOM     15  C   UNL     1       7.768   6.070  18.958  0.00  0.00    +0.000 C 
ATOM     16  N   UNL     1       8.211   5.251  19.655  0.00  0.00    +0.000 NA
ENDBRANCH   1  15
BRANCH   2  17
ATOM     17  N   UNL     1       8.857   8.521  18.840  0.00  0.00    +0.000 N 
ATOM     18  H   UNL     1       9.254   7.842  19.496  0.00  0.00    +0.000 HD
BRANCH  17  19
ATOM     19  C   UNL     1       9.158   9.866  19.131  0.00  0.00    +0.000 A 
ATOM     20  C   UNL     1       9.056  10.395  20.424  0.00  0.00    +0.000 A 
ATOM     21  C   UNL     1       9.280  11.753  20.657  0.00  0.00    +0.000 A 
ATOM     22 CL   UNL     1       9.151  12.372  22.259  0.00  0.00    +0.000 Cl
ATOM     23  C   UNL     1       9.595  12.612  19.611  0.00  0.00    +0.000 A 
ATOM     24  C   UNL     1       9.689  12.099  18.323  0.00  0.00    +0.000 A 
ATOM     25 CL   UNL     1      10.061  13.150  17.012  0.00  0.00    +0.000 Cl
ATOM     26  C   UNL     1       9.472  10.740  18.079  0.00  0.00    +0.000 A 
ENDBRANCH  17  19
ENDBRANCH   2  17
TORSDOF 7
ENDMDL
MODEL 5
REMARK VINA RESULT:      -7.2      4.845      6.713
REMARK  Name = 
REMARK  8 active torsions:
REMARK  status: ('A' for Active; 'I' for Inactive)
REMARK    1  A    between atoms: C_1  and  O_2
REMARK    2  A    between atoms: O_2  and  C_3
REMARK    3  A    between atoms: C_3  and  C_5
REMARK    4  A    between atoms: C_8  and  C_9
REMARK    5  A    between atoms: C_9  and  C_11
REMARK    6  A    between atoms: C_11  and  C_12
REMARK    7  A    between atoms: N_14  and  N_15
REMARK    8  A    between atoms: N_15  and  C_16
REMARK                            x       y       z     vdW  Elec       q    Type
REMARK                         _______ _______ _______ _____ _____    ______ ____
ROOT
ATOM      1  C   UNL     1       4.612   4.403  18.137  0.00  0.00    +0.000 C 
ATOM      2  N   UNL     1       4.822   4.035  16.902  0.00  0.00    +0.000 NA
ENDROOT
BRANCH   1   3
ATOM      3  C   UNL     1       3.216   4.472  18.684  0.00  0.00    +0.000 C 
ATOM      4  O   UNL     1       2.560   3.436  18.680  0.00  0.00    +0.000 OA
BRANCH   3   8
ATOM      5  C   UNL     1       1.423   8.027  20.315  0.00  0.00    +0.000 A 
ATOM      6  C   UNL     1       1.359   6.806  20.993  0.00  0.00    +0.000 A 
ATOM      7  C   UNL     1       1.951   5.662  20.445  0.00  0.00    +0.000 A 
ATOM      8  C   UNL     1       2.630   5.727  19.218  0.00  0.00    +0.000 A 
ATOM      9  C   UNL     1       2.690   6.947  18.534  0.00  0.00    +0.000 A 
ATOM     10  C   UNL     1       2.087   8.090  19.082  0.00  0.00    +0.000 A 
BRANCH   5  11
ATOM     11  C   UNL     1       0.775   9.216  20.941  0.00  0.00    +0.000 C 
ATOM     12  O   UNL     1       0.010   9.961  20.350  0.00  0.00    +0.000 OA
BRANCH  11  14
ATOM     13  C   UNL     1       0.083   9.518  23.157  0.00  0.00    +0.000 C 
ATOM     14  O   UNL     1       1.161   9.336  22.237  0.00  0.00    +0.000 OA
ENDBRANCH  11  14
ENDBRANCH   5  11
ENDBRANCH   3   8
ENDBRANCH   1   3
BRANCH   1  15
ATOM     15  C   UNL     1       5.747   4.781  18.949  0.00  0.00    +0.000 C 
ATOM     16  N   UNL     1       6.630   5.168  19.598  0.00  0.00    +0.000 NA
ENDBRANCH   1  15
BRANCH   2  17
ATOM     17  N   UNL     1       6.095   3.969  16.413  0.00  0.00    +0.000 N 
ATOM     18  H   UNL     1       6.928   4.094  16.995  0.00  0.00    +0.000 HD
BRANCH  17  19
ATOM     19  C   UNL     1       6.315   4.130  15.031  0.00  0.00    +0.000 A 
ATOM     20  C   UNL     1       5.582   3.425  14.068  0.00  0.00    +0.000 A 
ATOM     21  C   UNL     1       5.887   3.547  12.711  0.00  0.00    +0.000 A 
ATOM     22 CL   UNL     1       4.965   2.669  11.550  0.00  0.00    +0.000 Cl
ATOM     23  C   UNL     1       6.933   4.359  12.286  0.00  0.00    +0.000 A 
ATOM     24  C   UNL     1       7.672   5.055  13.235  0.00  0.00    +0.000 A 
ATOM     25 CL   UNL     1       8.981   6.052  12.732  0.00  0.00    +0.000 Cl
ATOM     26  C   UNL     1       7.371   4.944  14.596  0.00  0.00    +0.000 A 
ENDBRANCH  17  19
ENDBRANCH   2  17
TORSDOF 7
ENDMDL
MODEL 6
REMARK VINA RESULT:      -7.2      5.039      7.025
REMARK  Name = 
REMARK  8 active torsions:
REMARK  status: ('A' for Active; 'I' for Inactive)
REMARK    1  A    between atoms: C_1  and  O_2
REMARK    2  A    between atoms: O_2  and  C_3
REMARK    3  A    between atoms: C_3  and  C_5
REMARK    4  A    between atoms: C_8  and  C_9
REMARK    5  A    between atoms: C_9  and  C_11
REMARK    6  A    between atoms: C_11  and  C_12
REMARK    7  A    between atoms: N_14  and  N_15
REMARK    8  A    between atoms: N_15  and  C_16
REMARK                            x       y       z     vdW  Elec       q    Type
REMARK                         _______ _______ _______ _____ _____    ______ ____
ROOT
ATOM      1  C   UNL     1       4.535   4.711  19.220  0.00  0.00    +0.000 C 
ATOM      2  N   UNL     1       4.001   5.860  19.537  0.00  0.00    +0.000 NA
ENDROOT
BRANCH   1   3
ATOM      3  C   UNL     1       5.887   4.654  18.571  0.00  0.00    +0.000 C 
ATOM      4  O   UNL     1       6.866   4.705  19.308  0.00  0.00    +0.000 OA
BRANCH   3   8
ATOM      5  C   UNL     1       6.304   4.189  14.314  0.00  0.00    +0.000 A 
ATOM      6  C   UNL     1       5.190   3.686  14.993  0.00  0.00    +0.000 A 
ATOM      7  C   UNL     1       5.074   3.850  16.377  0.00  0.00    +0.000 A 
ATOM      8  C   UNL     1       6.063   4.535  17.102  0.00  0.00    +0.000 A 
ATOM      9  C   UNL     1       7.182   5.034  16.425  0.00  0.00    +0.000 A 
ATOM     10  C   UNL     1       7.301   4.858  15.038  0.00  0.00    +0.000 A 
BRANCH   5  11
ATOM     11  C   UNL     1       6.382   3.986  12.838  0.00  0.00    +0.000 C 
ATOM     12  O   UNL     1       7.340   4.318  12.157  0.00  0.00    +0.000 OA
BRANCH  11  14
ATOM     13  C   UNL     1       5.476   2.258  11.544  0.00  0.00    +0.000 C 
ATOM     14  O   UNL     1       5.250   3.392  12.383  0.00  0.00    +0.000 OA
ENDBRANCH  11  14
ENDBRANCH   5  11
ENDBRANCH   3   8
ENDBRANCH   1   3
BRANCH   1  15
ATOM     15  C   UNL     1       3.779   3.504  19.468  0.00  0.00    +0.000 C 
ATOM     16  N   UNL     1       3.111   2.584  19.711  0.00  0.00    +0.000 NA
ENDBRANCH   1  15
BRANCH   2  17
ATOM     17  N   UNL     1       2.773   5.904  20.132  0.00  0.00    +0.000 N 
ATOM     18  H   UNL     1       2.226   5.067  20.354  0.00  0.00    +0.000 HD
BRANCH  17  19
ATOM     19  C   UNL     1       2.030   7.100  20.097  0.00  0.00    +0.000 A 
ATOM     20  C   UNL     1       2.147   8.026  19.053  0.00  0.00    +0.000 A 
ATOM     21  C   UNL     1       1.459   9.240  19.097  0.00  0.00    +0.000 A 
ATOM     22 CL   UNL     1       1.621  10.356  17.795  0.00  0.00    +0.000 Cl
ATOM     23  C   UNL     1       0.654   9.563  20.184  0.00  0.00    +0.000 A 
ATOM     24  C   UNL     1       0.539   8.655  21.229  0.00  0.00    +0.000 A 
ATOM     25 CL   UNL     1      -0.439   9.043  22.591  0.00  0.00    +0.000 Cl
ATOM     26  C   UNL     1       1.220   7.434  21.193  0.00  0.00    +0.000 A 
ENDBRANCH  17  19
ENDBRANCH   2  17
TORSDOF 7
ENDMDL
MODEL 7
REMARK VINA RESULT:      -7.1      7.171      9.153
REMARK  Name = 
REMARK  8 active torsions:
REMARK  status: ('A' for Active; 'I' for Inactive)
REMARK    1  A    between atoms: C_1  and  O_2
REMARK    2  A    between atoms: O_2  and  C_3
REMARK    3  A    between atoms: C_3  and  C_5
REMARK    4  A    between atoms: C_8  and  C_9
REMARK    5  A    between atoms: C_9  and  C_11
REMARK    6  A    between atoms: C_11  and  C_12
REMARK    7  A    between atoms: N_14  and  N_15
REMARK    8  A    between atoms: N_15  and  C_16
REMARK                            x       y       z     vdW  Elec       q    Type
REMARK                         _______ _______ _______ _____ _____    ______ ____
ROOT
ATOM      1  C   UNL     1       0.861   9.674  20.900  0.00  0.00    +0.000 C 
ATOM      2  N   UNL     1       1.409   8.665  20.277  0.00  0.00    +0.000 NA
ENDROOT
BRANCH   1   3
ATOM      3  C   UNL     1       0.492  10.921  20.152  0.00  0.00    +0.000 C 
ATOM      4  O   UNL     1       1.247  11.882  20.256  0.00  0.00    +0.000 OA
BRANCH   3   8
ATOM      5  C   UNL     1      -3.113  11.238  17.825  0.00  0.00    +0.000 A 
ATOM      6  C   UNL     1      -2.941  11.976  18.999  0.00  0.00    +0.000 A 
ATOM      7  C   UNL     1      -1.760  11.859  19.740  0.00  0.00    +0.000 A 
ATOM      8  C   UNL     1      -0.725  11.014  19.308  0.00  0.00    +0.000 A 
ATOM      9  C   UNL     1      -0.897  10.269  18.135  0.00  0.00    +0.000 A 
ATOM     10  C   UNL     1      -2.088  10.380  17.400  0.00  0.00    +0.000 A 
BRANCH   5  11
ATOM     11  C   UNL     1      -4.391  11.396  17.072  0.00  0.00    +0.000 C 
ATOM     12  O   UNL     1      -4.539  11.061  15.908  0.00  0.00    +0.000 OA
BRANCH  11  14
ATOM     13  C   UNL     1      -6.283  12.773  17.168  0.00  0.00    +0.000 C 
ATOM     14  O   UNL     1      -5.339  11.959  17.865  0.00  0.00    +0.000 OA
ENDBRANCH  11  14
ENDBRANCH   5  11
ENDBRANCH   3   8
ENDBRANCH   1   3
BRANCH   1  15
ATOM     15  C   UNL     1       0.659   9.577  22.328  0.00  0.00    +0.000 C 
ATOM     16  N   UNL     1       0.583   9.517  23.487  0.00  0.00    +0.000 NA
ENDBRANCH   1  15
BRANCH   2  17
ATOM     17  N   UNL     1       1.739   7.532  20.964  0.00  0.00    +0.000 N 
ATOM     18  H   UNL     1       2.056   7.537  21.937  0.00  0.00    +0.000 HD
BRANCH  17  19
ATOM     19  C   UNL     1       2.044   6.355  20.251  0.00  0.00    +0.000 A 
ATOM     20  C   UNL     1       1.650   5.087  20.694  0.00  0.00    +0.000 A 
ATOM     21  C   UNL     1       2.045   3.938  20.006  0.00  0.00    +0.000 A 
ATOM     22 CL   UNL     1       1.541   2.392  20.573  0.00  0.00    +0.000 Cl
ATOM     23  C   UNL     1       2.850   4.027  18.876  0.00  0.00    +0.000 A 
ATOM     24  C   UNL     1       3.255   5.281  18.435  0.00  0.00    +0.000 A 
ATOM     25 CL   UNL     1       4.265   5.411  17.048  0.00  0.00    +0.000 Cl
ATOM     26  C   UNL     1       2.860   6.437  19.113  0.00  0.00    +0.000 A 
ENDBRANCH  17  19
ENDBRANCH   2  17
TORSDOF 7
ENDMDL
MODEL 8
REMARK VINA RESULT:      -7.1      4.898      7.392
REMARK  Name = 
REMARK  8 active torsions:
REMARK  status: ('A' for Active; 'I' for Inactive)
REMARK    1  A    between atoms: C_1  and  O_2
REMARK    2  A    between atoms: O_2  and  C_3
REMARK    3  A    between atoms: C_3  and  C_5
REMARK    4  A    between atoms: C_8  and  C_9
REMARK    5  A    between atoms: C_9  and  C_11
REMARK    6  A    between atoms: C_11  and  C_12
REMARK    7  A    between atoms: N_14  and  N_15
REMARK    8  A    between atoms: N_15  and  C_16
REMARK                            x       y       z     vdW  Elec       q    Type
REMARK                         _______ _______ _______ _____ _____    ______ ____
ROOT
ATOM      1  C   UNL     1       6.717   5.016  17.616  0.00  0.00    +0.000 C 
ATOM      2  N   UNL     1       5.714   4.196  17.780  0.00  0.00    +0.000 NA
ENDROOT
BRANCH   1   3
ATOM      3  C   UNL     1       7.047   5.552  16.253  0.00  0.00    +0.000 C 
ATOM      4  O   UNL     1       7.738   6.564  16.200  0.00  0.00    +0.000 OA
BRANCH   3   8
ATOM      5  C   UNL     1       5.590   3.583  12.716  0.00  0.00    +0.000 A 
ATOM      6  C   UNL     1       4.808   3.671  13.872  0.00  0.00    +0.000 A 
ATOM      7  C   UNL     1       5.301   4.317  15.010  0.00  0.00    +0.000 A 
ATOM      8  C   UNL     1       6.578   4.900  15.005  0.00  0.00    +0.000 A 
ATOM      9  C   UNL     1       7.366   4.809  13.851  0.00  0.00    +0.000 A 
ATOM     10  C   UNL     1       6.872   4.150  12.714  0.00  0.00    +0.000 A 
BRANCH   5  11
ATOM     11  C   UNL     1       5.019   2.882  11.529  0.00  0.00    +0.000 C 
ATOM     12  O   UNL     1       4.226   3.394  10.755  0.00  0.00    +0.000 OA
BRANCH  11  14
ATOM     13  C   UNL     1       6.832   1.530  10.923  0.00  0.00    +0.000 C 
ATOM     14  O   UNL     1       5.507   1.618  11.449  0.00  0.00    +0.000 OA
ENDBRANCH  11  14
ENDBRANCH   5  11
ENDBRANCH   3   8
ENDBRANCH   1   3
BRANCH   1  15
ATOM     15  C   UNL     1       7.524   5.360  18.765  0.00  0.00    +0.000 C 
ATOM     16  N   UNL     1       8.183   5.549  19.704  0.00  0.00    +0.000 NA
ENDBRANCH   1  15
BRANCH   2  17
ATOM     17  N   UNL     1       5.417   3.716  19.023  0.00  0.00    +0.000 N 
ATOM     18  H   UNL     1       5.845   2.873  19.417  0.00  0.00    +0.000 HD
BRANCH  17  19
ATOM     19  C   UNL     1       4.223   4.120  19.654  0.00  0.00    +0.000 A 
ATOM     20  C   UNL     1       3.401   3.223  20.347  0.00  0.00    +0.000 A 
ATOM     21  C   UNL     1       2.183   3.644  20.886  0.00  0.00    +0.000 A 
ATOM     22 CL   UNL     1       1.196   2.518  21.737  0.00  0.00    +0.000 Cl
ATOM     23  C   UNL     1       1.753   4.957  20.731  0.00  0.00    +0.000 A 
ATOM     24  C   UNL     1       2.557   5.851  20.035  0.00  0.00    +0.000 A 
ATOM     25 CL   UNL     1       2.035   7.477  19.820  0.00  0.00    +0.000 Cl
ATOM     26  C   UNL     1       3.781   5.442  19.498  0.00  0.00    +0.000 A 
ENDBRANCH  17  19
ENDBRANCH   2  17
TORSDOF 7
ENDMDL
MODEL 9
REMARK VINA RESULT:      -7.1      4.153      7.059
REMARK  Name = 
REMARK  8 active torsions:
REMARK  status: ('A' for Active; 'I' for Inactive)
REMARK    1  A    between atoms: C_1  and  O_2
REMARK    2  A    between atoms: O_2  and  C_3
REMARK    3  A    between atoms: C_3  and  C_5
REMARK    4  A    between atoms: C_8  and  C_9
REMARK    5  A    between atoms: C_9  and  C_11
REMARK    6  A    between atoms: C_11  and  C_12
REMARK    7  A    between atoms: N_14  and  N_15
REMARK    8  A    between atoms: N_15  and  C_16
REMARK                            x       y       z     vdW  Elec       q    Type
REMARK                         _______ _______ _______ _____ _____    ______ ____
ROOT
ATOM      1  C   UNL     1       2.486   3.908  20.226  0.00  0.00    +0.000 C 
ATOM      2  N   UNL     1       2.325   5.196  20.085  0.00  0.00    +0.000 NA
ENDROOT
BRANCH   1   3
ATOM      3  C   UNL     1       3.196   3.109  19.172  0.00  0.00    +0.000 C 
ATOM      4  O   UNL     1       2.909   1.920  19.081  0.00  0.00    +0.000 OA
BRANCH   3   8
ATOM      5  C   UNL     1       6.176   4.909  16.644  0.00  0.00    +0.000 A 
ATOM      6  C   UNL     1       6.422   4.672  18.000  0.00  0.00    +0.000 A 
ATOM      7  C   UNL     1       5.439   4.084  18.803  0.00  0.00    +0.000 A 
ATOM      8  C   UNL     1       4.201   3.708  18.259  0.00  0.00    +0.000 A 
ATOM      9  C   UNL     1       3.949   3.950  16.903  0.00  0.00    +0.000 A 
ATOM     10  C   UNL     1       4.933   4.550  16.102  0.00  0.00    +0.000 A 
BRANCH   5  11
ATOM     11  C   UNL     1       7.255   5.540  15.831  0.00  0.00    +0.000 C 
ATOM     12  O   UNL     1       7.511   5.223  14.680  0.00  0.00    +0.000 OA
BRANCH  11  14
ATOM     13  C   UNL     1       7.034   7.515  17.069  0.00  0.00    +0.000 C 
ATOM     14  O   UNL     1       7.893   6.496  16.553  0.00  0.00    +0.000 OA
ENDBRANCH  11  14
ENDBRANCH   5  11
ENDBRANCH   3   8
ENDBRANCH   1   3
BRANCH   1  15
ATOM     15  C   UNL     1       1.929   3.266  21.395  0.00  0.00    +0.000 C 
ATOM     16  N   UNL     1       1.401   2.762  22.300  0.00  0.00    +0.000 NA
ENDBRANCH   1  15
BRANCH   2  17
ATOM     17  N   UNL     1       1.683   5.917  21.050  0.00  0.00    +0.000 N 
ATOM     18  H   UNL     1       1.137   5.488  21.802  0.00  0.00    +0.000 HD
BRANCH  17  19
ATOM     19  C   UNL     1       1.405   7.280  20.826  0.00  0.00    +0.000 A 
ATOM     20  C   UNL     1       0.638   8.045  21.714  0.00  0.00    +0.000 A 
ATOM     21  C   UNL     1       0.313   9.370  21.415  0.00  0.00    +0.000 A 
ATOM     22 CL   UNL     1      -0.628  10.286  22.529  0.00  0.00    +0.000 Cl
ATOM     23  C   UNL     1       0.729   9.953  20.223  0.00  0.00    +0.000 A 
ATOM     24  C   UNL     1       1.481   9.198  19.331  0.00  0.00    +0.000 A 
ATOM     25 CL   UNL     1       1.992   9.897  17.843  0.00  0.00    +0.000 Cl
ATOM     26  C   UNL     1       1.817   7.873  19.623  0.00  0.00    +0.000 A 
ENDBRANCH  17  19
ENDBRANCH   2  17
TORSDOF 7
ENDMDL
