MODEL 1
REMARK VINA RESULT:      -7.7      0.000      0.000
REMARK  Name = 
REMARK  7 active torsions:
REMARK  status: ('A' for Active; 'I' for Inactive)
REMARK    1  A    between atoms: C_1  and  O_2
REMARK    2  A    between atoms: O_2  and  C_3
REMARK    3  A    between atoms: C_6  and  S_7
REMARK    4  A    between atoms: S_7  and  O_10
REMARK    5  A    between atoms: O_10  and  C_11
REMARK    6  A    between atoms: C_16  and  N_17
REMARK    7  A    between atoms: C_18  and  C_20
REMARK                            x       y       z     vdW  Elec       q    Type
REMARK                         _______ _______ _______ _____ _____    ______ ____
ROOT
ATOM      1  C   UNL     1       2.071   4.352  18.362  0.00  0.00    +0.000 A 
ATOM      2  C   UNL     1       1.155   4.100  19.399  0.00  0.00    +0.000 A 
ATOM      3  C   UNL     1       1.049   2.840  19.983  0.00  0.00    +0.000 A 
ATOM      4  C   UNL     1       1.849   1.808  19.532  0.00  0.00    +0.000 A 
ATOM      5  C   UNL     1       2.745   2.033  18.486  0.00  0.00    +0.000 A 
ATOM      6  C   UNL     1       2.864   3.290  17.871  0.00  0.00    +0.000 A 
ENDROOT
BRANCH   6   7
ATOM      7  N   UNL     1       3.785   3.498  16.804  0.00  0.00    +0.000 N 
ATOM      8  C   UNL     1       5.108   3.932  16.927  0.00  0.00    +0.000 C 
ATOM      9  O   UNL     1       5.691   4.085  17.997  0.00  0.00    +0.000 OA
ATOM     10  H   UNL     1       3.470   3.280  15.866  0.00  0.00    +0.000 HD
BRANCH   8  11
ATOM     11  C   UNL     1       5.792   4.185  15.679  0.00  0.00    +0.000 A 
ATOM     12  C   UNL     1       5.514   3.712  14.408  0.00  0.00    +0.000 A 
ATOM     13  C   UNL     1       6.481   4.266  13.547  0.00  0.00    +0.000 A 
ATOM     14  C   UNL     1       7.300   5.037  14.340  0.00  0.00    +0.000 A 
ATOM     15  O   UNL     1       6.893   4.997  15.637  0.00  0.00    +0.000 OA
ENDBRANCH   8  11
ENDBRANCH   6   7
BRANCH   1  16
ATOM     16  O   UNL     1       2.169   5.597  17.767  0.00  0.00    +0.000 OA
BRANCH  16  17
ATOM     17  S   UNL     1       3.187   6.739  18.372  0.00  0.00    +0.000 S 
ATOM     18  O   UNL     1       3.967   7.283  17.276  0.00  0.00    +0.000 OA
ATOM     19  O   UNL     1       3.833   6.249  19.576  0.00  0.00    +0.000 OA
BRANCH  17  23
ATOM     20  C   UNL     1       0.390  10.054  19.781  0.00  0.00    +0.000 A 
ATOM     21  C   UNL     1       0.802   9.065  20.679  0.00  0.00    +0.000 A 
ATOM     22  C   UNL     1       1.663   8.048  20.266  0.00  0.00    +0.000 A 
ATOM     23  C   UNL     1       2.104   8.028  18.942  0.00  0.00    +0.000 A 
ATOM     24  C   UNL     1       1.639   8.969  18.017  0.00  0.00    +0.000 A 
ATOM     25  C   UNL     1       0.781   9.984  18.442  0.00  0.00    +0.000 A 
BRANCH  20  27
ATOM     26  C   UNL     1      -1.458  11.471  19.432  0.00  0.00    +0.000 C 
ATOM     27  O   UNL     1      -0.423  11.023  20.303  0.00  0.00    +0.000 OA
ENDBRANCH  20  27
ENDBRANCH  17  23
ENDBRANCH  16  17
ENDBRANCH   1  16
TORSDOF 6
ENDMDL
MODEL 2
REMARK VINA RESULT:      -7.6      1.113      1.398
REMARK  Name = 
REMARK  7 active torsions:
REMARK  status: ('A' for Active; 'I' for Inactive)
REMARK    1  A    between atoms: C_1  and  O_2
REMARK    2  A    between atoms: O_2  and  C_3
REMARK    3  A    between atoms: C_6  and  S_7
REMARK    4  A    between atoms: S_7  and  O_10
REMARK    5  A    between atoms: O_10  and  C_11
REMARK    6  A    between atoms: C_16  and  N_17
REMARK    7  A    between atoms: C_18  and  C_20
REMARK                            x       y       z     vdW  Elec       q    Type
REMARK                         _______ _______ _______ _____ _____    ______ ____
ROOT
ATOM      1  C   UNL     1       3.007   4.813  19.951  0.00  0.00    +0.000 A 
ATOM      2  C   UNL     1       2.214   4.634  21.099  0.00  0.00    +0.000 A 
ATOM      3  C   UNL     1       1.716   3.382  21.449  0.00  0.00    +0.000 A 
ATOM      4  C   UNL     1       1.995   2.288  20.651  0.00  0.00    +0.000 A 
ATOM      5  C   UNL     1       2.758   2.452  19.496  0.00  0.00    +0.000 A 
ATOM      6  C   UNL     1       3.263   3.705  19.112  0.00  0.00    +0.000 A 
ENDROOT
BRANCH   6   7
ATOM      7  N   UNL     1       4.040   3.850  17.927  0.00  0.00    +0.000 N 
ATOM      8  C   UNL     1       5.412   4.107  17.865  0.00  0.00    +0.000 C 
ATOM      9  O   UNL     1       6.157   4.132  18.841  0.00  0.00    +0.000 OA
ATOM     10  H   UNL     1       3.568   3.721  17.040  0.00  0.00    +0.000 HD
BRANCH   8  11
ATOM     11  C   UNL     1       5.937   4.336  16.537  0.00  0.00    +0.000 A 
ATOM     12  C   UNL     1       5.314   4.208  15.308  0.00  0.00    +0.000 A 
ATOM     13  C   UNL     1       6.267   4.556  14.331  0.00  0.00    +0.000 A 
ATOM     14  C   UNL     1       7.419   4.867  15.016  0.00  0.00    +0.000 A 
ATOM     15  O   UNL     1       7.233   4.738  16.357  0.00  0.00    +0.000 OA
ENDBRANCH   8  11
ENDBRANCH   6   7
BRANCH   1  16
ATOM     16  O   UNL     1       3.490   6.058  19.589  0.00  0.00    +0.000 OA
BRANCH  16  17
ATOM     17  S   UNL     1       2.826   6.883  18.330  0.00  0.00    +0.000 S 
ATOM     18  O   UNL     1       1.838   6.031  17.696  0.00  0.00    +0.000 OA
ATOM     19  O   UNL     1       3.865   7.531  17.550  0.00  0.00    +0.000 OA
BRANCH  17  23
ATOM     20  C   UNL     1       0.559  10.336  20.263  0.00  0.00    +0.000 A 
ATOM     21  C   UNL     1       0.915   9.224  21.031  0.00  0.00    +0.000 A 
ATOM     22  C   UNL     1       1.615   8.162  20.457  0.00  0.00    +0.000 A 
ATOM     23  C   UNL     1       1.950   8.223  19.103  0.00  0.00    +0.000 A 
ATOM     24  C   UNL     1       1.534   9.297  18.310  0.00  0.00    +0.000 A 
ATOM     25  C   UNL     1       0.838  10.355  18.895  0.00  0.00    +0.000 A 
BRANCH  20  27
ATOM     26  C   UNL     1      -0.547  10.979  22.240  0.00  0.00    +0.000 C 
ATOM     27  O   UNL     1      -0.091  11.334  20.937  0.00  0.00    +0.000 OA
ENDBRANCH  20  27
ENDBRANCH  17  23
ENDBRANCH  16  17
ENDBRANCH   1  16
TORSDOF 6
ENDMDL
MODEL 3
REMARK VINA RESULT:      -7.6      1.200      1.824
REMARK  Name = 
REMARK  7 active torsions:
REMARK  status: ('A' for Active; 'I' for Inactive)
REMARK    1  A    between atoms: C_1  and  O_2
REMARK    2  A    between atoms: O_2  and  C_3
REMARK    3  A    between atoms: C_6  and  S_7
REMARK    4  A    between atoms: S_7  and  O_10
REMARK    5  A    between atoms: O_10  and  C_11
REMARK    6  A    between atoms: C_16  and  N_17
REMARK    7  A    between atoms: C_18  and  C_20
REMARK                            x       y       z     vdW  Elec       q    Type
REMARK                         _______ _______ _______ _____ _____    ______ ____
ROOT
ATOM      1  C   UNL     1       2.952   4.788  20.024  0.00  0.00    +0.000 A 
ATOM      2  C   UNL     1       2.166   4.610  21.177  0.00  0.00    +0.000 A 
ATOM      3  C   UNL     1       1.701   3.352  21.551  0.00  0.00    +0.000 A 
ATOM      4  C   UNL     1       2.006   2.251  20.773  0.00  0.00    +0.000 A 
ATOM      5  C   UNL     1       2.763   2.414  19.613  0.00  0.00    +0.000 A 
ATOM      6  C   UNL     1       3.235   3.672  19.205  0.00  0.00    +0.000 A 
ENDROOT
BRANCH   6   7
ATOM      7  N   UNL     1       4.006   3.815  18.015  0.00  0.00    +0.000 N 
ATOM      8  C   UNL     1       5.371   4.103  17.946  0.00  0.00    +0.000 C 
ATOM      9  O   UNL     1       6.118   4.162  18.919  0.00  0.00    +0.000 OA
ATOM     10  H   UNL     1       3.535   3.659  17.132  0.00  0.00    +0.000 HD
BRANCH   8  11
ATOM     11  C   UNL     1       5.888   4.321  16.613  0.00  0.00    +0.000 A 
ATOM     12  C   UNL     1       7.150   4.724  16.212  0.00  0.00    +0.000 A 
ATOM     13  C   UNL     1       7.131   4.776  14.804  0.00  0.00    +0.000 A 
ATOM     14  C   UNL     1       5.859   4.413  14.427  0.00  0.00    +0.000 A 
ATOM     15  O   UNL     1       5.093   4.134  15.515  0.00  0.00    +0.000 OA
ENDBRANCH   8  11
ENDBRANCH   6   7
BRANCH   1  16
ATOM     16  O   UNL     1       3.403   6.038  19.638  0.00  0.00    +0.000 OA
BRANCH  16  17
ATOM     17  S   UNL     1       2.780   6.783  18.310  0.00  0.00    +0.000 S 
ATOM     18  O   UNL     1       1.785   5.907  17.720  0.00  0.00    +0.000 OA
ATOM     19  O   UNL     1       3.847   7.349  17.504  0.00  0.00    +0.000 OA
BRANCH  17  23
ATOM     20  C   UNL     1       0.593  10.389  20.044  0.00  0.00    +0.000 A 
ATOM     21  C   UNL     1       1.029  10.415  18.717  0.00  0.00    +0.000 A 
ATOM     22  C   UNL     1       1.694   9.317  18.168  0.00  0.00    +0.000 A 
ATOM     23  C   UNL     1       1.921   8.194  18.966  0.00  0.00    +0.000 A 
ATOM     24  C   UNL     1       1.555   8.187  20.315  0.00  0.00    +0.000 A 
ATOM     25  C   UNL     1       0.888   9.289  20.852  0.00  0.00    +0.000 A 
BRANCH  20  27
ATOM     26  C   UNL     1      -0.332  11.558  21.867  0.00  0.00    +0.000 C 
ATOM     27  O   UNL     1      -0.080  11.503  20.465  0.00  0.00    +0.000 OA
ENDBRANCH  20  27
ENDBRANCH  17  23
ENDBRANCH  16  17
ENDBRANCH   1  16
TORSDOF 6
ENDMDL
MODEL 4
REMARK VINA RESULT:      -7.6      2.172      3.756
REMARK  Name = 
REMARK  7 active torsions:
REMARK  status: ('A' for Active; 'I' for Inactive)
REMARK    1  A    between atoms: C_1  and  O_2
REMARK    2  A    between atoms: O_2  and  C_3
REMARK    3  A    between atoms: C_6  and  S_7
REMARK    4  A    between atoms: S_7  and  O_10
REMARK    5  A    between atoms: O_10  and  C_11
REMARK    6  A    between atoms: C_16  and  N_17
REMARK    7  A    between atoms: C_18  and  C_20
REMARK                            x       y       z     vdW  Elec       q    Type
REMARK                         _______ _______ _______ _____ _____    ______ ____
ROOT
ATOM      1  C   UNL     1       5.299   4.976  17.513  0.00  0.00    +0.000 A 
ATOM      2  C   UNL     1       5.600   5.512  18.778  0.00  0.00    +0.000 A 
ATOM      3  C   UNL     1       6.908   5.567  19.251  0.00  0.00    +0.000 A 
ATOM      4  C   UNL     1       7.938   5.078  18.471  0.00  0.00    +0.000 A 
ATOM      5  C   UNL     1       7.656   4.519  17.225  0.00  0.00    +0.000 A 
ATOM      6  C   UNL     1       6.344   4.439  16.728  0.00  0.00    +0.000 A 
ENDROOT
BRANCH   6   7
ATOM      7  N   UNL     1       6.079   3.863  15.452  0.00  0.00    +0.000 N 
ATOM      8  C   UNL     1       6.457   4.388  14.214  0.00  0.00    +0.000 C 
ATOM      9  O   UNL     1       7.175   5.374  14.069  0.00  0.00    +0.000 OA
ATOM     10  H   UNL     1       5.602   2.970  15.433  0.00  0.00    +0.000 HD
BRANCH   8  11
ATOM     11  C   UNL     1       5.953   3.674  13.062  0.00  0.00    +0.000 A 
ATOM     12  C   UNL     1       6.605   2.795  12.215  0.00  0.00    +0.000 A 
ATOM     13  C   UNL     1       5.660   2.377  11.257  0.00  0.00    +0.000 A 
ATOM     14  C   UNL     1       4.490   3.030  11.567  0.00  0.00    +0.000 A 
ATOM     15  O   UNL     1       4.653   3.821  12.661  0.00  0.00    +0.000 OA
ENDBRANCH   8  11
ENDBRANCH   6   7
BRANCH   1  16
ATOM     16  O   UNL     1       4.000   4.903  17.045  0.00  0.00    +0.000 OA
BRANCH  16  17
ATOM     17  S   UNL     1       2.772   4.447  18.042  0.00  0.00    +0.000 S 
ATOM     18  O   UNL     1       3.313   3.564  19.058  0.00  0.00    +0.000 OA
ATOM     19  O   UNL     1       1.608   4.063  17.262  0.00  0.00    +0.000 OA
BRANCH  17  23
ATOM     20  C   UNL     1       1.541   8.289  20.169  0.00  0.00    +0.000 A 
ATOM     21  C   UNL     1       1.960   8.337  18.836  0.00  0.00    +0.000 A 
ATOM     22  C   UNL     1       2.333   7.170  18.168  0.00  0.00    +0.000 A 
ATOM     23  C   UNL     1       2.288   5.953  18.851  0.00  0.00    +0.000 A 
ATOM     24  C   UNL     1       1.942   5.904  20.205  0.00  0.00    +0.000 A 
ATOM     25  C   UNL     1       1.567   7.077  20.862  0.00  0.00    +0.000 A 
BRANCH  20  27
ATOM     26  C   UNL     1       0.246  10.239  19.921  0.00  0.00    +0.000 C 
ATOM     27  O   UNL     1       1.163   9.486  20.711  0.00  0.00    +0.000 OA
ENDBRANCH  20  27
ENDBRANCH  17  23
ENDBRANCH  16  17
ENDBRANCH   1  16
TORSDOF 6
ENDMDL
MODEL 5
REMARK VINA RESULT:      -7.6      0.890      1.427
REMARK  Name = 
REMARK  7 active torsions:
REMARK  status: ('A' for Active; 'I' for Inactive)
REMARK    1  A    between atoms: C_1  and  O_2
REMARK    2  A    between atoms: O_2  and  C_3
REMARK    3  A    between atoms: C_6  and  S_7
REMARK    4  A    between atoms: S_7  and  O_10
REMARK    5  A    between atoms: O_10  and  C_11
REMARK    6  A    between atoms: C_16  and  N_17
REMARK    7  A    between atoms: C_18  and  C_20
REMARK                            x       y       z     vdW  Elec       q    Type
REMARK                         _______ _______ _______ _____ _____    ______ ____
ROOT
ATOM      1  C   UNL     1       2.006   4.425  18.699  0.00  0.00    +0.000 A 
ATOM      2  C   UNL     1       1.096   4.188  19.744  0.00  0.00    +0.000 A 
ATOM      3  C   UNL     1       1.051   2.962  20.404  0.00  0.00    +0.000 A 
ATOM      4  C   UNL     1       1.911   1.949  20.024  0.00  0.00    +0.000 A 
ATOM      5  C   UNL     1       2.802   2.158  18.972  0.00  0.00    +0.000 A 
ATOM      6  C   UNL     1       2.860   3.379  18.280  0.00  0.00    +0.000 A 
ENDROOT
BRANCH   6   7
ATOM      7  N   UNL     1       3.778   3.571  17.208  0.00  0.00    +0.000 N 
ATOM      8  C   UNL     1       5.121   3.937  17.326  0.00  0.00    +0.000 C 
ATOM      9  O   UNL     1       5.722   4.034  18.393  0.00  0.00    +0.000 OA
ATOM     10  H   UNL     1       3.443   3.392  16.269  0.00  0.00    +0.000 HD
BRANCH   8  11
ATOM     11  C   UNL     1       5.804   4.190  16.076  0.00  0.00    +0.000 A 
ATOM     12  C   UNL     1       7.043   4.762  15.848  0.00  0.00    +0.000 A 
ATOM     13  C   UNL     1       7.237   4.770  14.453  0.00  0.00    +0.000 A 
ATOM     14  C   UNL     1       6.103   4.212  13.908  0.00  0.00    +0.000 A 
ATOM     15  O   UNL     1       5.225   3.855  14.882  0.00  0.00    +0.000 OA
ENDBRANCH   8  11
ENDBRANCH   6   7
BRANCH   1  16
ATOM     16  O   UNL     1       2.043   5.634  18.028  0.00  0.00    +0.000 OA
BRANCH  16  17
ATOM     17  S   UNL     1       3.030   6.848  18.538  0.00  0.00    +0.000 S 
ATOM     18  O   UNL     1       3.600   7.494  17.370  0.00  0.00    +0.000 OA
ATOM     19  O   UNL     1       3.877   6.385  19.622  0.00  0.00    +0.000 OA
BRANCH  17  23
ATOM     20  C   UNL     1       0.217   9.821  20.550  0.00  0.00    +0.000 A 
ATOM     21  C   UNL     1       0.620  10.032  19.228  0.00  0.00    +0.000 A 
ATOM     22  C   UNL     1       1.475   9.129  18.596  0.00  0.00    +0.000 A 
ATOM     23  C   UNL     1       1.926   8.012  19.302  0.00  0.00    +0.000 A 
ATOM     24  C   UNL     1       1.588   7.831  20.647  0.00  0.00    +0.000 A 
ATOM     25  C   UNL     1       0.730   8.738  21.269  0.00  0.00    +0.000 A 
BRANCH  20  27
ATOM     26  C   UNL     1      -0.610  10.897  22.474  0.00  0.00    +0.000 C 
ATOM     27  O   UNL     1      -0.652  10.748  21.057  0.00  0.00    +0.000 OA
ENDBRANCH  20  27
ENDBRANCH  17  23
ENDBRANCH  16  17
ENDBRANCH   1  16
TORSDOF 6
ENDMDL
MODEL 6
REMARK VINA RESULT:      -7.6      0.355      1.012
REMARK  Name = 
REMARK  7 active torsions:
REMARK  status: ('A' for Active; 'I' for Inactive)
REMARK    1  A    between atoms: C_1  and  O_2
REMARK    2  A    between atoms: O_2  and  C_3
REMARK    3  A    between atoms: C_6  and  S_7
REMARK    4  A    between atoms: S_7  and  O_10
REMARK    5  A    between atoms: O_10  and  C_11
REMARK    6  A    between atoms: C_16  and  N_17
REMARK    7  A    between atoms: C_18  and  C_20
REMARK                            x       y       z     vdW  Elec       q    Type
REMARK                         _______ _______ _______ _____ _____    ______ ____
ROOT
ATOM      1  C   UNL     1       2.059   4.408  18.659  0.00  0.00    +0.000 A 
ATOM      2  C   UNL     1       1.146   4.165  19.700  0.00  0.00    +0.000 A 
ATOM      3  C   UNL     1       1.126   2.949  20.379  0.00  0.00    +0.000 A 
ATOM      4  C   UNL     1       2.013   1.952  20.021  0.00  0.00    +0.000 A 
ATOM      5  C   UNL     1       2.908   2.166  18.974  0.00  0.00    +0.000 A 
ATOM      6  C   UNL     1       2.943   3.378  18.263  0.00  0.00    +0.000 A 
ENDROOT
BRANCH   6   7
ATOM      7  N   UNL     1       3.865   3.575  17.196  0.00  0.00    +0.000 N 
ATOM      8  C   UNL     1       5.203   3.958  17.321  0.00  0.00    +0.000 C 
ATOM      9  O   UNL     1       5.796   4.068  18.391  0.00  0.00    +0.000 OA
ATOM     10  H   UNL     1       3.539   3.387  16.256  0.00  0.00    +0.000 HD
BRANCH   8  11
ATOM     11  C   UNL     1       5.890   4.213  16.074  0.00  0.00    +0.000 A 
ATOM     12  C   UNL     1       5.471   3.990  14.775  0.00  0.00    +0.000 A 
ATOM     13  C   UNL     1       6.515   4.418  13.931  0.00  0.00    +0.000 A 
ATOM     14  C   UNL     1       7.515   4.868  14.763  0.00  0.00    +0.000 A 
ATOM     15  O   UNL     1       7.149   4.750  16.067  0.00  0.00    +0.000 OA
ENDBRANCH   8  11
ENDBRANCH   6   7
BRANCH   1  16
ATOM     16  O   UNL     1       2.073   5.607  17.969  0.00  0.00    +0.000 OA
BRANCH  16  17
ATOM     17  S   UNL     1       3.116   6.808  18.392  0.00  0.00    +0.000 S 
ATOM     18  O   UNL     1       3.817   7.245  17.199  0.00  0.00    +0.000 OA
ATOM     19  O   UNL     1       3.844   6.440  19.593  0.00  0.00    +0.000 OA
BRANCH  17  23
ATOM     20  C   UNL     1       0.415  10.218  19.760  0.00  0.00    +0.000 A 
ATOM     21  C   UNL     1       0.971  10.245  18.477  0.00  0.00    +0.000 A 
ATOM     22  C   UNL     1       1.794   9.206  18.041  0.00  0.00    +0.000 A 
ATOM     23  C   UNL     1       2.059   8.141  18.904  0.00  0.00    +0.000 A 
ATOM     24  C   UNL     1       1.568   8.142  20.214  0.00  0.00    +0.000 A 
ATOM     25  C   UNL     1       0.744   9.184  20.639  0.00  0.00    +0.000 A 
BRANCH  20  27
ATOM     26  C   UNL     1      -1.597  11.347  19.289  0.00  0.00    +0.000 C 
ATOM     27  O   UNL     1      -0.406  11.268  20.068  0.00  0.00    +0.000 OA
ENDBRANCH  20  27
ENDBRANCH  17  23
ENDBRANCH  16  17
ENDBRANCH   1  16
TORSDOF 6
ENDMDL
MODEL 7
REMARK VINA RESULT:      -7.5      2.193      3.658
REMARK  Name = 
REMARK  7 active torsions:
REMARK  status: ('A' for Active; 'I' for Inactive)
REMARK    1  A    between atoms: C_1  and  O_2
REMARK    2  A    between atoms: O_2  and  C_3
REMARK    3  A    between atoms: C_6  and  S_7
REMARK    4  A    between atoms: S_7  and  O_10
REMARK    5  A    between atoms: O_10  and  C_11
REMARK    6  A    between atoms: C_16  and  N_17
REMARK    7  A    between atoms: C_18  and  C_20
REMARK                            x       y       z     vdW  Elec       q    Type
REMARK                         _______ _______ _______ _____ _____    ______ ____
ROOT
ATOM      1  C   UNL     1       5.190   4.868  17.463  0.00  0.00    +0.000 A 
ATOM      2  C   UNL     1       5.471   5.414  18.728  0.00  0.00    +0.000 A 
ATOM      3  C   UNL     1       6.778   5.533  19.194  0.00  0.00    +0.000 A 
ATOM      4  C   UNL     1       7.827   5.098  18.405  0.00  0.00    +0.000 A 
ATOM      5  C   UNL     1       7.565   4.530  17.158  0.00  0.00    +0.000 A 
ATOM      6  C   UNL     1       6.256   4.387  16.669  0.00  0.00    +0.000 A 
ENDROOT
BRANCH   6   7
ATOM      7  N   UNL     1       6.012   3.803  15.393  0.00  0.00    +0.000 N 
ATOM      8  C   UNL     1       6.407   4.323  14.158  0.00  0.00    +0.000 C 
ATOM      9  O   UNL     1       7.125   5.309  14.018  0.00  0.00    +0.000 OA
ATOM     10  H   UNL     1       5.538   2.908  15.372  0.00  0.00    +0.000 HD
BRANCH   8  11
ATOM     11  C   UNL     1       5.924   3.601  13.001  0.00  0.00    +0.000 A 
ATOM     12  C   UNL     1       4.678   3.632  12.401  0.00  0.00    +0.000 A 
ATOM     13  C   UNL     1       4.732   2.746  11.306  0.00  0.00    +0.000 A 
ATOM     14  C   UNL     1       6.003   2.219  11.306  0.00  0.00    +0.000 A 
ATOM     15  O   UNL     1       6.737   2.729  12.330  0.00  0.00    +0.000 OA
ENDBRANCH   8  11
ENDBRANCH   6   7
BRANCH   1  16
ATOM     16  O   UNL     1       3.893   4.732  17.002  0.00  0.00    +0.000 OA
BRANCH  16  17
ATOM     17  S   UNL     1       2.680   4.292  18.023  0.00  0.00    +0.000 S 
ATOM     18  O   UNL     1       3.218   3.361  18.997  0.00  0.00    +0.000 OA
ATOM     19  O   UNL     1       1.480   3.974  17.271  0.00  0.00    +0.000 OA
BRANCH  17  23
ATOM     20  C   UNL     1       1.634   8.163  20.197  0.00  0.00    +0.000 A 
ATOM     21  C   UNL     1       1.562   6.944  20.877  0.00  0.00    +0.000 A 
ATOM     22  C   UNL     1       1.885   5.751  20.229  0.00  0.00    +0.000 A 
ATOM     23  C   UNL     1       2.277   5.791  18.889  0.00  0.00    +0.000 A 
ATOM     24  C   UNL     1       2.281   6.996  18.179  0.00  0.00    +0.000 A 
ATOM     25  C   UNL     1       1.959   8.183  18.838  0.00  0.00    +0.000 A 
BRANCH  20  27
ATOM     26  C   UNL     1       0.771  10.353  20.202  0.00  0.00    +0.000 C 
ATOM     27  O   UNL     1       1.332   9.271  20.940  0.00  0.00    +0.000 OA
ENDBRANCH  20  27
ENDBRANCH  17  23
ENDBRANCH  16  17
ENDBRANCH   1  16
TORSDOF 6
ENDMDL
MODEL 8
REMARK VINA RESULT:      -7.1      1.322      1.841
REMARK  Name = 
REMARK  7 active torsions:
REMARK  status: ('A' for Active; 'I' for Inactive)
REMARK    1  A    between atoms: C_1  and  O_2
REMARK    2  A    between atoms: O_2  and  C_3
REMARK    3  A    between atoms: C_6  and  S_7
REMARK    4  A    between atoms: S_7  and  O_10
REMARK    5  A    between atoms: O_10  and  C_11
REMARK    6  A    between atoms: C_16  and  N_17
REMARK    7  A    between atoms: C_18  and  C_20
REMARK                            x       y       z     vdW  Elec       q    Type
REMARK                         _______ _______ _______ _____ _____    ______ ____
ROOT
ATOM      1  C   UNL     1       2.992   4.905  20.197  0.00  0.00    +0.000 A 
ATOM      2  C   UNL     1       2.103   4.572  21.234  0.00  0.00    +0.000 A 
ATOM      3  C   UNL     1       1.821   3.245  21.550  0.00  0.00    +0.000 A 
ATOM      4  C   UNL     1       2.417   2.229  20.827  0.00  0.00    +0.000 A 
ATOM      5  C   UNL     1       3.282   2.542  19.778  0.00  0.00    +0.000 A 
ATOM      6  C   UNL     1       3.574   3.871  19.430  0.00  0.00    +0.000 A 
ENDROOT
BRANCH   6   7
ATOM      7  N   UNL     1       4.460   4.167  18.354  0.00  0.00    +0.000 N 
ATOM      8  C   UNL     1       4.244   3.882  17.003  0.00  0.00    +0.000 C 
ATOM      9  O   UNL     1       3.195   3.432  16.549  0.00  0.00    +0.000 OA
ATOM     10  H   UNL     1       5.315   4.663  18.576  0.00  0.00    +0.000 HD
BRANCH   8  11
ATOM     11  C   UNL     1       5.357   4.172  16.126  0.00  0.00    +0.000 A 
ATOM     12  C   UNL     1       5.395   4.242  14.745  0.00  0.00    +0.000 A 
ATOM     13  C   UNL     1       6.721   4.563  14.391  0.00  0.00    +0.000 A 
ATOM     14  C   UNL     1       7.417   4.660  15.573  0.00  0.00    +0.000 A 
ATOM     15  O   UNL     1       6.601   4.426  16.635  0.00  0.00    +0.000 OA
ENDBRANCH   8  11
ENDBRANCH   6   7
BRANCH   1  16
ATOM     16  O   UNL     1       3.263   6.221  19.867  0.00  0.00    +0.000 OA
BRANCH  16  17
ATOM     17  S   UNL     1       2.658   6.883  18.488  0.00  0.00    +0.000 S 
ATOM     18  O   UNL     1       1.658   5.980  17.948  0.00  0.00    +0.000 OA
ATOM     19  O   UNL     1       3.736   7.385  17.655  0.00  0.00    +0.000 OA
BRANCH  17  23
ATOM     20  C   UNL     1       0.495  10.617  19.965  0.00  0.00    +0.000 A 
ATOM     21  C   UNL     1       0.937  10.549  18.640  0.00  0.00    +0.000 A 
ATOM     22  C   UNL     1       1.594   9.411  18.170  0.00  0.00    +0.000 A 
ATOM     23  C   UNL     1       1.809   8.343  19.043  0.00  0.00    +0.000 A 
ATOM     24  C   UNL     1       1.437   8.430  20.388  0.00  0.00    +0.000 A 
ATOM     25  C   UNL     1       0.778   9.571  20.847  0.00  0.00    +0.000 A 
BRANCH  20  27
ATOM     26  C   UNL     1      -0.502  11.874  21.688  0.00  0.00    +0.000 C 
ATOM     27  O   UNL     1      -0.170  11.763  20.307  0.00  0.00    +0.000 OA
ENDBRANCH  20  27
ENDBRANCH  17  23
ENDBRANCH  16  17
ENDBRANCH   1  16
TORSDOF 6
ENDMDL
MODEL 9
REMARK VINA RESULT:      -7.1      2.380      4.234
REMARK  Name = 
REMARK  7 active torsions:
REMARK  status: ('A' for Active; 'I' for Inactive)
REMARK    1  A    between atoms: C_1  and  O_2
REMARK    2  A    between atoms: O_2  and  C_3
REMARK    3  A    between atoms: C_6  and  S_7
REMARK    4  A    between atoms: S_7  and  O_10
REMARK    5  A    between atoms: O_10  and  C_11
REMARK    6  A    between atoms: C_16  and  N_17
REMARK    7  A    between atoms: C_18  and  C_20
REMARK                            x       y       z     vdW  Elec       q    Type
REMARK                         _______ _______ _______ _____ _____    ______ ____
ROOT
ATOM      1  C   UNL     1       5.852   4.391  18.087  0.00  0.00    +0.000 A 
ATOM      2  C   UNL     1       6.220   5.012  19.294  0.00  0.00    +0.000 A 
ATOM      3  C   UNL     1       7.084   6.105  19.313  0.00  0.00    +0.000 A 
ATOM      4  C   UNL     1       7.602   6.588  18.127  0.00  0.00    +0.000 A 
ATOM      5  C   UNL     1       7.268   5.968  16.923  0.00  0.00    +0.000 A 
ATOM      6  C   UNL     1       6.409   4.857  16.875  0.00  0.00    +0.000 A 
ENDROOT
BRANCH   6   7
ATOM      7  N   UNL     1       6.082   4.238  15.634  0.00  0.00    +0.000 N 
ATOM      8  C   UNL     1       6.691   4.487  14.401  0.00  0.00    +0.000 C 
ATOM      9  O   UNL     1       7.677   5.202  14.247  0.00  0.00    +0.000 OA
ATOM     10  H   UNL     1       5.365   3.523  15.644  0.00  0.00    +0.000 HD
BRANCH   8  11
ATOM     11  C   UNL     1       6.087   3.819  13.269  0.00  0.00    +0.000 A 
ATOM     12  C   UNL     1       4.782   3.867  12.810  0.00  0.00    +0.000 A 
ATOM     13  C   UNL     1       4.721   3.039  11.672  0.00  0.00    +0.000 A 
ATOM     14  C   UNL     1       5.987   2.525  11.507  0.00  0.00    +0.000 A 
ATOM     15  O   UNL     1       6.826   2.990  12.470  0.00  0.00    +0.000 OA
ENDBRANCH   8  11
ENDBRANCH   6   7
BRANCH   1  16
ATOM     16  O   UNL     1       5.008   3.295  18.063  0.00  0.00    +0.000 OA
BRANCH  16  17
ATOM     17  S   UNL     1       3.428   3.460  17.633  0.00  0.00    +0.000 S 
ATOM     18  O   UNL     1       2.699   2.303  18.117  0.00  0.00    +0.000 OA
ATOM     19  O   UNL     1       3.326   3.879  16.246  0.00  0.00    +0.000 OA
BRANCH  17  23
ATOM     20  C   UNL     1       2.003   7.041  20.072  0.00  0.00    +0.000 A 
ATOM     21  C   UNL     1       2.535   7.238  18.794  0.00  0.00    +0.000 A 
ATOM     22  C   UNL     1       2.970   6.153  18.032  0.00  0.00    +0.000 A 
ATOM     23  C   UNL     1       2.870   4.867  18.564  0.00  0.00    +0.000 A 
ATOM     24  C   UNL     1       2.408   4.665  19.869  0.00  0.00    +0.000 A 
ATOM     25  C   UNL     1       1.972   5.756  20.621  0.00  0.00    +0.000 A 
BRANCH  20  27
ATOM     26  C   UNL     1       1.095   9.202  19.854  0.00  0.00    +0.000 C 
ATOM     27  O   UNL     1       1.573   8.170  20.713  0.00  0.00    +0.000 OA
ENDBRANCH  20  27
ENDBRANCH  17  23
ENDBRANCH  16  17
ENDBRANCH   1  16
TORSDOF 6
ENDMDL
