MODEL 1
REMARK VINA RESULT:      -7.3      0.000      0.000
REMARK  Name = 
REMARK  4 active torsions:
REMARK  status: ('A' for Active; 'I' for Inactive)
REMARK    1  A    between atoms: C_1  and  N_2
REMARK    2  A    between atoms: N_2  and  N_3
REMARK    3  A    between atoms: C_7  and  C_8
REMARK    4  A    between atoms: C_11  and  C_12
REMARK                            x       y       z     vdW  Elec       q    Type
REMARK                         _______ _______ _______ _____ _____    ______ ____
ROOT
ATOM      1  C   UNL     1       2.722   6.823  18.852  0.00  0.00    +0.000 A 
ATOM      2  C   UNL     1       2.269   6.510  20.140  0.00  0.00    +0.000 A 
ATOM      3  C   UNL     1       1.482   7.414  20.865  0.00  0.00    +0.000 A 
ATOM      4  C   UNL     1       1.123   8.666  20.340  0.00  0.00    +0.000 A 
ATOM      5  C   UNL     1       1.581   8.967  19.045  0.00  0.00    +0.000 A 
ATOM      6  C   UNL     1       2.353   8.059  18.309  0.00  0.00    +0.000 A 
ENDROOT
BRANCH   1  12
ATOM      7  C   UNL     1       6.351   3.663  14.971  0.00  0.00    +0.000 C 
ATOM      8  N   UNL     1       6.482   4.711  15.986  0.00  0.00    +0.000 N 
ATOM      9  C   UNL     1       5.340   4.983  16.715  0.00  0.00    +0.000 A 
ATOM     10  N   UNL     1       4.209   4.298  16.669  0.00  0.00    +0.000 NA
ATOM     11  N   UNL     1       3.194   4.862  17.414  0.00  0.00    +0.000 NA
ATOM     12  C   UNL     1       3.591   5.929  18.077  0.00  0.00    +0.000 A 
ATOM     13  S   UNL     1       5.259   6.274  17.878  0.00  0.00    +0.000 S 
BRANCH   8  14
ATOM     14  N   UNL     1       7.200   5.894  15.622  0.00  0.00    +0.000 NA
ATOM     15  H   UNL     1       7.592   5.793  14.681  0.00  0.00    +0.000 HD
ATOM     16  H   UNL     1       8.014   5.994  16.234  0.00  0.00    +0.000 HD
ENDBRANCH   8  14
ENDBRANCH   1  12
BRANCH   4  17
ATOM     17  C   UNL     1       0.295   9.624  21.111  0.00  0.00    +0.000 A 
ATOM     18  C   UNL     1      -0.179  10.819  20.538  0.00  0.00    +0.000 A 
ATOM     19  C   UNL     1      -0.956  11.724  21.270  0.00  0.00    +0.000 A 
ATOM     20  C   UNL     1      -1.290  11.448  22.592  0.00  0.00    +0.000 A 
ATOM     21  C   UNL     1      -0.840  10.273  23.183  0.00  0.00    +0.000 A 
ATOM     22  C   UNL     1      -0.052   9.378  22.453  0.00  0.00    +0.000 A 
ENDBRANCH   4  17
TORSDOF 3
ENDMDL
MODEL 2
REMARK VINA RESULT:      -7.3      4.568      8.554
REMARK  Name = 
REMARK  4 active torsions:
REMARK  status: ('A' for Active; 'I' for Inactive)
REMARK    1  A    between atoms: C_1  and  N_2
REMARK    2  A    between atoms: N_2  and  N_3
REMARK    3  A    between atoms: C_7  and  C_8
REMARK    4  A    between atoms: C_11  and  C_12
REMARK                            x       y       z     vdW  Elec       q    Type
REMARK                         _______ _______ _______ _____ _____    ______ ____
ROOT
ATOM      1  C   UNL     1       1.342   8.848  19.931  0.00  0.00    +0.000 A 
ATOM      2  C   UNL     1       1.672   9.171  18.609  0.00  0.00    +0.000 A 
ATOM      3  C   UNL     1       2.434   8.297  17.823  0.00  0.00    +0.000 A 
ATOM      4  C   UNL     1       2.902   7.071  18.325  0.00  0.00    +0.000 A 
ATOM      5  C   UNL     1       2.560   6.757  19.652  0.00  0.00    +0.000 A 
ATOM      6  C   UNL     1       1.784   7.620  20.436  0.00  0.00    +0.000 A 
ENDROOT
BRANCH   1  12
ATOM      7  C   UNL     1      -1.346  13.306  23.266  0.00  0.00    +0.000 C 
ATOM      8  N   UNL     1      -1.491  12.685  21.948  0.00  0.00    +0.000 N 
ATOM      9  C   UNL     1      -0.703  11.573  21.720  0.00  0.00    +0.000 A 
ATOM     10  N   UNL     1       0.048  10.958  22.619  0.00  0.00    +0.000 NA
ATOM     11  N   UNL     1       0.822   9.946  22.090  0.00  0.00    +0.000 NA
ATOM     12  C   UNL     1       0.591   9.756  20.807  0.00  0.00    +0.000 A 
ATOM     13  S   UNL     1      -0.641  10.770  20.179  0.00  0.00    +0.000 S 
BRANCH   8  14
ATOM     14  N   UNL     1      -1.560  13.555  20.814  0.00  0.00    +0.000 NA
ATOM     15  H   UNL     1      -2.526  13.861  20.663  0.00  0.00    +0.000 HD
ATOM     16  H   UNL     1      -1.318  13.029  19.971  0.00  0.00    +0.000 HD
ENDBRANCH   8  14
ENDBRANCH   1  12
BRANCH   4  17
ATOM     17  C   UNL     1       3.712   6.150  17.494  0.00  0.00    +0.000 A 
ATOM     18  C   UNL     1       3.522   4.756  17.535  0.00  0.00    +0.000 A 
ATOM     19  C   UNL     1       4.293   3.888  16.753  0.00  0.00    +0.000 A 
ATOM     20  C   UNL     1       5.265   4.396  15.899  0.00  0.00    +0.000 A 
ATOM     21  C   UNL     1       5.473   5.769  15.834  0.00  0.00    +0.000 A 
ATOM     22  C   UNL     1       4.711   6.632  16.626  0.00  0.00    +0.000 A 
ENDBRANCH   4  17
TORSDOF 3
ENDMDL
MODEL 3
REMARK VINA RESULT:      -7.3      0.022      1.074
REMARK  Name = 
REMARK  4 active torsions:
REMARK  status: ('A' for Active; 'I' for Inactive)
REMARK    1  A    between atoms: C_1  and  N_2
REMARK    2  A    between atoms: N_2  and  N_3
REMARK    3  A    between atoms: C_7  and  C_8
REMARK    4  A    between atoms: C_11  and  C_12
REMARK                            x       y       z     vdW  Elec       q    Type
REMARK                         _______ _______ _______ _____ _____    ______ ____
ROOT
ATOM      1  C   UNL     1       2.723   6.826  18.848  0.00  0.00    +0.000 A 
ATOM      2  C   UNL     1       2.273   6.510  20.136  0.00  0.00    +0.000 A 
ATOM      3  C   UNL     1       1.483   7.409  20.864  0.00  0.00    +0.000 A 
ATOM      4  C   UNL     1       1.117   8.660  20.341  0.00  0.00    +0.000 A 
ATOM      5  C   UNL     1       1.571   8.964  19.045  0.00  0.00    +0.000 A 
ATOM      6  C   UNL     1       2.347   8.061  18.307  0.00  0.00    +0.000 A 
ENDROOT
BRANCH   1  12
ATOM      7  C   UNL     1       6.366   3.691  14.960  0.00  0.00    +0.000 C 
ATOM      8  N   UNL     1       6.492   4.732  15.982  0.00  0.00    +0.000 N 
ATOM      9  C   UNL     1       5.348   5.000  16.709  0.00  0.00    +0.000 A 
ATOM     10  N   UNL     1       4.218   4.315  16.654  0.00  0.00    +0.000 NA
ATOM     11  N   UNL     1       3.199   4.874  17.399  0.00  0.00    +0.000 NA
ATOM     12  C   UNL     1       3.594   5.937  18.071  0.00  0.00    +0.000 A 
ATOM     13  S   UNL     1       5.263   6.283  17.880  0.00  0.00    +0.000 S 
BRANCH   8  14
ATOM     14  N   UNL     1       7.213   5.917  15.628  0.00  0.00    +0.000 NA
ATOM     15  H   UNL     1       6.568   6.708  15.540  0.00  0.00    +0.000 HD
ATOM     16  H   UNL     1       7.613   5.802  14.694  0.00  0.00    +0.000 HD
ENDBRANCH   8  14
ENDBRANCH   1  12
BRANCH   4  17
ATOM     17  C   UNL     1       0.286   9.613  21.114  0.00  0.00    +0.000 A 
ATOM     18  C   UNL     1      -0.040   9.384  22.464  0.00  0.00    +0.000 A 
ATOM     19  C   UNL     1      -0.829  10.282  23.190  0.00  0.00    +0.000 A 
ATOM     20  C   UNL     1      -1.301  11.442  22.586  0.00  0.00    +0.000 A 
ATOM     21  C   UNL     1      -0.992  11.698  21.255  0.00  0.00    +0.000 A 
ATOM     22  C   UNL     1      -0.215  10.792  20.528  0.00  0.00    +0.000 A 
ENDBRANCH   4  17
TORSDOF 3
ENDMDL
MODEL 4
REMARK VINA RESULT:      -7.3      4.595      8.480
REMARK  Name = 
REMARK  4 active torsions:
REMARK  status: ('A' for Active; 'I' for Inactive)
REMARK    1  A    between atoms: C_1  and  N_2
REMARK    2  A    between atoms: N_2  and  N_3
REMARK    3  A    between atoms: C_7  and  C_8
REMARK    4  A    between atoms: C_11  and  C_12
REMARK                            x       y       z     vdW  Elec       q    Type
REMARK                         _______ _______ _______ _____ _____    ______ ____
ROOT
ATOM      1  C   UNL     1       1.347   9.028  19.769  0.00  0.00    +0.000 A 
ATOM      2  C   UNL     1       1.696   7.801  20.347  0.00  0.00    +0.000 A 
ATOM      3  C   UNL     1       2.436   6.852  19.629  0.00  0.00    +0.000 A 
ATOM      4  C   UNL     1       2.850   7.085  18.307  0.00  0.00    +0.000 A 
ATOM      5  C   UNL     1       2.497   8.323  17.740  0.00  0.00    +0.000 A 
ATOM      6  C   UNL     1       1.773   9.281  18.460  0.00  0.00    +0.000 A 
ENDROOT
BRANCH   1  12
ATOM      7  C   UNL     1      -1.692  13.829  22.205  0.00  0.00    +0.000 C 
ATOM      8  N   UNL     1      -1.801  12.934  21.050  0.00  0.00    +0.000 N 
ATOM      9  C   UNL     1      -0.915  11.874  21.029  0.00  0.00    +0.000 A 
ATOM     10  N   UNL     1      -0.093  11.532  22.007  0.00  0.00    +0.000 NA
ATOM     11  N   UNL     1       0.764  10.504  21.671  0.00  0.00    +0.000 NA
ATOM     12  C   UNL     1       0.529  10.029  20.465  0.00  0.00    +0.000 A 
ATOM     13  S   UNL     1      -0.805  10.774  19.687  0.00  0.00    +0.000 S 
BRANCH   8  14
ATOM     14  N   UNL     1      -1.973  13.537  19.764  0.00  0.00    +0.000 NA
ATOM     15  H   UNL     1      -1.909  14.556  19.841  0.00  0.00    +0.000 HD
ATOM     16  H   UNL     1      -2.925  13.359  19.434  0.00  0.00    +0.000 HD
ENDBRANCH   8  14
ENDBRANCH   1  12
BRANCH   4  17
ATOM     17  C   UNL     1       3.628   6.078  17.548  0.00  0.00    +0.000 A 
ATOM     18  C   UNL     1       3.355   4.701  17.651  0.00  0.00    +0.000 A 
ATOM     19  C   UNL     1       4.095   3.752  16.937  0.00  0.00    +0.000 A 
ATOM     20  C   UNL     1       5.118   4.160  16.088  0.00  0.00    +0.000 A 
ATOM     21  C   UNL     1       5.408   5.514  15.962  0.00  0.00    +0.000 A 
ATOM     22  C   UNL     1       4.677   6.458  16.688  0.00  0.00    +0.000 A 
ENDBRANCH   4  17
TORSDOF 3
ENDMDL
MODEL 5
REMARK VINA RESULT:      -7.3      4.585      8.431
REMARK  Name = 
REMARK  4 active torsions:
REMARK  status: ('A' for Active; 'I' for Inactive)
REMARK    1  A    between atoms: C_1  and  N_2
REMARK    2  A    between atoms: N_2  and  N_3
REMARK    3  A    between atoms: C_7  and  C_8
REMARK    4  A    between atoms: C_11  and  C_12
REMARK                            x       y       z     vdW  Elec       q    Type
REMARK                         _______ _______ _______ _____ _____    ______ ____
ROOT
ATOM      1  C   UNL     1       1.353   9.011  19.762  0.00  0.00    +0.000 A 
ATOM      2  C   UNL     1       1.713   7.784  20.335  0.00  0.00    +0.000 A 
ATOM      3  C   UNL     1       2.458   6.843  19.613  0.00  0.00    +0.000 A 
ATOM      4  C   UNL     1       2.867   7.083  18.290  0.00  0.00    +0.000 A 
ATOM      5  C   UNL     1       2.503   8.320  17.728  0.00  0.00    +0.000 A 
ATOM      6  C   UNL     1       1.774   9.271  18.453  0.00  0.00    +0.000 A 
ENDROOT
BRANCH   1  12
ATOM      7  C   UNL     1      -1.715  13.782  22.220  0.00  0.00    +0.000 C 
ATOM      8  N   UNL     1      -1.820  12.889  21.064  0.00  0.00    +0.000 N 
ATOM      9  C   UNL     1      -0.926  11.836  21.037  0.00  0.00    +0.000 A 
ATOM     10  N   UNL     1      -0.099  11.497  22.012  0.00  0.00    +0.000 NA
ATOM     11  N   UNL     1       0.765  10.477  21.670  0.00  0.00    +0.000 NA
ATOM     12  C   UNL     1       0.530  10.004  20.463  0.00  0.00    +0.000 A 
ATOM     13  S   UNL     1      -0.812  10.741  19.691  0.00  0.00    +0.000 S 
BRANCH   8  14
ATOM     14  N   UNL     1      -2.001  13.494  19.780  0.00  0.00    +0.000 NA
ATOM     15  H   UNL     1      -1.144  13.979  19.495  0.00  0.00    +0.000 HD
ATOM     16  H   UNL     1      -2.706  14.231  19.851  0.00  0.00    +0.000 HD
ENDBRANCH   8  14
ENDBRANCH   1  12
BRANCH   4  17
ATOM     17  C   UNL     1       3.650   6.084  17.525  0.00  0.00    +0.000 A 
ATOM     18  C   UNL     1       4.696   6.466  16.666  0.00  0.00    +0.000 A 
ATOM     19  C   UNL     1       5.431   5.521  15.940  0.00  0.00    +0.000 A 
ATOM     20  C   UNL     1       5.144   4.166  16.069  0.00  0.00    +0.000 A 
ATOM     21  C   UNL     1       4.118   3.759  16.914  0.00  0.00    +0.000 A 
ATOM     22  C   UNL     1       3.378   4.706  17.626  0.00  0.00    +0.000 A 
ENDBRANCH   4  17
TORSDOF 3
ENDMDL
MODEL 6
REMARK VINA RESULT:      -7.3      4.782      8.540
REMARK  Name = 
REMARK  4 active torsions:
REMARK  status: ('A' for Active; 'I' for Inactive)
REMARK    1  A    between atoms: C_1  and  N_2
REMARK    2  A    between atoms: N_2  and  N_3
REMARK    3  A    between atoms: C_7  and  C_8
REMARK    4  A    between atoms: C_11  and  C_12
REMARK                            x       y       z     vdW  Elec       q    Type
REMARK                         _______ _______ _______ _____ _____    ______ ____
ROOT
ATOM      1  C   UNL     1       1.096   9.288  19.813  0.00  0.00    +0.000 A 
ATOM      2  C   UNL     1       1.460   9.406  18.466  0.00  0.00    +0.000 A 
ATOM      3  C   UNL     1       2.186   8.393  17.825  0.00  0.00    +0.000 A 
ATOM      4  C   UNL     1       2.583   7.228  18.502  0.00  0.00    +0.000 A 
ATOM      5  C   UNL     1       2.208   7.120  19.853  0.00  0.00    +0.000 A 
ATOM      6  C   UNL     1       1.468   8.123  20.493  0.00  0.00    +0.000 A 
ENDROOT
BRANCH   1  12
ATOM      7  C   UNL     1      -1.494  14.298  22.345  0.00  0.00    +0.000 C 
ATOM      8  N   UNL     1      -1.719  13.404  21.207  0.00  0.00    +0.000 N 
ATOM      9  C   UNL     1      -0.907  12.287  21.153  0.00  0.00    +0.000 A 
ATOM     10  N   UNL     1      -0.062  11.898  22.093  0.00  0.00    +0.000 NA
ATOM     11  N   UNL     1       0.708  10.813  21.725  0.00  0.00    +0.000 NA
ATOM     12  C   UNL     1       0.382  10.347  20.537  0.00  0.00    +0.000 A 
ATOM     13  S   UNL     1      -0.938  11.173  19.819  0.00  0.00    +0.000 S 
BRANCH   8  14
ATOM     14  N   UNL     1      -1.916  14.007  19.925  0.00  0.00    +0.000 NA
ATOM     15  H   UNL     1      -2.685  14.683  19.967  0.00  0.00    +0.000 HD
ATOM     16  H   UNL     1      -2.232  13.294  19.263  0.00  0.00    +0.000 HD
ENDBRANCH   8  14
ENDBRANCH   1  12
BRANCH   4  17
ATOM     17  C   UNL     1       3.356   6.160  17.825  0.00  0.00    +0.000 A 
ATOM     18  C   UNL     1       4.511   6.446  17.074  0.00  0.00    +0.000 A 
ATOM     19  C   UNL     1       5.236   5.436  16.431  0.00  0.00    +0.000 A 
ATOM     20  C   UNL     1       4.829   4.111  16.536  0.00  0.00    +0.000 A 
ATOM     21  C   UNL     1       3.693   3.797  17.274  0.00  0.00    +0.000 A 
ATOM     22  C   UNL     1       2.964   4.810  17.903  0.00  0.00    +0.000 A 
ENDBRANCH   4  17
TORSDOF 3
ENDMDL
MODEL 7
REMARK VINA RESULT:      -7.3      1.227      1.326
REMARK  Name = 
REMARK  4 active torsions:
REMARK  status: ('A' for Active; 'I' for Inactive)
REMARK    1  A    between atoms: C_1  and  N_2
REMARK    2  A    between atoms: N_2  and  N_3
REMARK    3  A    between atoms: C_7  and  C_8
REMARK    4  A    between atoms: C_11  and  C_12
REMARK                            x       y       z     vdW  Elec       q    Type
REMARK                         _______ _______ _______ _____ _____    ______ ____
ROOT
ATOM      1  C   UNL     1       2.537   7.657  18.716  0.00  0.00    +0.000 A 
ATOM      2  C   UNL     1       2.199   7.325  20.034  0.00  0.00    +0.000 A 
ATOM      3  C   UNL     1       1.344   8.141  20.786  0.00  0.00    +0.000 A 
ATOM      4  C   UNL     1       0.798   9.323  20.257  0.00  0.00    +0.000 A 
ATOM      5  C   UNL     1       1.142   9.644  18.932  0.00  0.00    +0.000 A 
ATOM      6  C   UNL     1       1.983   8.821  18.171  0.00  0.00    +0.000 A 
ENDROOT
BRANCH   1  12
ATOM      7  C   UNL     1       7.085   4.616  15.838  0.00  0.00    +0.000 C 
ATOM      8  N   UNL     1       6.212   4.439  17.001  0.00  0.00    +0.000 N 
ATOM      9  C   UNL     1       5.209   5.378  17.145  0.00  0.00    +0.000 A 
ATOM     10  N   UNL     1       4.894   6.316  16.267  0.00  0.00    +0.000 NA
ATOM     11  N   UNL     1       3.929   7.192  16.721  0.00  0.00    +0.000 NA
ATOM     12  C   UNL     1       3.470   6.860  17.910  0.00  0.00    +0.000 A 
ATOM     13  S   UNL     1       4.150   5.411  18.524  0.00  0.00    +0.000 S 
BRANCH   8  14
ATOM     14  N   UNL     1       6.834   4.099  18.244  0.00  0.00    +0.000 NA
ATOM     15  H   UNL     1       7.737   4.574  18.328  0.00  0.00    +0.000 HD
ATOM     16  H   UNL     1       7.062   3.102  18.244  0.00  0.00    +0.000 HD
ENDBRANCH   8  14
ENDBRANCH   1  12
BRANCH   4  17
ATOM     17  C   UNL     1      -0.102  10.189  21.056  0.00  0.00    +0.000 A 
ATOM     18  C   UNL     1      -0.784  11.276  20.480  0.00  0.00    +0.000 A 
ATOM     19  C   UNL     1      -1.629  12.095  21.237  0.00  0.00    +0.000 A 
ATOM     20  C   UNL     1      -1.823  11.836  22.589  0.00  0.00    +0.000 A 
ATOM     21  C   UNL     1      -1.166  10.766  23.185  0.00  0.00    +0.000 A 
ATOM     22  C   UNL     1      -0.312   9.959  22.429  0.00  0.00    +0.000 A 
ENDBRANCH   4  17
TORSDOF 3
ENDMDL
MODEL 8
REMARK VINA RESULT:      -7.2      4.764      8.518
REMARK  Name = 
REMARK  4 active torsions:
REMARK  status: ('A' for Active; 'I' for Inactive)
REMARK    1  A    between atoms: C_1  and  N_2
REMARK    2  A    between atoms: N_2  and  N_3
REMARK    3  A    between atoms: C_7  and  C_8
REMARK    4  A    between atoms: C_11  and  C_12
REMARK                            x       y       z     vdW  Elec       q    Type
REMARK                         _______ _______ _______ _____ _____    ______ ____
ROOT
ATOM      1  C   UNL     1       1.113   9.359  19.825  0.00  0.00    +0.000 A 
ATOM      2  C   UNL     1       1.462   9.497  18.475  0.00  0.00    +0.000 A 
ATOM      3  C   UNL     1       2.183   8.495  17.812  0.00  0.00    +0.000 A 
ATOM      4  C   UNL     1       2.592   7.323  18.469  0.00  0.00    +0.000 A 
ATOM      5  C   UNL     1       2.233   7.194  19.822  0.00  0.00    +0.000 A 
ATOM      6  C   UNL     1       1.496   8.185  20.484  0.00  0.00    +0.000 A 
ENDROOT
BRANCH   1  12
ATOM      7  C   UNL     1      -1.160  13.811  23.462  0.00  0.00    +0.000 C 
ATOM      8  N   UNL     1      -0.328  13.694  22.261  0.00  0.00    +0.000 N 
ATOM      9  C   UNL     1      -0.225  12.424  21.727  0.00  0.00    +0.000 A 
ATOM     10  N   UNL     1      -0.908  11.361  22.118  0.00  0.00    +0.000 NA
ATOM     11  N   UNL     1      -0.520  10.195  21.489  0.00  0.00    +0.000 NA
ATOM     12  C   UNL     1       0.404  10.404  20.573  0.00  0.00    +0.000 A 
ATOM     13  S   UNL     1       0.811  12.058  20.379  0.00  0.00    +0.000 S 
BRANCH   8  14
ATOM     14  N   UNL     1       0.915  14.401  22.251  0.00  0.00    +0.000 NA
ATOM     15  H   UNL     1       0.755  15.393  22.053  0.00  0.00    +0.000 HD
ATOM     16  H   UNL     1       1.485  14.068  21.469  0.00  0.00    +0.000 HD
ENDBRANCH   8  14
ENDBRANCH   1  12
BRANCH   4  17
ATOM     17  C   UNL     1       3.360   6.267  17.767  0.00  0.00    +0.000 A 
ATOM     18  C   UNL     1       3.002   4.909  17.856  0.00  0.00    +0.000 A 
ATOM     19  C   UNL     1       3.732   3.914  17.197  0.00  0.00    +0.000 A 
ATOM     20  C   UNL     1       4.834   4.256  16.420  0.00  0.00    +0.000 A 
ATOM     21  C   UNL     1       5.210   5.590  16.311  0.00  0.00    +0.000 A 
ATOM     22  C   UNL     1       4.486   6.580  16.981  0.00  0.00    +0.000 A 
ENDBRANCH   4  17
TORSDOF 3
ENDMDL
MODEL 9
REMARK VINA RESULT:      -7.2      1.297      1.764
REMARK  Name = 
REMARK  4 active torsions:
REMARK  status: ('A' for Active; 'I' for Inactive)
REMARK    1  A    between atoms: C_1  and  N_2
REMARK    2  A    between atoms: N_2  and  N_3
REMARK    3  A    between atoms: C_7  and  C_8
REMARK    4  A    between atoms: C_11  and  C_12
REMARK                            x       y       z     vdW  Elec       q    Type
REMARK                         _______ _______ _______ _____ _____    ______ ____
ROOT
ATOM      1  C   UNL     1       2.444   7.694  18.805  0.00  0.00    +0.000 A 
ATOM      2  C   UNL     1       2.090   7.392  20.126  0.00  0.00    +0.000 A 
ATOM      3  C   UNL     1       1.229   8.226  20.849  0.00  0.00    +0.000 A 
ATOM      4  C   UNL     1       0.692   9.397  20.289  0.00  0.00    +0.000 A 
ATOM      5  C   UNL     1       1.052   9.688  18.961  0.00  0.00    +0.000 A 
ATOM      6  C   UNL     1       1.899   8.847  18.228  0.00  0.00    +0.000 A 
ENDROOT
BRANCH   1  12
ATOM      7  C   UNL     1       7.018   4.583  16.044  0.00  0.00    +0.000 C 
ATOM      8  N   UNL     1       6.136   4.436  17.204  0.00  0.00    +0.000 N 
ATOM      9  C   UNL     1       5.131   5.377  17.316  0.00  0.00    +0.000 A 
ATOM     10  N   UNL     1       4.822   6.291  16.411  0.00  0.00    +0.000 NA
ATOM     11  N   UNL     1       3.852   7.178  16.834  0.00  0.00    +0.000 NA
ATOM     12  C   UNL     1       3.384   6.877  18.028  0.00  0.00    +0.000 A 
ATOM     13  S   UNL     1       4.061   5.445  18.685  0.00  0.00    +0.000 S 
BRANCH   8  14
ATOM     14  N   UNL     1       6.748   4.129  18.461  0.00  0.00    +0.000 NA
ATOM     15  H   UNL     1       6.030   3.925  19.162  0.00  0.00    +0.000 HD
ATOM     16  H   UNL     1       7.228   4.961  18.813  0.00  0.00    +0.000 HD
ENDBRANCH   8  14
ENDBRANCH   1  12
BRANCH   4  17
ATOM     17  C   UNL     1      -0.215  10.282  21.057  0.00  0.00    +0.000 A 
ATOM     18  C   UNL     1      -0.438  10.096  22.434  0.00  0.00    +0.000 A 
ATOM     19  C   UNL     1      -1.299  10.930  23.156  0.00  0.00    +0.000 A 
ATOM     20  C   UNL     1      -1.948  11.982  22.519  0.00  0.00    +0.000 A 
ATOM     21  C   UNL     1      -1.744  12.193  21.161  0.00  0.00    +0.000 A 
ATOM     22  C   UNL     1      -0.894  11.350  20.440  0.00  0.00    +0.000 A 
ENDBRANCH   4  17
TORSDOF 3
ENDMDL
