MODEL 1
REMARK VINA RESULT:      -8.1      0.000      0.000
REMARK  Name = 
REMARK  6 active torsions:
REMARK  status: ('A' for Active; 'I' for Inactive)
REMARK    1  A    between atoms: C_2  and  O_3
REMARK    2  A    between atoms: C_2  and  C_4
REMARK    3  A    between atoms: C_6  and  N_7
REMARK    4  A    between atoms: N_7  and  C_8
REMARK    5  A    between atoms: C_11  and  O_12
REMARK    6  A    between atoms: C_21  and  O_22
REMARK                            x       y       z     vdW  Elec       q    Type
REMARK                         _______ _______ _______ _____ _____    ______ ____
ROOT
ATOM      1  N   UNL     1       2.326   6.554  20.657  0.00  0.00    +0.000 N 
ATOM      2  H   UNL     1       3.229   6.608  21.113  0.00  0.00    +0.000 HD
ENDROOT
BRANCH   1   3
ATOM      3  C   UNL     1       2.100   5.356  19.923  0.00  0.00    +0.000 A 
ATOM      4  C   UNL     1       1.063   4.514  20.361  0.00  0.00    +0.000 A 
ATOM      5  C   UNL     1       0.951   3.221  19.905  0.00  0.00    +0.000 A 
ATOM      6  C   UNL     1       1.925   2.724  19.034  0.00  0.00    +0.000 A 
ATOM      7  C   UNL     1       2.934   3.551  18.519  0.00  0.00    +0.000 A 
ATOM      8  C   UNL     1       3.872   3.030  17.623  0.00  0.00    +0.000 A 
ATOM      9  C   UNL     1       4.482   3.871  16.712  0.00  0.00    +0.000 A 
ATOM     10  C   UNL     1       4.341   5.248  16.859  0.00  0.00    +0.000 A 
ATOM     11  C   UNL     1       3.682   5.770  17.981  0.00  0.00    +0.000 A 
ATOM     12  C   UNL     1       2.913   4.927  18.825  0.00  0.00    +0.000 A 
BRANCH   6  13
ATOM     13  O   UNL     1       1.836   1.423  18.632  0.00  0.00    +0.000 OA
ATOM     14  H   UNL     1       0.887   1.223  18.540  0.00  0.00    +0.000 HD
ENDBRANCH   6  13
ENDBRANCH   1   3
BRANCH   1  17
ATOM     15  C   UNL     1       0.390   9.693  21.399  0.00  0.00    +0.000 A 
ATOM     16  C   UNL     1       0.955   8.404  21.545  0.00  0.00    +0.000 A 
ATOM     17  C   UNL     1       1.634   7.789  20.486  0.00  0.00    +0.000 A 
ATOM     18  C   UNL     1       1.661   8.468  19.251  0.00  0.00    +0.000 A 
ATOM     19  C   UNL     1       1.126   9.751  19.099  0.00  0.00    +0.000 A 
ATOM     20  C   UNL     1       0.513  10.365  20.174  0.00  0.00    +0.000 A 
BRANCH  15  22
ATOM     21  O   UNL     1      -0.320  11.493  22.788  0.00  0.00    +0.000 OA
ATOM     22  C   UNL     1      -0.299  10.290  22.580  0.00  0.00    +0.000 C 
BRANCH  22  23
ATOM     23  O   UNL     1      -0.946   9.407  23.372  0.00  0.00    +0.000 OA
ATOM     24  H   UNL     1      -1.238   9.808  24.220  0.00  0.00    +0.000 HD
ENDBRANCH  22  23
ENDBRANCH  15  22
BRANCH  20  25
ATOM     25  O   UNL     1       0.028  11.641  20.038  0.00  0.00    +0.000 OA
ATOM     26  H   UNL     1       0.382  12.188  20.765  0.00  0.00    +0.000 HD
ENDBRANCH  20  25
ENDBRANCH   1  17
TORSDOF 6
ENDMDL
MODEL 2
REMARK VINA RESULT:      -8.0      3.905      7.864
REMARK  Name = 
REMARK  6 active torsions:
REMARK  status: ('A' for Active; 'I' for Inactive)
REMARK    1  A    between atoms: C_2  and  O_3
REMARK    2  A    between atoms: C_2  and  C_4
REMARK    3  A    between atoms: C_6  and  N_7
REMARK    4  A    between atoms: N_7  and  C_8
REMARK    5  A    between atoms: C_11  and  O_12
REMARK    6  A    between atoms: C_21  and  O_22
REMARK                            x       y       z     vdW  Elec       q    Type
REMARK                         _______ _______ _______ _____ _____    ______ ____
ROOT
ATOM      1  N   UNL     1       3.809   3.709  16.856  0.00  0.00    +0.000 N 
ATOM      2  H   UNL     1       2.961   3.676  16.303  0.00  0.00    +0.000 HD
ENDROOT
BRANCH   1   3
ATOM      3  C   UNL     1       3.600   3.766  18.263  0.00  0.00    +0.000 A 
ATOM      4  C   UNL     1       3.952   2.631  19.015  0.00  0.00    +0.000 A 
ATOM      5  C   UNL     1       3.532   2.478  20.316  0.00  0.00    +0.000 A 
ATOM      6  C   UNL     1       2.692   3.446  20.874  0.00  0.00    +0.000 A 
ATOM      7  C   UNL     1       2.377   4.625  20.183  0.00  0.00    +0.000 A 
ATOM      8  C   UNL     1       1.562   5.588  20.785  0.00  0.00    +0.000 A 
ATOM      9  C   UNL     1       1.686   6.912  20.412  0.00  0.00    +0.000 A 
ATOM     10  C   UNL     1       2.436   7.232  19.283  0.00  0.00    +0.000 A 
ATOM     11  C   UNL     1       2.961   6.213  18.478  0.00  0.00    +0.000 A 
ATOM     12  C   UNL     1       2.986   4.870  18.935  0.00  0.00    +0.000 A 
BRANCH   6  13
ATOM     13  O   UNL     1       2.236   3.256  22.146  0.00  0.00    +0.000 OA
ATOM     14  H   UNL     1       2.836   3.749  22.735  0.00  0.00    +0.000 HD
ENDBRANCH   6  13
ENDBRANCH   1   3
BRANCH   1  17
ATOM     15  C   UNL     1       6.349   4.198  14.125  0.00  0.00    +0.000 A 
ATOM     16  C   UNL     1       5.239   3.697  14.844  0.00  0.00    +0.000 A 
ATOM     17  C   UNL     1       4.995   4.096  16.164  0.00  0.00    +0.000 A 
ATOM     18  C   UNL     1       5.940   4.948  16.770  0.00  0.00    +0.000 A 
ATOM     19  C   UNL     1       7.029   5.468  16.065  0.00  0.00    +0.000 A 
ATOM     20  C   UNL     1       7.219   5.109  14.744  0.00  0.00    +0.000 A 
BRANCH  15  22
ATOM     21  O   UNL     1       7.214   4.356  11.911  0.00  0.00    +0.000 OA
ATOM     22  C   UNL     1       6.530   3.743  12.716  0.00  0.00    +0.000 C 
BRANCH  22  23
ATOM     23  O   UNL     1       5.927   2.573  12.411  0.00  0.00    +0.000 OA
ATOM     24  H   UNL     1       5.122   2.415  12.953  0.00  0.00    +0.000 HD
ENDBRANCH  22  23
ENDBRANCH  15  22
BRANCH  20  25
ATOM     25  O   UNL     1       8.261   5.653  14.037  0.00  0.00    +0.000 OA
ATOM     26  H   UNL     1       7.909   6.043  13.214  0.00  0.00    +0.000 HD
ENDBRANCH  20  25
ENDBRANCH   1  17
TORSDOF 6
ENDMDL
MODEL 3
REMARK VINA RESULT:      -8.0      1.838      7.558
REMARK  Name = 
REMARK  6 active torsions:
REMARK  status: ('A' for Active; 'I' for Inactive)
REMARK    1  A    between atoms: C_2  and  O_3
REMARK    2  A    between atoms: C_2  and  C_4
REMARK    3  A    between atoms: C_6  and  N_7
REMARK    4  A    between atoms: N_7  and  C_8
REMARK    5  A    between atoms: C_11  and  O_12
REMARK    6  A    between atoms: C_21  and  O_22
REMARK                            x       y       z     vdW  Elec       q    Type
REMARK                         _______ _______ _______ _____ _____    ______ ____
ROOT
ATOM      1  N   UNL     1       2.448   6.856  20.298  0.00  0.00    +0.000 N 
ATOM      2  H   UNL     1       2.882   6.964  21.206  0.00  0.00    +0.000 HD
ENDROOT
BRANCH   1   3
ATOM      3  C   UNL     1       1.795   8.022  19.807  0.00  0.00    +0.000 A 
ATOM      4  C   UNL     1       1.983   8.347  18.452  0.00  0.00    +0.000 A 
ATOM      5  C   UNL     1       1.639   9.585  17.960  0.00  0.00    +0.000 A 
ATOM      6  C   UNL     1       1.145  10.550  18.842  0.00  0.00    +0.000 A 
ATOM      7  C   UNL     1       0.876  10.244  20.184  0.00  0.00    +0.000 A 
ATOM      8  C   UNL     1       0.350  11.224  21.031  0.00  0.00    +0.000 A 
ATOM      9  C   UNL     1      -0.414  10.845  22.117  0.00  0.00    +0.000 A 
ATOM     10  C   UNL     1      -0.445   9.504  22.491  0.00  0.00    +0.000 A 
ATOM     11  C   UNL     1       0.377   8.575  21.839  0.00  0.00    +0.000 A 
ATOM     12  C   UNL     1       1.031   8.914  20.626  0.00  0.00    +0.000 A 
BRANCH   6  13
ATOM     13  O   UNL     1       0.859  11.792  18.354  0.00  0.00    +0.000 OA
ATOM     14  H   UNL     1      -0.100  11.924  18.470  0.00  0.00    +0.000 HD
ENDBRANCH   6  13
ENDBRANCH   1   3
BRANCH   1  17
ATOM     15  C   UNL     1       2.875   3.518  18.617  0.00  0.00    +0.000 A 
ATOM     16  C   UNL     1       3.037   4.887  18.930  0.00  0.00    +0.000 A 
ATOM     17  C   UNL     1       2.211   5.516  19.871  0.00  0.00    +0.000 A 
ATOM     18  C   UNL     1       1.166   4.753  20.429  0.00  0.00    +0.000 A 
ATOM     19  C   UNL     1       1.007   3.393  20.146  0.00  0.00    +0.000 A 
ATOM     20  C   UNL     1       1.871   2.777  19.259  0.00  0.00    +0.000 A 
BRANCH  15  22
ATOM     21  O   UNL     1       4.233   3.537  16.660  0.00  0.00    +0.000 OA
ATOM     22  C   UNL     1       3.807   2.915  17.621  0.00  0.00    +0.000 C 
BRANCH  22  23
ATOM     23  O   UNL     1       4.191   1.648  17.892  0.00  0.00    +0.000 OA
ATOM     24  H   UNL     1       4.015   1.036  17.143  0.00  0.00    +0.000 HD
ENDBRANCH  22  23
ENDBRANCH  15  22
BRANCH  20  25
ATOM     25  O   UNL     1       1.745   1.433  19.015  0.00  0.00    +0.000 OA
ATOM     26  H   UNL     1       1.223   1.033  19.737  0.00  0.00    +0.000 HD
ENDBRANCH  20  25
ENDBRANCH   1  17
TORSDOF 6
ENDMDL
MODEL 4
REMARK VINA RESULT:      -8.0      3.958      8.102
REMARK  Name = 
REMARK  6 active torsions:
REMARK  status: ('A' for Active; 'I' for Inactive)
REMARK    1  A    between atoms: C_2  and  O_3
REMARK    2  A    between atoms: C_2  and  C_4
REMARK    3  A    between atoms: C_6  and  N_7
REMARK    4  A    between atoms: N_7  and  C_8
REMARK    5  A    between atoms: C_11  and  O_12
REMARK    6  A    between atoms: C_21  and  O_22
REMARK                            x       y       z     vdW  Elec       q    Type
REMARK                         _______ _______ _______ _____ _____    ______ ____
ROOT
ATOM      1  N   UNL     1       3.910   3.744  16.815  0.00  0.00    +0.000 N 
ATOM      2  H   UNL     1       3.368   2.995  16.404  0.00  0.00    +0.000 HD
ENDROOT
BRANCH   1   3
ATOM      3  C   UNL     1       3.208   4.536  17.767  0.00  0.00    +0.000 A 
ATOM      4  C   UNL     1       3.182   5.926  17.559  0.00  0.00    +0.000 A 
ATOM      5  C   UNL     1       2.784   6.789  18.554  0.00  0.00    +0.000 A 
ATOM      6  C   UNL     1       2.456   6.270  19.809  0.00  0.00    +0.000 A 
ATOM      7  C   UNL     1       2.401   4.887  20.035  0.00  0.00    +0.000 A 
ATOM      8  C   UNL     1       2.035   4.401  21.294  0.00  0.00    +0.000 A 
ATOM      9  C   UNL     1       1.448   3.155  21.397  0.00  0.00    +0.000 A 
ATOM     10  C   UNL     1       1.454   2.308  20.292  0.00  0.00    +0.000 A 
ATOM     11  C   UNL     1       2.145   2.676  19.130  0.00  0.00    +0.000 A 
ATOM     12  C   UNL     1       2.601   4.008  18.951  0.00  0.00    +0.000 A 
BRANCH   6  13
ATOM     13  O   UNL     1       2.116   7.140  20.805  0.00  0.00    +0.000 OA
ATOM     14  H   UNL     1       2.938   7.352  21.283  0.00  0.00    +0.000 HD
ENDBRANCH   6  13
ENDBRANCH   1   3
BRANCH   1  17
ATOM     15  C   UNL     1       6.418   4.223  14.051  0.00  0.00    +0.000 A 
ATOM     16  C   UNL     1       5.316   3.726  14.785  0.00  0.00    +0.000 A 
ATOM     17  C   UNL     1       5.089   4.127  16.108  0.00  0.00    +0.000 A 
ATOM     18  C   UNL     1       6.044   4.977  16.701  0.00  0.00    +0.000 A 
ATOM     19  C   UNL     1       7.126   5.493  15.981  0.00  0.00    +0.000 A 
ATOM     20  C   UNL     1       7.298   5.132  14.659  0.00  0.00    +0.000 A 
BRANCH  15  22
ATOM     21  O   UNL     1       7.238   4.387  11.821  0.00  0.00    +0.000 OA
ATOM     22  C   UNL     1       6.580   3.766  12.641  0.00  0.00    +0.000 C 
BRANCH  22  23
ATOM     23  O   UNL     1       5.991   2.584  12.352  0.00  0.00    +0.000 OA
ATOM     24  H   UNL     1       5.777   2.496  11.396  0.00  0.00    +0.000 HD
ENDBRANCH  22  23
ENDBRANCH  15  22
BRANCH  20  25
ATOM     25  O   UNL     1       8.333   5.672  13.938  0.00  0.00    +0.000 OA
ATOM     26  H   UNL     1       8.481   5.122  13.145  0.00  0.00    +0.000 HD
ENDBRANCH  20  25
ENDBRANCH   1  17
TORSDOF 6
ENDMDL
MODEL 5
REMARK VINA RESULT:      -7.8      1.104      2.239
REMARK  Name = 
REMARK  6 active torsions:
REMARK  status: ('A' for Active; 'I' for Inactive)
REMARK    1  A    between atoms: C_2  and  O_3
REMARK    2  A    between atoms: C_2  and  C_4
REMARK    3  A    between atoms: C_6  and  N_7
REMARK    4  A    between atoms: N_7  and  C_8
REMARK    5  A    between atoms: C_11  and  O_12
REMARK    6  A    between atoms: C_21  and  O_22
REMARK                            x       y       z     vdW  Elec       q    Type
REMARK                         _______ _______ _______ _____ _____    ______ ____
ROOT
ATOM      1  N   UNL     1       2.165   6.379  20.863  0.00  0.00    +0.000 N 
ATOM      2  H   UNL     1       3.035   6.392  21.380  0.00  0.00    +0.000 HD
ENDROOT
BRANCH   1   3
ATOM      3  C   UNL     1       1.998   5.257  20.004  0.00  0.00    +0.000 A 
ATOM      4  C   UNL     1       0.975   4.346  20.320  0.00  0.00    +0.000 A 
ATOM      5  C   UNL     1       0.918   3.103  19.732  0.00  0.00    +0.000 A 
ATOM      6  C   UNL     1       1.932   2.726  18.847  0.00  0.00    +0.000 A 
ATOM      7  C   UNL     1       2.929   3.630  18.452  0.00  0.00    +0.000 A 
ATOM      8  C   UNL     1       3.909   3.230  17.538  0.00  0.00    +0.000 A 
ATOM      9  C   UNL     1       4.519   4.177  16.737  0.00  0.00    +0.000 A 
ATOM     10  C   UNL     1       4.330   5.528  17.019  0.00  0.00    +0.000 A 
ATOM     11  C   UNL     1       3.622   5.913  18.166  0.00  0.00    +0.000 A 
ATOM     12  C   UNL     1       2.856   4.967  18.895  0.00  0.00    +0.000 A 
BRANCH   6  13
ATOM     13  O   UNL     1       1.896   1.471  18.312  0.00  0.00    +0.000 OA
ATOM     14  H   UNL     1       1.905   1.579  17.344  0.00  0.00    +0.000 HD
ENDBRANCH   6  13
ENDBRANCH   1   3
BRANCH   1  17
ATOM     15  C   UNL     1       0.988   9.719  19.591  0.00  0.00    +0.000 A 
ATOM     16  C   UNL     1       1.770   8.552  19.760  0.00  0.00    +0.000 A 
ATOM     17  C   UNL     1       1.474   7.624  20.766  0.00  0.00    +0.000 A 
ATOM     18  C   UNL     1       0.422   7.938  21.650  0.00  0.00    +0.000 A 
ATOM     19  C   UNL     1      -0.373   9.076  21.481  0.00  0.00    +0.000 A 
ATOM     20  C   UNL     1      -0.101   9.949  20.446  0.00  0.00    +0.000 A 
BRANCH  15  22
ATOM     21  O   UNL     1       1.266  11.862  18.589  0.00  0.00    +0.000 OA
ATOM     22  C   UNL     1       1.353  10.648  18.483  0.00  0.00    +0.000 C 
BRANCH  22  23
ATOM     23  O   UNL     1       1.840  10.051  17.373  0.00  0.00    +0.000 OA
ATOM     24  H   UNL     1       1.166   9.979  16.661  0.00  0.00    +0.000 HD
ENDBRANCH  22  23
ENDBRANCH  15  22
BRANCH  20  25
ATOM     25  O   UNL     1      -0.908  11.041  20.252  0.00  0.00    +0.000 OA
ATOM     26  H   UNL     1      -1.771  10.871  20.676  0.00  0.00    +0.000 HD
ENDBRANCH  20  25
ENDBRANCH   1  17
TORSDOF 6
ENDMDL
MODEL 6
REMARK VINA RESULT:      -7.8      2.051      7.059
REMARK  Name = 
REMARK  6 active torsions:
REMARK  status: ('A' for Active; 'I' for Inactive)
REMARK    1  A    between atoms: C_2  and  O_3
REMARK    2  A    between atoms: C_2  and  C_4
REMARK    3  A    between atoms: C_6  and  N_7
REMARK    4  A    between atoms: N_7  and  C_8
REMARK    5  A    between atoms: C_11  and  O_12
REMARK    6  A    between atoms: C_21  and  O_22
REMARK                            x       y       z     vdW  Elec       q    Type
REMARK                         _______ _______ _______ _____ _____    ______ ____
ROOT
ATOM      1  N   UNL     1       2.792   7.168  19.555  0.00  0.00    +0.000 N 
ATOM      2  H   UNL     1       3.559   7.389  20.178  0.00  0.00    +0.000 HD
ENDROOT
BRANCH   1   3
ATOM      3  C   UNL     1       1.907   8.251  19.291  0.00  0.00    +0.000 A 
ATOM      4  C   UNL     1       1.883   8.763  17.982  0.00  0.00    +0.000 A 
ATOM      5  C   UNL     1       1.289   9.970  17.697  0.00  0.00    +0.000 A 
ATOM      6  C   UNL     1       0.750  10.723  18.745  0.00  0.00    +0.000 A 
ATOM      7  C   UNL     1       0.691  10.217  20.052  0.00  0.00    +0.000 A 
ATOM      8  C   UNL     1       0.114  10.983  21.070  0.00  0.00    +0.000 A 
ATOM      9  C   UNL     1      -0.449  10.350  22.160  0.00  0.00    +0.000 A 
ATOM     10  C   UNL     1      -0.220   8.989  22.349  0.00  0.00    +0.000 A 
ATOM     11  C   UNL     1       0.662   8.303  21.503  0.00  0.00    +0.000 A 
ATOM     12  C   UNL     1       1.108   8.892  20.292  0.00  0.00    +0.000 A 
BRANCH   6  13
ATOM     13  O   UNL     1       0.213  11.944  18.459  0.00  0.00    +0.000 OA
ATOM     14  H   UNL     1       0.892  12.607  18.679  0.00  0.00    +0.000 HD
ENDBRANCH   6  13
ENDBRANCH   1   3
BRANCH   1  17
ATOM     15  C   UNL     1       2.075   3.554  20.316  0.00  0.00    +0.000 A 
ATOM     16  C   UNL     1       2.499   4.894  20.471  0.00  0.00    +0.000 A 
ATOM     17  C   UNL     1       2.499   5.782  19.388  0.00  0.00    +0.000 A 
ATOM     18  C   UNL     1       2.138   5.266  18.126  0.00  0.00    +0.000 A 
ATOM     19  C   UNL     1       1.696   3.950  17.962  0.00  0.00    +0.000 A 
ATOM     20  C   UNL     1       1.648   3.107  19.056  0.00  0.00    +0.000 A 
BRANCH  15  22
ATOM     21  O   UNL     1       3.110   2.198  21.978  0.00  0.00    +0.000 OA
ATOM     22  C   UNL     1       2.083   2.676  21.521  0.00  0.00    +0.000 C 
BRANCH  22  23
ATOM     23  O   UNL     1       0.878   2.494  22.104  0.00  0.00    +0.000 OA
ATOM     24  H   UNL     1       0.136   2.790  21.531  0.00  0.00    +0.000 HD
ENDBRANCH  22  23
ENDBRANCH  15  22
BRANCH  20  25
ATOM     25  O   UNL     1       1.171   1.830  18.905  0.00  0.00    +0.000 OA
ATOM     26  H   UNL     1       0.490   1.831  18.206  0.00  0.00    +0.000 HD
ENDBRANCH  20  25
ENDBRANCH   1  17
TORSDOF 6
ENDMDL
MODEL 7
REMARK VINA RESULT:      -7.8      3.568      6.822
REMARK  Name = 
REMARK  6 active torsions:
REMARK  status: ('A' for Active; 'I' for Inactive)
REMARK    1  A    between atoms: C_2  and  O_3
REMARK    2  A    between atoms: C_2  and  C_4
REMARK    3  A    between atoms: C_6  and  N_7
REMARK    4  A    between atoms: N_7  and  C_8
REMARK    5  A    between atoms: C_11  and  O_12
REMARK    6  A    between atoms: C_21  and  O_22
REMARK                            x       y       z     vdW  Elec       q    Type
REMARK                         _______ _______ _______ _____ _____    ______ ____
ROOT
ATOM      1  N   UNL     1       3.667   7.283  16.744  0.00  0.00    +0.000 N 
ATOM      2  H   UNL     1       3.596   7.979  16.012  0.00  0.00    +0.000 HD
ENDROOT
BRANCH   1   3
ATOM      3  C   UNL     1       2.744   7.447  17.814  0.00  0.00    +0.000 A 
ATOM      4  C   UNL     1       2.305   8.753  18.095  0.00  0.00    +0.000 A 
ATOM      5  C   UNL     1       1.649   9.050  19.268  0.00  0.00    +0.000 A 
ATOM      6  C   UNL     1       1.471   8.041  20.218  0.00  0.00    +0.000 A 
ATOM      7  C   UNL     1       1.831   6.712  19.947  0.00  0.00    +0.000 A 
ATOM      8  C   UNL     1       1.607   5.721  20.907  0.00  0.00    +0.000 A 
ATOM      9  C   UNL     1       1.421   4.413  20.503  0.00  0.00    +0.000 A 
ATOM     10  C   UNL     1       1.699   4.064  19.184  0.00  0.00    +0.000 A 
ATOM     11  C   UNL     1       2.267   5.005  18.314  0.00  0.00    +0.000 A 
ATOM     12  C   UNL     1       2.304   6.380  18.661  0.00  0.00    +0.000 A 
BRANCH   6  13
ATOM     13  O   UNL     1       0.870   8.359  21.400  0.00  0.00    +0.000 OA
ATOM     14  H   UNL     1       1.575   8.663  22.000  0.00  0.00    +0.000 HD
ENDBRANCH   6  13
ENDBRANCH   1   3
BRANCH   1  17
ATOM     15  C   UNL     1       7.032   6.012  17.846  0.00  0.00    +0.000 A 
ATOM     16  C   UNL     1       5.890   6.837  17.720  0.00  0.00    +0.000 A 
ATOM     17  C   UNL     1       4.886   6.543  16.790  0.00  0.00    +0.000 A 
ATOM     18  C   UNL     1       5.097   5.443  15.933  0.00  0.00    +0.000 A 
ATOM     19  C   UNL     1       6.210   4.606  16.061  0.00  0.00    +0.000 A 
ATOM     20  C   UNL     1       7.160   4.881  17.026  0.00  0.00    +0.000 A 
BRANCH  15  22
ATOM     21  O   UNL     1       8.594   7.472  18.898  0.00  0.00    +0.000 OA
ATOM     22  C   UNL     1       8.048   6.380  18.875  0.00  0.00    +0.000 C 
BRANCH  22  23
ATOM     23  O   UNL     1       8.278   5.435  19.814  0.00  0.00    +0.000 OA
ATOM     24  H   UNL     1       8.730   4.644  19.446  0.00  0.00    +0.000 HD
ENDBRANCH  22  23
ENDBRANCH  15  22
BRANCH  20  25
ATOM     25  O   UNL     1       8.229   4.036  17.183  0.00  0.00    +0.000 OA
ATOM     26  H   UNL     1       7.952   3.282  17.739  0.00  0.00    +0.000 HD
ENDBRANCH  20  25
ENDBRANCH   1  17
TORSDOF 6
ENDMDL
MODEL 8
REMARK VINA RESULT:      -7.7      1.185      2.664
REMARK  Name = 
REMARK  6 active torsions:
REMARK  status: ('A' for Active; 'I' for Inactive)
REMARK    1  A    between atoms: C_2  and  O_3
REMARK    2  A    between atoms: C_2  and  C_4
REMARK    3  A    between atoms: C_6  and  N_7
REMARK    4  A    between atoms: N_7  and  C_8
REMARK    5  A    between atoms: C_11  and  O_12
REMARK    6  A    between atoms: C_21  and  O_22
REMARK                            x       y       z     vdW  Elec       q    Type
REMARK                         _______ _______ _______ _____ _____    ______ ____
ROOT
ATOM      1  N   UNL     1       3.362   6.845  19.006  0.00  0.00    +0.000 N 
ATOM      2  H   UNL     1       4.284   7.226  18.831  0.00  0.00    +0.000 HD
ENDROOT
BRANCH   1   3
ATOM      3  C   UNL     1       3.226   5.457  18.718  0.00  0.00    +0.000 A 
ATOM      4  C   UNL     1       3.647   5.015  17.452  0.00  0.00    +0.000 A 
ATOM      5  C   UNL     1       3.300   3.770  16.978  0.00  0.00    +0.000 A 
ATOM      6  C   UNL     1       2.466   2.960  17.754  0.00  0.00    +0.000 A 
ATOM      7  C   UNL     1       2.083   3.335  19.050  0.00  0.00    +0.000 A 
ATOM      8  C   UNL     1       1.276   2.484  19.811  0.00  0.00    +0.000 A 
ATOM      9  C   UNL     1       1.345   2.535  21.190  0.00  0.00    +0.000 A 
ATOM     10  C   UNL     1       2.026   3.587  21.797  0.00  0.00    +0.000 A 
ATOM     11  C   UNL     1       2.535   4.636  21.019  0.00  0.00    +0.000 A 
ATOM     12  C   UNL     1       2.619   4.514  19.608  0.00  0.00    +0.000 A 
BRANCH   6  13
ATOM     13  O   UNL     1       2.082   1.751  17.250  0.00  0.00    +0.000 OA
ATOM     14  H   UNL     1       2.611   1.603  16.446  0.00  0.00    +0.000 HD
ENDBRANCH   6  13
ENDBRANCH   1   3
BRANCH   1  17
ATOM     15  C   UNL     1       0.684   9.068  20.433  0.00  0.00    +0.000 A 
ATOM     16  C   UNL     1       1.640   8.032  20.316  0.00  0.00    +0.000 A 
ATOM     17  C   UNL     1       2.300   7.792  19.104  0.00  0.00    +0.000 A 
ATOM     18  C   UNL     1       1.916   8.567  17.992  0.00  0.00    +0.000 A 
ATOM     19  C   UNL     1       0.989   9.609  18.098  0.00  0.00    +0.000 A 
ATOM     20  C   UNL     1       0.393   9.868  19.317  0.00  0.00    +0.000 A 
BRANCH  15  22
ATOM     21  O   UNL     1      -0.709   8.453  22.265  0.00  0.00    +0.000 OA
ATOM     22  C   UNL     1       0.040   9.276  21.762  0.00  0.00    +0.000 C 
BRANCH  22  23
ATOM     23  O   UNL     1       0.391  10.417  22.395  0.00  0.00    +0.000 OA
ATOM     24  H   UNL     1       0.109  11.220  21.903  0.00  0.00    +0.000 HD
ENDBRANCH  22  23
ENDBRANCH  15  22
BRANCH  20  25
ATOM     25  O   UNL     1      -0.482  10.917  19.433  0.00  0.00    +0.000 OA
ATOM     26  H   UNL     1      -1.019  10.788  20.238  0.00  0.00    +0.000 HD
ENDBRANCH  20  25
ENDBRANCH   1  17
TORSDOF 6
ENDMDL
MODEL 9
REMARK VINA RESULT:      -7.7      1.423      2.628
REMARK  Name = 
REMARK  6 active torsions:
REMARK  status: ('A' for Active; 'I' for Inactive)
REMARK    1  A    between atoms: C_2  and  O_3
REMARK    2  A    between atoms: C_2  and  C_4
REMARK    3  A    between atoms: C_6  and  N_7
REMARK    4  A    between atoms: N_7  and  C_8
REMARK    5  A    between atoms: C_11  and  O_12
REMARK    6  A    between atoms: C_21  and  O_22
REMARK                            x       y       z     vdW  Elec       q    Type
REMARK                         _______ _______ _______ _____ _____    ______ ____
ROOT
ATOM      1  N   UNL     1       2.595   6.720  20.463  0.00  0.00    +0.000 N 
ATOM      2  H   UNL     1       2.948   6.886  21.398  0.00  0.00    +0.000 HD
ENDROOT
BRANCH   1   3
ATOM      3  C   UNL     1       3.156   5.588  19.807  0.00  0.00    +0.000 A 
ATOM      4  C   UNL     1       4.508   5.665  19.427  0.00  0.00    +0.000 A 
ATOM      5  C   UNL     1       5.055   4.758  18.549  0.00  0.00    +0.000 A 
ATOM      6  C   UNL     1       4.231   3.780  17.986  0.00  0.00    +0.000 A 
ATOM      7  C   UNL     1       2.898   3.626  18.392  0.00  0.00    +0.000 A 
ATOM      8  C   UNL     1       2.111   2.614  17.833  0.00  0.00    +0.000 A 
ATOM      9  C   UNL     1       1.059   2.092  18.559  0.00  0.00    +0.000 A 
ATOM     10  C   UNL     1       0.647   2.740  19.721  0.00  0.00    +0.000 A 
ATOM     11  C   UNL     1       1.224   3.965  20.082  0.00  0.00    +0.000 A 
ATOM     12  C   UNL     1       2.408   4.422  19.448  0.00  0.00    +0.000 A 
BRANCH   6  13
ATOM     13  O   UNL     1       4.772   2.920  17.074  0.00  0.00    +0.000 OA
ATOM     14  H   UNL     1       4.051   2.334  16.781  0.00  0.00    +0.000 HD
ENDBRANCH   6  13
ENDBRANCH   1   3
BRANCH   1  17
ATOM     15  C   UNL     1       0.645   9.896  19.951  0.00  0.00    +0.000 A 
ATOM     16  C   UNL     1       1.171   8.734  20.561  0.00  0.00    +0.000 A 
ATOM     17  C   UNL     1       1.946   7.822  19.833  0.00  0.00    +0.000 A 
ATOM     18  C   UNL     1       2.111   8.068  18.455  0.00  0.00    +0.000 A 
ATOM     19  C   UNL     1       1.616   9.224  17.843  0.00  0.00    +0.000 A 
ATOM     20  C   UNL     1       0.905  10.140  18.593  0.00  0.00    +0.000 A 
BRANCH  15  22
ATOM     21  O   UNL     1      -1.223  11.291  20.437  0.00  0.00    +0.000 OA
ATOM     22  C   UNL     1      -0.152  10.830  20.798  0.00  0.00    +0.000 C 
BRANCH  22  23
ATOM     23  O   UNL     1       0.372  11.082  22.018  0.00  0.00    +0.000 OA
ATOM     24  H   UNL     1       0.510  12.043  22.174  0.00  0.00    +0.000 HD
ENDBRANCH  22  23
ENDBRANCH  15  22
BRANCH  20  25
ATOM     25  O   UNL     1       0.458  11.295  18.005  0.00  0.00    +0.000 OA
ATOM     26  H   UNL     1       1.001  11.472  17.213  0.00  0.00    +0.000 HD
ENDBRANCH  20  25
ENDBRANCH   1  17
TORSDOF 6
ENDMDL
