MODEL 1
REMARK VINA RESULT:      -6.8      0.000      0.000
REMARK  Name = 
REMARK  10 active torsions:
REMARK  status: ('A' for Active; 'I' for Inactive)
REMARK    1  A    between atoms: C_1  and  O_2
REMARK    2  A    between atoms: O_2  and  C_3
REMARK    3  A    between atoms: C_8  and  N_9
REMARK    4  A    between atoms: N_12  and  C_13
REMARK    5  A    between atoms: C_13  and  C_14
REMARK    6  A    between atoms: C_13  and  C_25
REMARK    7  A    between atoms: N_16  and  C_17
REMARK    8  A    between atoms: C_17  and  C_18
REMARK    9  A    between atoms: C_21  and  C_22
REMARK   10  A    between atoms: C_28  and  C_29
REMARK                            x       y       z     vdW  Elec       q    Type
REMARK                         _______ _______ _______ _____ _____    ______ ____
ROOT
ATOM      1  C   UNL     1      -0.512  11.968  19.881  0.00  0.00    +0.000 C 
ENDROOT
BRANCH   1   2
ATOM      2  C   UNL     1      -1.922  11.761  19.319  0.00  0.00    +0.000 A 
ATOM      3  C   UNL     1      -3.002  12.432  19.920  0.00  0.00    +0.000 A 
ATOM      4  C   UNL     1      -4.304  12.275  19.437  0.00  0.00    +0.000 A 
ATOM      5  C   UNL     1      -4.561  11.442  18.345  0.00  0.00    +0.000 A 
ATOM      6  C   UNL     1      -5.948  11.283  17.798  0.00  0.00    +0.000 C 
ATOM      7  C   UNL     1      -3.490  10.782  17.732  0.00  0.00    +0.000 A 
ATOM      8  C   UNL     1      -2.186  10.950  18.205  0.00  0.00    +0.000 A 
ENDBRANCH   1   2
BRANCH   1  12
ATOM      9  N   UNL     1       2.342  14.311  19.585  0.00  0.00    +0.000 N 
ATOM     10  C   UNL     1       2.303  13.201  20.544  0.00  0.00    +0.000 C 
ATOM     11  C   UNL     1       0.986  13.269  21.368  0.00  0.00    +0.000 C 
ATOM     12  N   UNL     1      -0.280  13.287  20.560  0.00  0.00    +0.000 NA
ATOM     13  C   UNL     1      -0.129  14.411  19.593  0.00  0.00    +0.000 C 
ATOM     14  C   UNL     1       1.154  14.414  18.725  0.00  0.00    +0.000 C 
BRANCH   9  20
ATOM     15  C   UNL     1       3.660  16.374  19.992  0.00  0.00    +0.000 A 
ATOM     16  C   UNL     1       4.792  17.153  19.685  0.00  0.00    +0.000 A 
ATOM     17  C   UNL     1       5.761  16.694  18.799  0.00  0.00    +0.000 A 
ATOM     18  C   UNL     1       5.602  15.454  18.204  0.00  0.00    +0.000 A 
ATOM     19  C   UNL     1       4.473  14.681  18.493  0.00  0.00    +0.000 A 
ATOM     20  C   UNL     1       3.462  15.109  19.381  0.00  0.00    +0.000 A 
BRANCH  15  22
ATOM     21  C   UNL     1       1.809  17.843  20.188  0.00  0.00    +0.000 C 
ATOM     22  O   UNL     1       2.663  16.879  20.800  0.00  0.00    +0.000 OA
ENDBRANCH  15  22
ENDBRANCH   9  20
ENDBRANCH   1  12
BRANCH   1  23
ATOM     23  C   UNL     1      -0.152  10.801  20.855  0.00  0.00    +0.000 C 
ATOM     24  O   UNL     1      -0.759  10.644  21.919  0.00  0.00    +0.000 OA
ATOM     25  N   UNL     1       0.816   9.924  20.414  0.00  0.00    +0.000 N 
ATOM     26  H   UNL     1       1.281  10.128  19.540  0.00  0.00    +0.000 HD
BRANCH  25  27
ATOM     27  C   UNL     1       1.184   8.734  21.143  0.00  0.00    +0.000 C 
BRANCH  27  28
ATOM     28  C   UNL     1       1.696   7.634  20.249  0.00  0.00    +0.000 A 
ATOM     29  C   UNL     1       1.667   6.302  20.683  0.00  0.00    +0.000 A 
ATOM     30  C   UNL     1       2.101   5.269  19.848  0.00  0.00    +0.000 A 
ATOM     31  C   UNL     1       2.582   5.549  18.565  0.00  0.00    +0.000 A 
ATOM     32  C   UNL     1       3.032   4.449  17.651  0.00  0.00    +0.000 C 
ATOM     33  C   UNL     1       2.629   6.880  18.136  0.00  0.00    +0.000 A 
ATOM     34  C   UNL     1       2.195   7.914  18.971  0.00  0.00    +0.000 A 
ENDBRANCH  27  28
ENDBRANCH  25  27
ENDBRANCH   1  23
TORSDOF 7
ENDMDL
MODEL 2
REMARK VINA RESULT:      -6.8      1.226      2.085
REMARK  Name = 
REMARK  10 active torsions:
REMARK  status: ('A' for Active; 'I' for Inactive)
REMARK    1  A    between atoms: C_1  and  O_2
REMARK    2  A    between atoms: O_2  and  C_3
REMARK    3  A    between atoms: C_8  and  N_9
REMARK    4  A    between atoms: N_12  and  C_13
REMARK    5  A    between atoms: C_13  and  C_14
REMARK    6  A    between atoms: C_13  and  C_25
REMARK    7  A    between atoms: N_16  and  C_17
REMARK    8  A    between atoms: C_17  and  C_18
REMARK    9  A    between atoms: C_21  and  C_22
REMARK   10  A    between atoms: C_28  and  C_29
REMARK                            x       y       z     vdW  Elec       q    Type
REMARK                         _______ _______ _______ _____ _____    ______ ____
ROOT
ATOM      1  C   UNL     1      -0.073  11.453  19.586  0.00  0.00    +0.000 C 
ENDROOT
BRANCH   1   2
ATOM      2  C   UNL     1      -1.134  11.130  18.530  0.00  0.00    +0.000 A 
ATOM      3  C   UNL     1      -0.911  10.062  17.643  0.00  0.00    +0.000 A 
ATOM      4  C   UNL     1      -1.854   9.729  16.666  0.00  0.00    +0.000 A 
ATOM      5  C   UNL     1      -3.042  10.457  16.550  0.00  0.00    +0.000 A 
ATOM      6  C   UNL     1      -4.076  10.097  15.525  0.00  0.00    +0.000 C 
ATOM      7  C   UNL     1      -3.278  11.512  17.439  0.00  0.00    +0.000 A 
ATOM      8  C   UNL     1      -2.342  11.835  18.424  0.00  0.00    +0.000 A 
ENDBRANCH   1   2
BRANCH   1  12
ATOM      9  N   UNL     1       2.040  14.474  19.944  0.00  0.00    +0.000 N 
ATOM     10  C   UNL     1       2.162  13.296  20.809  0.00  0.00    +0.000 C 
ATOM     11  C   UNL     1       0.768  12.929  21.393  0.00  0.00    +0.000 C 
ATOM     12  N   UNL     1      -0.316  12.705  20.379  0.00  0.00    +0.000 NA
ATOM     13  C   UNL     1      -0.335  13.928  19.526  0.00  0.00    +0.000 C 
ATOM     14  C   UNL     1       1.014  14.358  18.898  0.00  0.00    +0.000 C 
BRANCH   9  20
ATOM     15  C   UNL     1       4.051  15.696  19.152  0.00  0.00    +0.000 A 
ATOM     16  C   UNL     1       4.928  16.786  19.303  0.00  0.00    +0.000 A 
ATOM     17  C   UNL     1       4.693  17.768  20.259  0.00  0.00    +0.000 A 
ATOM     18  C   UNL     1       3.582  17.664  21.080  0.00  0.00    +0.000 A 
ATOM     19  C   UNL     1       2.714  16.576  20.943  0.00  0.00    +0.000 A 
ATOM     20  C   UNL     1       2.916  15.553  19.991  0.00  0.00    +0.000 A 
BRANCH  15  22
ATOM     21  C   UNL     1       5.697  14.632  17.817  0.00  0.00    +0.000 C 
ATOM     22  O   UNL     1       4.344  14.682  18.263  0.00  0.00    +0.000 OA
ENDBRANCH  15  22
ENDBRANCH   9  20
ENDBRANCH   1  12
BRANCH   1  23
ATOM     23  C   UNL     1       0.099  10.240  20.555  0.00  0.00    +0.000 C 
ATOM     24  O   UNL     1      -0.725  10.010  21.446  0.00  0.00    +0.000 OA
ATOM     25  N   UNL     1       1.169   9.409  20.299  0.00  0.00    +0.000 N 
ATOM     26  H   UNL     1       1.811   9.672  19.563  0.00  0.00    +0.000 HD
BRANCH  25  27
ATOM     27  C   UNL     1       1.404   8.187  21.030  0.00  0.00    +0.000 C 
BRANCH  27  28
ATOM     28  C   UNL     1       1.880   7.060  20.150  0.00  0.00    +0.000 A 
ATOM     29  C   UNL     1       1.809   5.735  20.601  0.00  0.00    +0.000 A 
ATOM     30  C   UNL     1       2.210   4.678  19.780  0.00  0.00    +0.000 A 
ATOM     31  C   UNL     1       2.698   4.926  18.493  0.00  0.00    +0.000 A 
ATOM     32  C   UNL     1       3.112   3.801  17.592  0.00  0.00    +0.000 C 
ATOM     33  C   UNL     1       2.787   6.250  18.047  0.00  0.00    +0.000 A 
ATOM     34  C   UNL     1       2.386   7.308  18.868  0.00  0.00    +0.000 A 
ENDBRANCH  27  28
ENDBRANCH  25  27
ENDBRANCH   1  23
TORSDOF 7
ENDMDL
MODEL 3
REMARK VINA RESULT:      -6.7      2.344      6.470
REMARK  Name = 
REMARK  10 active torsions:
REMARK  status: ('A' for Active; 'I' for Inactive)
REMARK    1  A    between atoms: C_1  and  O_2
REMARK    2  A    between atoms: O_2  and  C_3
REMARK    3  A    between atoms: C_8  and  N_9
REMARK    4  A    between atoms: N_12  and  C_13
REMARK    5  A    between atoms: C_13  and  C_14
REMARK    6  A    between atoms: C_13  and  C_25
REMARK    7  A    between atoms: N_16  and  C_17
REMARK    8  A    between atoms: C_17  and  C_18
REMARK    9  A    between atoms: C_21  and  C_22
REMARK   10  A    between atoms: C_28  and  C_29
REMARK                            x       y       z     vdW  Elec       q    Type
REMARK                         _______ _______ _______ _____ _____    ______ ____
ROOT
ATOM      1  C   UNL     1       1.222  11.616  19.152  0.00  0.00    +0.000 C 
ENDROOT
BRANCH   1   2
ATOM      2  C   UNL     1       2.071  12.891  19.184  0.00  0.00    +0.000 A 
ATOM      3  C   UNL     1       2.598  13.329  20.412  0.00  0.00    +0.000 A 
ATOM      4  C   UNL     1       3.381  14.485  20.486  0.00  0.00    +0.000 A 
ATOM      5  C   UNL     1       3.655  15.231  19.336  0.00  0.00    +0.000 A 
ATOM      6  C   UNL     1       4.516  16.458  19.394  0.00  0.00    +0.000 C 
ATOM      7  C   UNL     1       3.148  14.793  18.109  0.00  0.00    +0.000 A 
ATOM      8  C   UNL     1       2.377  13.630  18.031  0.00  0.00    +0.000 A 
ENDBRANCH   1   2
BRANCH   1  12
ATOM      9  N   UNL     1      -1.883  12.196  21.087  0.00  0.00    +0.000 N 
ATOM     10  C   UNL     1      -1.365  10.860  20.771  0.00  0.00    +0.000 C 
ATOM     11  C   UNL     1      -1.100  10.750  19.243  0.00  0.00    +0.000 C 
ATOM     12  N   UNL     1      -0.188  11.796  18.670  0.00  0.00    +0.000 NA
ATOM     13  C   UNL     1      -0.769  13.108  19.076  0.00  0.00    +0.000 C 
ATOM     14  C   UNL     1      -1.056  13.304  20.585  0.00  0.00    +0.000 C 
BRANCH   9  20
ATOM     15  C   UNL     1      -4.271  12.762  21.463  0.00  0.00    +0.000 A 
ATOM     16  C   UNL     1      -5.308  13.035  22.374  0.00  0.00    +0.000 A 
ATOM     17  C   UNL     1      -5.100  12.948  23.746  0.00  0.00    +0.000 A 
ATOM     18  C   UNL     1      -3.848  12.595  24.221  0.00  0.00    +0.000 A 
ATOM     19  C   UNL     1      -2.809  12.336  23.322  0.00  0.00    +0.000 A 
ATOM     20  C   UNL     1      -2.972  12.418  21.921  0.00  0.00    +0.000 A 
BRANCH  15  22
ATOM     21  C   UNL     1      -5.708  13.535  19.742  0.00  0.00    +0.000 C 
ATOM     22  O   UNL     1      -4.465  12.941  20.109  0.00  0.00    +0.000 OA
ENDBRANCH  15  22
ENDBRANCH   9  20
ENDBRANCH   1  12
BRANCH   1  23
ATOM     23  C   UNL     1       1.937  10.523  18.295  0.00  0.00    +0.000 C 
ATOM     24  O   UNL     1       2.599  10.822  17.297  0.00  0.00    +0.000 OA
ATOM     25  N   UNL     1       1.849   9.231  18.769  0.00  0.00    +0.000 N 
ATOM     26  H   UNL     1       1.273   9.060  19.583  0.00  0.00    +0.000 HD
BRANCH  25  27
ATOM     27  C   UNL     1       2.544   8.124  18.158  0.00  0.00    +0.000 C 
BRANCH  27  28
ATOM     28  C   UNL     1       2.213   6.800  18.796  0.00  0.00    +0.000 A 
ATOM     29  C   UNL     1       2.151   5.637  18.016  0.00  0.00    +0.000 A 
ATOM     30  C   UNL     1       1.884   4.396  18.602  0.00  0.00    +0.000 A 
ATOM     31  C   UNL     1       1.665   4.296  19.980  0.00  0.00    +0.000 A 
ATOM     32  C   UNL     1       1.398   2.970  20.626  0.00  0.00    +0.000 C 
ATOM     33  C   UNL     1       1.707   5.459  20.758  0.00  0.00    +0.000 A 
ATOM     34  C   UNL     1       1.974   6.699  20.172  0.00  0.00    +0.000 A 
ENDBRANCH  27  28
ENDBRANCH  25  27
ENDBRANCH   1  23
TORSDOF 7
ENDMDL
MODEL 4
REMARK VINA RESULT:      -6.6      3.343      4.595
REMARK  Name = 
REMARK  10 active torsions:
REMARK  status: ('A' for Active; 'I' for Inactive)
REMARK    1  A    between atoms: C_1  and  O_2
REMARK    2  A    between atoms: O_2  and  C_3
REMARK    3  A    between atoms: C_8  and  N_9
REMARK    4  A    between atoms: N_12  and  C_13
REMARK    5  A    between atoms: C_13  and  C_14
REMARK    6  A    between atoms: C_13  and  C_25
REMARK    7  A    between atoms: N_16  and  C_17
REMARK    8  A    between atoms: C_17  and  C_18
REMARK    9  A    between atoms: C_21  and  C_22
REMARK   10  A    between atoms: C_28  and  C_29
REMARK                            x       y       z     vdW  Elec       q    Type
REMARK                         _______ _______ _______ _____ _____    ______ ____
ROOT
ATOM      1  C   UNL     1      -1.085  11.822  20.514  0.00  0.00    +0.000 C 
ENDROOT
BRANCH   1   2
ATOM      2  C   UNL     1      -1.597  11.291  19.171  0.00  0.00    +0.000 A 
ATOM      3  C   UNL     1      -2.801  11.799  18.651  0.00  0.00    +0.000 A 
ATOM      4  C   UNL     1      -3.303  11.346  17.428  0.00  0.00    +0.000 A 
ATOM      5  C   UNL     1      -2.617  10.372  16.696  0.00  0.00    +0.000 A 
ATOM      6  C   UNL     1      -3.128   9.895  15.369  0.00  0.00    +0.000 C 
ATOM      7  C   UNL     1      -1.411   9.874  17.199  0.00  0.00    +0.000 A 
ATOM      8  C   UNL     1      -0.901  10.336  18.415  0.00  0.00    +0.000 A 
ENDBRANCH   1   2
BRANCH   1  12
ATOM      9  N   UNL     1      -2.171  14.643  22.655  0.00  0.00    +0.000 N 
ATOM     10  C   UNL     1      -1.033  13.775  22.978  0.00  0.00    +0.000 C 
ATOM     11  C   UNL     1      -1.479  12.286  22.918  0.00  0.00    +0.000 C 
ATOM     12  N   UNL     1      -2.099  11.850  21.621  0.00  0.00    +0.000 NA
ATOM     13  C   UNL     1      -3.208  12.811  21.358  0.00  0.00    +0.000 C 
ATOM     14  C   UNL     1      -2.847  14.316  21.391  0.00  0.00    +0.000 C 
BRANCH   9  20
ATOM     15  C   UNL     1      -1.884  17.046  23.210  0.00  0.00    +0.000 A 
ATOM     16  C   UNL     1      -2.226  18.134  24.034  0.00  0.00    +0.000 A 
ATOM     17  C   UNL     1      -3.194  18.008  25.024  0.00  0.00    +0.000 A 
ATOM     18  C   UNL     1      -3.825  16.789  25.206  0.00  0.00    +0.000 A 
ATOM     19  C   UNL     1      -3.480  15.700  24.399  0.00  0.00    +0.000 A 
ATOM     20  C   UNL     1      -2.499  15.779  23.386  0.00  0.00    +0.000 A 
BRANCH  15  22
ATOM     21  C   UNL     1      -0.882  18.335  21.490  0.00  0.00    +0.000 C 
ATOM     22  O   UNL     1      -0.858  17.158  22.294  0.00  0.00    +0.000 OA
ENDBRANCH  15  22
ENDBRANCH   9  20
ENDBRANCH   1  12
BRANCH   1  23
ATOM     23  C   UNL     1       0.167  11.005  20.965  0.00  0.00    +0.000 C 
ATOM     24  O   UNL     1       1.250  11.559  21.182  0.00  0.00    +0.000 OA
ATOM     25  N   UNL     1      -0.036   9.659  21.182  0.00  0.00    +0.000 N 
ATOM     26  H   UNL     1      -0.946   9.274  20.965  0.00  0.00    +0.000 HD
BRANCH  25  27
ATOM     27  C   UNL     1       0.987   8.787  21.707  0.00  0.00    +0.000 C 
BRANCH  27  28
ATOM     28  C   UNL     1       1.530   7.834  20.674  0.00  0.00    +0.000 A 
ATOM     29  C   UNL     1       1.587   6.459  20.944  0.00  0.00    +0.000 A 
ATOM     30  C   UNL     1       2.051   5.560  19.980  0.00  0.00    +0.000 A 
ATOM     31  C   UNL     1       2.475   6.018  18.729  0.00  0.00    +0.000 A 
ATOM     32  C   UNL     1       2.955   5.064  17.677  0.00  0.00    +0.000 C 
ATOM     33  C   UNL     1       2.437   7.392  18.463  0.00  0.00    +0.000 A 
ATOM     34  C   UNL     1       1.973   8.292  19.427  0.00  0.00    +0.000 A 
ENDBRANCH  27  28
ENDBRANCH  25  27
ENDBRANCH   1  23
TORSDOF 7
ENDMDL
MODEL 5
REMARK VINA RESULT:      -6.6      1.017      1.490
REMARK  Name = 
REMARK  10 active torsions:
REMARK  status: ('A' for Active; 'I' for Inactive)
REMARK    1  A    between atoms: C_1  and  O_2
REMARK    2  A    between atoms: O_2  and  C_3
REMARK    3  A    between atoms: C_8  and  N_9
REMARK    4  A    between atoms: N_12  and  C_13
REMARK    5  A    between atoms: C_13  and  C_14
REMARK    6  A    between atoms: C_13  and  C_25
REMARK    7  A    between atoms: N_16  and  C_17
REMARK    8  A    between atoms: C_17  and  C_18
REMARK    9  A    between atoms: C_21  and  C_22
REMARK   10  A    between atoms: C_28  and  C_29
REMARK                            x       y       z     vdW  Elec       q    Type
REMARK                         _______ _______ _______ _____ _____    ______ ____
ROOT
ATOM      1  C   UNL     1      -0.086  11.456  19.505  0.00  0.00    +0.000 C 
ENDROOT
BRANCH   1   2
ATOM      2  C   UNL     1      -1.169  11.129  18.471  0.00  0.00    +0.000 A 
ATOM      3  C   UNL     1      -0.934  10.104  17.538  0.00  0.00    +0.000 A 
ATOM      4  C   UNL     1      -1.895   9.770  16.580  0.00  0.00    +0.000 A 
ATOM      5  C   UNL     1      -3.113  10.453  16.529  0.00  0.00    +0.000 A 
ATOM      6  C   UNL     1      -4.166  10.089  15.525  0.00  0.00    +0.000 C 
ATOM      7  C   UNL     1      -3.361  11.464  17.464  0.00  0.00    +0.000 A 
ATOM      8  C   UNL     1      -2.407  11.789  18.431  0.00  0.00    +0.000 A 
ENDBRANCH   1   2
BRANCH   1  12
ATOM      9  N   UNL     1       2.168  14.366  19.923  0.00  0.00    +0.000 N 
ATOM     10  C   UNL     1       2.189  13.194  20.805  0.00  0.00    +0.000 C 
ATOM     11  C   UNL     1       0.754  12.909  21.331  0.00  0.00    +0.000 C 
ATOM     12  N   UNL     1      -0.297  12.729  20.273  0.00  0.00    +0.000 NA
ATOM     13  C   UNL     1      -0.213  13.941  19.408  0.00  0.00    +0.000 C 
ATOM     14  C   UNL     1       1.182  14.291  18.835  0.00  0.00    +0.000 C 
BRANCH   9  20
ATOM     15  C   UNL     1       2.858  16.641  20.637  0.00  0.00    +0.000 A 
ATOM     16  C   UNL     1       3.827  17.662  20.614  0.00  0.00    +0.000 A 
ATOM     17  C   UNL     1       5.054  17.472  19.989  0.00  0.00    +0.000 A 
ATOM     18  C   UNL     1       5.322  16.261  19.374  0.00  0.00    +0.000 A 
ATOM     19  C   UNL     1       4.359  15.247  19.381  0.00  0.00    +0.000 A 
ATOM     20  C   UNL     1       3.097  15.397  19.997  0.00  0.00    +0.000 A 
BRANCH  15  22
ATOM     21  C   UNL     1       1.079  18.178  20.953  0.00  0.00    +0.000 C 
ATOM     22  O   UNL     1       1.610  16.874  21.179  0.00  0.00    +0.000 OA
ENDBRANCH  15  22
ENDBRANCH   9  20
ENDBRANCH   1  12
BRANCH   1  23
ATOM     23  C   UNL     1       0.078  10.262  20.498  0.00  0.00    +0.000 C 
ATOM     24  O   UNL     1      -0.776  10.020  21.356  0.00  0.00    +0.000 OA
ATOM     25  N   UNL     1       1.182   9.459  20.299  0.00  0.00    +0.000 N 
ATOM     26  H   UNL     1       1.847   9.732  19.588  0.00  0.00    +0.000 HD
BRANCH  25  27
ATOM     27  C   UNL     1       1.420   8.255  21.057  0.00  0.00    +0.000 C 
BRANCH  27  28
ATOM     28  C   UNL     1       1.814   7.086  20.191  0.00  0.00    +0.000 A 
ATOM     29  C   UNL     1       1.598   5.775  20.635  0.00  0.00    +0.000 A 
ATOM     30  C   UNL     1       1.922   4.683  19.826  0.00  0.00    +0.000 A 
ATOM     31  C   UNL     1       2.478   4.881  18.558  0.00  0.00    +0.000 A 
ATOM     32  C   UNL     1       2.811   3.721  17.669  0.00  0.00    +0.000 C 
ATOM     33  C   UNL     1       2.711   6.190  18.119  0.00  0.00    +0.000 A 
ATOM     34  C   UNL     1       2.388   7.282  18.929  0.00  0.00    +0.000 A 
ENDBRANCH  27  28
ENDBRANCH  25  27
ENDBRANCH   1  23
TORSDOF 7
ENDMDL
MODEL 6
REMARK VINA RESULT:      -6.6      3.619      4.979
REMARK  Name = 
REMARK  10 active torsions:
REMARK  status: ('A' for Active; 'I' for Inactive)
REMARK    1  A    between atoms: C_1  and  O_2
REMARK    2  A    between atoms: O_2  and  C_3
REMARK    3  A    between atoms: C_8  and  N_9
REMARK    4  A    between atoms: N_12  and  C_13
REMARK    5  A    between atoms: C_13  and  C_14
REMARK    6  A    between atoms: C_13  and  C_25
REMARK    7  A    between atoms: N_16  and  C_17
REMARK    8  A    between atoms: C_17  and  C_18
REMARK    9  A    between atoms: C_21  and  C_22
REMARK   10  A    between atoms: C_28  and  C_29
REMARK                            x       y       z     vdW  Elec       q    Type
REMARK                         _______ _______ _______ _____ _____    ______ ____
ROOT
ATOM      1  C   UNL     1      -0.801  11.890  20.490  0.00  0.00    +0.000 C 
ENDROOT
BRANCH   1   2
ATOM      2  C   UNL     1      -1.324  11.426  19.126  0.00  0.00    +0.000 A 
ATOM      3  C   UNL     1      -1.764  10.099  18.980  0.00  0.00    +0.000 A 
ATOM      4  C   UNL     1      -2.252   9.635  17.755  0.00  0.00    +0.000 A 
ATOM      5  C   UNL     1      -2.309  10.484  16.646  0.00  0.00    +0.000 A 
ATOM      6  C   UNL     1      -2.854  10.009  15.332  0.00  0.00    +0.000 C 
ATOM      7  C   UNL     1      -1.887  11.810  16.788  0.00  0.00    +0.000 A 
ATOM      8  C   UNL     1      -1.413  12.279  18.015  0.00  0.00    +0.000 A 
ENDBRANCH   1   2
BRANCH   1  12
ATOM      9  N   UNL     1      -2.126  14.660  22.562  0.00  0.00    +0.000 N 
ATOM     10  C   UNL     1      -0.911  13.909  22.898  0.00  0.00    +0.000 C 
ATOM     11  C   UNL     1      -1.218  12.385  22.884  0.00  0.00    +0.000 C 
ATOM     12  N   UNL     1      -1.804  11.857  21.606  0.00  0.00    +0.000 NA
ATOM     13  C   UNL     1      -3.000  12.703  21.328  0.00  0.00    +0.000 C 
ATOM     14  C   UNL     1      -2.779  14.236  21.315  0.00  0.00    +0.000 C 
BRANCH   9  20
ATOM     15  C   UNL     1      -3.588  15.769  24.234  0.00  0.00    +0.000 A 
ATOM     16  C   UNL     1      -4.007  16.959  24.857  0.00  0.00    +0.000 A 
ATOM     17  C   UNL     1      -3.401  18.175  24.563  0.00  0.00    +0.000 A 
ATOM     18  C   UNL     1      -2.374  18.214  23.634  0.00  0.00    +0.000 A 
ATOM     19  C   UNL     1      -1.962  17.037  23.002  0.00  0.00    +0.000 A 
ATOM     20  C   UNL     1      -2.552  15.781  23.265  0.00  0.00    +0.000 A 
BRANCH  15  22
ATOM     21  C   UNL     1      -5.454  14.401  23.713  0.00  0.00    +0.000 C 
ATOM     22  O   UNL     1      -4.258  14.585  24.466  0.00  0.00    +0.000 OA
ENDBRANCH  15  22
ENDBRANCH   9  20
ENDBRANCH   1  12
BRANCH   1  23
ATOM     23  C   UNL     1       0.459  11.057  20.887  0.00  0.00    +0.000 C 
ATOM     24  O   UNL     1       1.549  11.600  21.088  0.00  0.00    +0.000 OA
ATOM     25  N   UNL     1       0.254   9.706  21.077  0.00  0.00    +0.000 N 
ATOM     26  H   UNL     1      -0.663   9.331  20.876  0.00  0.00    +0.000 HD
BRANCH  25  27
ATOM     27  C   UNL     1       1.287   8.818  21.553  0.00  0.00    +0.000 C 
BRANCH  27  28
ATOM     28  C   UNL     1       1.674   7.774  20.537  0.00  0.00    +0.000 A 
ATOM     29  C   UNL     1       1.679   6.417  20.887  0.00  0.00    +0.000 A 
ATOM     30  C   UNL     1       1.997   5.436  19.944  0.00  0.00    +0.000 A 
ATOM     31  C   UNL     1       2.327   5.794  18.633  0.00  0.00    +0.000 A 
ATOM     32  C   UNL     1       2.650   4.752  17.605  0.00  0.00    +0.000 C 
ATOM     33  C   UNL     1       2.340   7.150  18.286  0.00  0.00    +0.000 A 
ATOM     34  C   UNL     1       2.022   8.131  19.228  0.00  0.00    +0.000 A 
ENDBRANCH  27  28
ENDBRANCH  25  27
ENDBRANCH   1  23
TORSDOF 7
ENDMDL
MODEL 7
REMARK VINA RESULT:      -6.6      2.952      6.149
REMARK  Name = 
REMARK  10 active torsions:
REMARK  status: ('A' for Active; 'I' for Inactive)
REMARK    1  A    between atoms: C_1  and  O_2
REMARK    2  A    between atoms: O_2  and  C_3
REMARK    3  A    between atoms: C_8  and  N_9
REMARK    4  A    between atoms: N_12  and  C_13
REMARK    5  A    between atoms: C_13  and  C_14
REMARK    6  A    between atoms: C_13  and  C_25
REMARK    7  A    between atoms: N_16  and  C_17
REMARK    8  A    between atoms: C_17  and  C_18
REMARK    9  A    between atoms: C_21  and  C_22
REMARK   10  A    between atoms: C_28  and  C_29
REMARK                            x       y       z     vdW  Elec       q    Type
REMARK                         _______ _______ _______ _____ _____    ______ ____
ROOT
ATOM      1  C   UNL     1       0.523  11.940  21.242  0.00  0.00    +0.000 C 
ENDROOT
BRANCH   1   2
ATOM      2  C   UNL     1       1.505  12.654  20.308  0.00  0.00    +0.000 A 
ATOM      3  C   UNL     1       2.312  13.683  20.824  0.00  0.00    +0.000 A 
ATOM      4  C   UNL     1       3.225  14.359  20.009  0.00  0.00    +0.000 A 
ATOM      5  C   UNL     1       3.352  14.025  18.658  0.00  0.00    +0.000 A 
ATOM      6  C   UNL     1       4.345  14.721  17.775  0.00  0.00    +0.000 C 
ATOM      7  C   UNL     1       2.563  12.991  18.140  0.00  0.00    +0.000 A 
ATOM      8  C   UNL     1       1.661  12.306  18.958  0.00  0.00    +0.000 A 
ENDBRANCH   1   2
BRANCH   1  12
ATOM      9  N   UNL     1      -2.259  13.943  22.646  0.00  0.00    +0.000 N 
ATOM     10  C   UNL     1      -1.891  12.611  23.142  0.00  0.00    +0.000 C 
ATOM     11  C   UNL     1      -1.830  11.610  21.953  0.00  0.00    +0.000 C 
ATOM     12  N   UNL     1      -0.918  12.002  20.826  0.00  0.00    +0.000 NA
ATOM     13  C   UNL     1      -1.339  13.375  20.422  0.00  0.00    +0.000 C 
ATOM     14  C   UNL     1      -1.418  14.437  21.547  0.00  0.00    +0.000 C 
BRANCH   9  20
ATOM     15  C   UNL     1      -4.556  14.870  22.810  0.00  0.00    +0.000 A 
ATOM     16  C   UNL     1      -5.448  15.758  23.440  0.00  0.00    +0.000 A 
ATOM     17  C   UNL     1      -5.049  16.521  24.532  0.00  0.00    +0.000 A 
ATOM     18  C   UNL     1      -3.750  16.409  25.000  0.00  0.00    +0.000 A 
ATOM     19  C   UNL     1      -2.855  15.539  24.369  0.00  0.00    +0.000 A 
ATOM     20  C   UNL     1      -3.213  14.749  23.255  0.00  0.00    +0.000 A 
BRANCH  15  22
ATOM     21  C   UNL     1      -5.480  12.889  21.891  0.00  0.00    +0.000 C 
ATOM     22  O   UNL     1      -4.936  14.188  21.672  0.00  0.00    +0.000 OA
ENDBRANCH  15  22
ENDBRANCH   9  20
ENDBRANCH   1  12
BRANCH   1  23
ATOM     23  C   UNL     1       0.954  10.450  21.428  0.00  0.00    +0.000 C 
ATOM     24  O   UNL     1       1.477  10.060  22.477  0.00  0.00    +0.000 OA
ATOM     25  N   UNL     1       0.640   9.597  20.391  0.00  0.00    +0.000 N 
ATOM     26  H   UNL     1       0.229   9.993  19.556  0.00  0.00    +0.000 HD
BRANCH  25  27
ATOM     27  C   UNL     1       0.870   8.173  20.452  0.00  0.00    +0.000 C 
BRANCH  27  28
ATOM     28  C   UNL     1       1.925   7.708  19.483  0.00  0.00    +0.000 A 
ATOM     29  C   UNL     1       2.578   6.485  19.685  0.00  0.00    +0.000 A 
ATOM     30  C   UNL     1       3.530   6.023  18.772  0.00  0.00    +0.000 A 
ATOM     31  C   UNL     1       3.854   6.780  17.642  0.00  0.00    +0.000 A 
ATOM     32  C   UNL     1       4.858   6.288  16.643  0.00  0.00    +0.000 C 
ATOM     33  C   UNL     1       3.217   8.011  17.447  0.00  0.00    +0.000 A 
ATOM     34  C   UNL     1       2.265   8.474  18.360  0.00  0.00    +0.000 A 
ENDBRANCH  27  28
ENDBRANCH  25  27
ENDBRANCH   1  23
TORSDOF 7
ENDMDL
MODEL 8
REMARK VINA RESULT:      -6.5      3.067      6.041
REMARK  Name = 
REMARK  10 active torsions:
REMARK  status: ('A' for Active; 'I' for Inactive)
REMARK    1  A    between atoms: C_1  and  O_2
REMARK    2  A    between atoms: O_2  and  C_3
REMARK    3  A    between atoms: C_8  and  N_9
REMARK    4  A    between atoms: N_12  and  C_13
REMARK    5  A    between atoms: C_13  and  C_14
REMARK    6  A    between atoms: C_13  and  C_25
REMARK    7  A    between atoms: N_16  and  C_17
REMARK    8  A    between atoms: C_17  and  C_18
REMARK    9  A    between atoms: C_21  and  C_22
REMARK   10  A    between atoms: C_28  and  C_29
REMARK                            x       y       z     vdW  Elec       q    Type
REMARK                         _______ _______ _______ _____ _____    ______ ____
ROOT
ATOM      1  C   UNL     1       0.520  11.857  21.261  0.00  0.00    +0.000 C 
ENDROOT
BRANCH   1   2
ATOM      2  C   UNL     1       1.496  12.574  20.322  0.00  0.00    +0.000 A 
ATOM      3  C   UNL     1       2.302  13.606  20.834  0.00  0.00    +0.000 A 
ATOM      4  C   UNL     1       3.209  14.284  20.014  0.00  0.00    +0.000 A 
ATOM      5  C   UNL     1       3.331  13.949  18.663  0.00  0.00    +0.000 A 
ATOM      6  C   UNL     1       4.318  14.648  17.776  0.00  0.00    +0.000 C 
ATOM      7  C   UNL     1       2.544  12.913  18.149  0.00  0.00    +0.000 A 
ATOM      8  C   UNL     1       1.647  12.225  18.971  0.00  0.00    +0.000 A 
ENDBRANCH   1   2
BRANCH   1  12
ATOM      9  N   UNL     1      -2.260  13.905  22.602  0.00  0.00    +0.000 N 
ATOM     10  C   UNL     1      -1.891  12.592  23.141  0.00  0.00    +0.000 C 
ATOM     11  C   UNL     1      -1.832  11.551  21.986  0.00  0.00    +0.000 C 
ATOM     12  N   UNL     1      -0.922  11.905  20.845  0.00  0.00    +0.000 NA
ATOM     13  C   UNL     1      -1.343  13.263  20.396  0.00  0.00    +0.000 C 
ATOM     14  C   UNL     1      -1.420  14.362  21.484  0.00  0.00    +0.000 C 
BRANCH   9  20
ATOM     15  C   UNL     1      -2.930  15.692  24.189  0.00  0.00    +0.000 A 
ATOM     16  C   UNL     1      -3.962  16.448  24.777  0.00  0.00    +0.000 A 
ATOM     17  C   UNL     1      -5.283  16.296  24.371  0.00  0.00    +0.000 A 
ATOM     18  C   UNL     1      -5.587  15.379  23.378  0.00  0.00    +0.000 A 
ATOM     19  C   UNL     1      -4.568  14.616  22.800  0.00  0.00    +0.000 A 
ATOM     20  C   UNL     1      -3.214  14.732  23.184  0.00  0.00    +0.000 A 
BRANCH  15  22
ATOM     21  C   UNL     1      -1.483  15.570  26.064  0.00  0.00    +0.000 C 
ATOM     22  O   UNL     1      -1.638  15.787  24.663  0.00  0.00    +0.000 OA
ENDBRANCH  15  22
ENDBRANCH   9  20
ENDBRANCH   1  12
BRANCH   1  23
ATOM     23  C   UNL     1       0.964  10.372  21.455  0.00  0.00    +0.000 C 
ATOM     24  O   UNL     1       1.441   9.980  22.525  0.00  0.00    +0.000 OA
ATOM     25  N   UNL     1       0.712   9.523  20.398  0.00  0.00    +0.000 N 
ATOM     26  H   UNL     1       0.336   9.921  19.547  0.00  0.00    +0.000 HD
BRANCH  25  27
ATOM     27  C   UNL     1       0.959   8.103  20.459  0.00  0.00    +0.000 C 
BRANCH  27  28
ATOM     28  C   UNL     1       1.973   7.641  19.444  0.00  0.00    +0.000 A 
ATOM     29  C   UNL     1       2.286   8.447  18.341  0.00  0.00    +0.000 A 
ATOM     30  C   UNL     1       3.253   8.048  17.415  0.00  0.00    +0.000 A 
ATOM     31  C   UNL     1       3.922   6.829  17.569  0.00  0.00    +0.000 A 
ATOM     32  C   UNL     1       4.977   6.397  16.596  0.00  0.00    +0.000 C 
ATOM     33  C   UNL     1       3.599   6.014  18.660  0.00  0.00    +0.000 A 
ATOM     34  C   UNL     1       2.631   6.412  19.587  0.00  0.00    +0.000 A 
ENDBRANCH  27  28
ENDBRANCH  25  27
ENDBRANCH   1  23
TORSDOF 7
ENDMDL
MODEL 9
REMARK VINA RESULT:      -6.5      0.987      1.156
REMARK  Name = 
REMARK  10 active torsions:
REMARK  status: ('A' for Active; 'I' for Inactive)
REMARK    1  A    between atoms: C_1  and  O_2
REMARK    2  A    between atoms: O_2  and  C_3
REMARK    3  A    between atoms: C_8  and  N_9
REMARK    4  A    between atoms: N_12  and  C_13
REMARK    5  A    between atoms: C_13  and  C_14
REMARK    6  A    between atoms: C_13  and  C_25
REMARK    7  A    between atoms: N_16  and  C_17
REMARK    8  A    between atoms: C_17  and  C_18
REMARK    9  A    between atoms: C_21  and  C_22
REMARK   10  A    between atoms: C_28  and  C_29
REMARK                            x       y       z     vdW  Elec       q    Type
REMARK                         _______ _______ _______ _____ _____    ______ ____
ROOT
ATOM      1  C   UNL     1       0.052  11.461  19.574  0.00  0.00    +0.000 C 
ENDROOT
BRANCH   1   2
ATOM      2  C   UNL     1      -1.104  11.167  18.613  0.00  0.00    +0.000 A 
ATOM      3  C   UNL     1      -2.305  11.886  18.749  0.00  0.00    +0.000 A 
ATOM      4  C   UNL     1      -3.383  11.653  17.891  0.00  0.00    +0.000 A 
ATOM      5  C   UNL     1      -3.291  10.694  16.879  0.00  0.00    +0.000 A 
ATOM      6  C   UNL     1      -4.429  10.450  15.933  0.00  0.00    +0.000 C 
ATOM      7  C   UNL     1      -2.094   9.984  16.728  0.00  0.00    +0.000 A 
ATOM      8  C   UNL     1      -1.011  10.227  17.575  0.00  0.00    +0.000 A 
ENDBRANCH   1   2
BRANCH   1  12
ATOM      9  N   UNL     1       2.430  14.295  19.754  0.00  0.00    +0.000 N 
ATOM     10  C   UNL     1       2.480  13.140  20.657  0.00  0.00    +0.000 C 
ATOM     11  C   UNL     1       1.081  12.917  21.298  0.00  0.00    +0.000 C 
ATOM     12  N   UNL     1      -0.054  12.755  20.328  0.00  0.00    +0.000 NA
ATOM     13  C   UNL     1       0.003  13.946  19.433  0.00  0.00    +0.000 C 
ATOM     14  C   UNL     1       1.361  14.235  18.746  0.00  0.00    +0.000 C 
BRANCH   9  20
ATOM     15  C   UNL     1       3.340  16.475  20.517  0.00  0.00    +0.000 A 
ATOM     16  C   UNL     1       4.327  17.471  20.393  0.00  0.00    +0.000 A 
ATOM     17  C   UNL     1       5.398  17.315  19.521  0.00  0.00    +0.000 A 
ATOM     18  C   UNL     1       5.490  16.163  18.758  0.00  0.00    +0.000 A 
ATOM     19  C   UNL     1       4.506  15.175  18.866  0.00  0.00    +0.000 A 
ATOM     20  C   UNL     1       3.397  15.293  19.733  0.00  0.00    +0.000 A 
BRANCH  15  22
ATOM     21  C   UNL     1       2.422  16.407  22.702  0.00  0.00    +0.000 C 
ATOM     22  O   UNL     1       2.234  16.682  21.316  0.00  0.00    +0.000 OA
ENDBRANCH  15  22
ENDBRANCH   9  20
ENDBRANCH   1  12
BRANCH   1  23
ATOM     23  C   UNL     1       0.221  10.277  20.579  0.00  0.00    +0.000 C 
ATOM     24  O   UNL     1      -0.502  10.174  21.576  0.00  0.00    +0.000 OA
ATOM     25  N   UNL     1       1.159   9.326  20.239  0.00  0.00    +0.000 N 
ATOM     26  H   UNL     1       1.726   9.488  19.417  0.00  0.00    +0.000 HD
BRANCH  25  27
ATOM     27  C   UNL     1       1.360   8.117  21.001  0.00  0.00    +0.000 C 
BRANCH  27  28
ATOM     28  C   UNL     1       1.874   6.975  20.163  0.00  0.00    +0.000 A 
ATOM     29  C   UNL     1       1.786   5.658  20.635  0.00  0.00    +0.000 A 
ATOM     30  C   UNL     1       2.223   4.587  19.851  0.00  0.00    +0.000 A 
ATOM     31  C   UNL     1       2.764   4.812  18.581  0.00  0.00    +0.000 A 
ATOM     32  C   UNL     1       3.217   3.671  17.720  0.00  0.00    +0.000 C 
ATOM     33  C   UNL     1       2.869   6.127  18.115  0.00  0.00    +0.000 A 
ATOM     34  C   UNL     1       2.433   7.199  18.898  0.00  0.00    +0.000 A 
ENDBRANCH  27  28
ENDBRANCH  25  27
ENDBRANCH   1  23
TORSDOF 7
ENDMDL
