MODEL 1
REMARK VINA RESULT:      -7.8      0.000      0.000
REMARK  Name = 
REMARK  4 active torsions:
REMARK  status: ('A' for Active; 'I' for Inactive)
REMARK    1  A    between atoms: C_1  and  C_2
REMARK    2  A    between atoms: C_6  and  N_7
REMARK    3  A    between atoms: N_10  and  C_11
REMARK    4  A    between atoms: N_21  and  C_22
REMARK                            x       y       z     vdW  Elec       q    Type
REMARK                         _______ _______ _______ _____ _____    ______ ____
ROOT
ATOM      1  N   UNL     1       8.979   8.693  19.054  0.00  0.00    +0.000 N 
ATOM      2  C   UNL     1       8.053   8.167  18.170  0.00  0.00    +0.000 C 
ATOM      3  O   UNL     1       7.484   8.807  17.286  0.00  0.00    +0.000 OA
ATOM      4  N   UNL     1       7.812   6.818  18.389  0.00  0.00    +0.000 N 
ATOM      5  H   UNL     1       9.635   8.037  19.452  0.00  0.00    +0.000 HD
ATOM      6  H   UNL     1       7.823   6.552  19.363  0.00  0.00    +0.000 HD
ENDROOT
BRANCH   1  12
ATOM      7  C   UNL     1      10.979  15.519  17.230  0.00  0.00    +0.000 C 
ATOM      8  C   UNL     1      10.553  14.234  17.848  0.00  0.00    +0.000 A 
ATOM      9  N   UNL     1      10.362  13.105  17.208  0.00  0.00    +0.000 NA
ATOM     10  C   UNL     1       9.983  12.191  18.165  0.00  0.00    +0.000 A 
ATOM     11  C   UNL     1       9.665  10.831  18.021  0.00  0.00    +0.000 A 
ATOM     12  C   UNL     1       9.302  10.076  19.145  0.00  0.00    +0.000 A 
ATOM     13  C   UNL     1       9.229  10.700  20.397  0.00  0.00    +0.000 A 
ATOM     14  C   UNL     1       9.557  12.062  20.565  0.00  0.00    +0.000 A 
ATOM     15  C   UNL     1       9.928  12.784  19.422  0.00  0.00    +0.000 A 
ATOM     16  N   UNL     1      10.305  14.083  19.196  0.00  0.00    +0.000 N 
ATOM     17  C   UNL     1      10.409  15.131  20.179  0.00  0.00    +0.000 C 
ENDBRANCH   1  12
BRANCH   4  18
ATOM     18  C   UNL     1       6.903   6.117  17.554  0.00  0.00    +0.000 A 
ATOM     19  C   UNL     1       5.538   6.149  17.855  0.00  0.00    +0.000 A 
ATOM     20  C   UNL     1       4.621   5.472  17.044  0.00  0.00    +0.000 A 
ATOM     21  C   UNL     1       5.071   4.722  15.958  0.00  0.00    +0.000 A 
ATOM     22  C   UNL     1       6.431   4.689  15.669  0.00  0.00    +0.000 A 
ATOM     23  F   UNL     1       6.861   3.956  14.633  0.00  0.00    +0.000 F 
ATOM     24  C   UNL     1       7.348   5.392  16.443  0.00  0.00    +0.000 A 
ENDBRANCH   4  18
TORSDOF 2
ENDMDL
MODEL 2
REMARK VINA RESULT:      -7.7      0.984      1.422
REMARK  Name = 
REMARK  4 active torsions:
REMARK  status: ('A' for Active; 'I' for Inactive)
REMARK    1  A    between atoms: C_1  and  C_2
REMARK    2  A    between atoms: C_6  and  N_7
REMARK    3  A    between atoms: N_10  and  C_11
REMARK    4  A    between atoms: N_21  and  C_22
REMARK                            x       y       z     vdW  Elec       q    Type
REMARK                         _______ _______ _______ _____ _____    ______ ____
ROOT
ATOM      1  N   UNL     1       8.981   8.693  19.079  0.00  0.00    +0.000 N 
ATOM      2  C   UNL     1       8.067   8.155  18.190  0.00  0.00    +0.000 C 
ATOM      3  O   UNL     1       7.522   8.780  17.281  0.00  0.00    +0.000 OA
ATOM      4  N   UNL     1       7.808   6.815  18.437  0.00  0.00    +0.000 N 
ATOM      5  H   UNL     1       9.623   8.041  19.505  0.00  0.00    +0.000 HD
ATOM      6  H   UNL     1       7.798   6.572  19.418  0.00  0.00    +0.000 HD
ENDROOT
BRANCH   1  12
ATOM      7  C   UNL     1      11.052  15.462  17.125  0.00  0.00    +0.000 C 
ATOM      8  C   UNL     1      10.612  14.193  17.768  0.00  0.00    +0.000 A 
ATOM      9  N   UNL     1      10.412  13.053  17.150  0.00  0.00    +0.000 NA
ATOM     10  C   UNL     1      10.022  12.163  18.124  0.00  0.00    +0.000 A 
ATOM     11  C   UNL     1       9.691  10.804  18.006  0.00  0.00    +0.000 A 
ATOM     12  C   UNL     1       9.317  10.074  19.144  0.00  0.00    +0.000 A 
ATOM     13  C   UNL     1       9.245  10.725  20.382  0.00  0.00    +0.000 A 
ATOM     14  C   UNL     1       9.585  12.086  20.524  0.00  0.00    +0.000 A 
ATOM     15  C   UNL     1       9.967  12.781  19.368  0.00  0.00    +0.000 A 
ATOM     16  N   UNL     1      10.357  14.072  19.117  0.00  0.00    +0.000 N 
ATOM     17  C   UNL     1      10.467  15.139  20.079  0.00  0.00    +0.000 C 
ENDBRANCH   1  12
BRANCH   4  18
ATOM     18  C   UNL     1       6.908   6.103  17.602  0.00  0.00    +0.000 A 
ATOM     19  C   UNL     1       7.405   5.430  16.481  0.00  0.00    +0.000 A 
ATOM     20  C   UNL     1       6.540   4.715  15.646  0.00  0.00    +0.000 A 
ATOM     21  C   UNL     1       5.169   4.711  15.902  0.00  0.00    +0.000 A 
ATOM     22  C   UNL     1       4.681   5.389  17.014  0.00  0.00    +0.000 A 
ATOM     23  F   UNL     1       3.362   5.394  17.249  0.00  0.00    +0.000 F 
ATOM     24  C   UNL     1       5.536   6.068  17.875  0.00  0.00    +0.000 A 
ENDBRANCH   4  18
TORSDOF 2
ENDMDL
MODEL 3
REMARK VINA RESULT:      -7.6      0.813      1.872
REMARK  Name = 
REMARK  4 active torsions:
REMARK  status: ('A' for Active; 'I' for Inactive)
REMARK    1  A    between atoms: C_1  and  C_2
REMARK    2  A    between atoms: C_6  and  N_7
REMARK    3  A    between atoms: N_10  and  C_11
REMARK    4  A    between atoms: N_21  and  C_22
REMARK                            x       y       z     vdW  Elec       q    Type
REMARK                         _______ _______ _______ _____ _____    ______ ____
ROOT
ATOM      1  N   UNL     1       8.926   8.620  19.003  0.00  0.00    +0.000 N 
ATOM      2  C   UNL     1       7.989   8.095  18.130  0.00  0.00    +0.000 C 
ATOM      3  O   UNL     1       7.389   8.742  17.272  0.00  0.00    +0.000 OA
ATOM      4  N   UNL     1       7.775   6.739  18.329  0.00  0.00    +0.000 N 
ATOM      5  H   UNL     1       9.601   7.969  19.373  0.00  0.00    +0.000 HD
ATOM      6  H   UNL     1       7.813   6.455  19.298  0.00  0.00    +0.000 HD
ENDROOT
BRANCH   1  12
ATOM      7  C   UNL     1      10.276  15.256  21.842  0.00  0.00    +0.000 C 
ATOM      8  C   UNL     1      10.039  14.032  21.030  0.00  0.00    +0.000 A 
ATOM      9  N   UNL     1       9.780  12.837  21.507  0.00  0.00    +0.000 NA
ATOM     10  C   UNL     1       9.631  12.020  20.410  0.00  0.00    +0.000 A 
ATOM     11  C   UNL     1       9.339  10.648  20.355  0.00  0.00    +0.000 A 
ATOM     12  C   UNL     1       9.228  10.007  19.113  0.00  0.00    +0.000 A 
ATOM     13  C   UNL     1       9.448  10.740  17.940  0.00  0.00    +0.000 A 
ATOM     14  C   UNL     1       9.729  12.122  17.973  0.00  0.00    +0.000 A 
ATOM     15  C   UNL     1       9.819  12.734  19.231  0.00  0.00    +0.000 A 
ATOM     16  N   UNL     1      10.068  14.015  19.652  0.00  0.00    +0.000 N 
ATOM     17  C   UNL     1      10.338  15.158  18.817  0.00  0.00    +0.000 C 
ENDBRANCH   1  12
BRANCH   4  18
ATOM     18  C   UNL     1       6.859   6.038  17.502  0.00  0.00    +0.000 A 
ATOM     19  C   UNL     1       5.495   6.079  17.808  0.00  0.00    +0.000 A 
ATOM     20  C   UNL     1       4.571   5.402  17.005  0.00  0.00    +0.000 A 
ATOM     21  C   UNL     1       5.013   4.644  15.922  0.00  0.00    +0.000 A 
ATOM     22  C   UNL     1       6.371   4.602  15.628  0.00  0.00    +0.000 A 
ATOM     23  F   UNL     1       6.793   3.861  14.594  0.00  0.00    +0.000 F 
ATOM     24  C   UNL     1       7.295   5.304  16.394  0.00  0.00    +0.000 A 
ENDBRANCH   4  18
TORSDOF 2
ENDMDL
MODEL 4
REMARK VINA RESULT:      -7.6      1.270      2.340
REMARK  Name = 
REMARK  4 active torsions:
REMARK  status: ('A' for Active; 'I' for Inactive)
REMARK    1  A    between atoms: C_1  and  C_2
REMARK    2  A    between atoms: C_6  and  N_7
REMARK    3  A    between atoms: N_10  and  C_11
REMARK    4  A    between atoms: N_21  and  C_22
REMARK                            x       y       z     vdW  Elec       q    Type
REMARK                         _______ _______ _______ _____ _____    ______ ____
ROOT
ATOM      1  N   UNL     1       8.928   8.621  19.030  0.00  0.00    +0.000 N 
ATOM      2  C   UNL     1       7.993   8.078  18.167  0.00  0.00    +0.000 C 
ATOM      3  O   UNL     1       7.386   8.708  17.303  0.00  0.00    +0.000 OA
ATOM      4  N   UNL     1       7.790   6.723  18.385  0.00  0.00    +0.000 N 
ATOM      5  H   UNL     1       9.610   7.981  19.408  0.00  0.00    +0.000 HD
ATOM      6  H   UNL     1       7.833   6.452  19.358  0.00  0.00    +0.000 HD
ENDROOT
BRANCH   1  12
ATOM      7  C   UNL     1      10.323  15.286  21.780  0.00  0.00    +0.000 C 
ATOM      8  C   UNL     1      10.066  14.055  20.984  0.00  0.00    +0.000 A 
ATOM      9  N   UNL     1       9.840  12.860  21.477  0.00  0.00    +0.000 NA
ATOM     10  C   UNL     1       9.654  12.036  20.391  0.00  0.00    +0.000 A 
ATOM     11  C   UNL     1       9.375  10.661  20.355  0.00  0.00    +0.000 A 
ATOM     12  C   UNL     1       9.220  10.011  19.121  0.00  0.00    +0.000 A 
ATOM     13  C   UNL     1       9.383  10.741  17.937  0.00  0.00    +0.000 A 
ATOM     14  C   UNL     1       9.651  12.126  17.952  0.00  0.00    +0.000 A 
ATOM     15  C   UNL     1       9.786  12.746  19.202  0.00  0.00    +0.000 A 
ATOM     16  N   UNL     1      10.038  14.032  19.606  0.00  0.00    +0.000 N 
ATOM     17  C   UNL     1      10.261  15.172  18.755  0.00  0.00    +0.000 C 
ENDBRANCH   1  12
BRANCH   4  18
ATOM     18  C   UNL     1       6.877   6.004  17.571  0.00  0.00    +0.000 A 
ATOM     19  C   UNL     1       7.358   5.315  16.452  0.00  0.00    +0.000 A 
ATOM     20  C   UNL     1       6.479   4.593  15.637  0.00  0.00    +0.000 A 
ATOM     21  C   UNL     1       5.112   4.597  15.910  0.00  0.00    +0.000 A 
ATOM     22  C   UNL     1       4.641   5.291  17.019  0.00  0.00    +0.000 A 
ATOM     23  F   UNL     1       3.324   5.305  17.271  0.00  0.00    +0.000 F 
ATOM     24  C   UNL     1       5.509   5.978  17.861  0.00  0.00    +0.000 A 
ENDBRANCH   4  18
TORSDOF 2
ENDMDL
MODEL 5
REMARK VINA RESULT:      -7.5      7.201      8.756
REMARK  Name = 
REMARK  4 active torsions:
REMARK  status: ('A' for Active; 'I' for Inactive)
REMARK    1  A    between atoms: C_1  and  C_2
REMARK    2  A    between atoms: C_6  and  N_7
REMARK    3  A    between atoms: N_10  and  C_11
REMARK    4  A    between atoms: N_21  and  C_22
REMARK                            x       y       z     vdW  Elec       q    Type
REMARK                         _______ _______ _______ _____ _____    ______ ____
ROOT
ATOM      1  N   UNL     1       1.841   7.586  21.053  0.00  0.00    +0.000 N 
ATOM      2  C   UNL     1       2.365   7.037  19.896  0.00  0.00    +0.000 C 
ATOM      3  O   UNL     1       2.271   7.538  18.776  0.00  0.00    +0.000 OA
ATOM      4  N   UNL     1       3.011   5.830  20.123  0.00  0.00    +0.000 N 
ATOM      5  H   UNL     1       2.288   7.314  21.915  0.00  0.00    +0.000 HD
ATOM      6  H   UNL     1       2.572   5.256  20.830  0.00  0.00    +0.000 HD
ENDROOT
BRANCH   1  12
ATOM      7  C   UNL     1      -2.576  12.930  23.474  0.00  0.00    +0.000 C 
ATOM      8  C   UNL     1      -1.706  11.967  22.745  0.00  0.00    +0.000 A 
ATOM      9  N   UNL     1      -1.080  10.945  23.281  0.00  0.00    +0.000 NA
ATOM     10  C   UNL     1      -0.405  10.336  22.248  0.00  0.00    +0.000 A 
ATOM     11  C   UNL     1       0.414   9.196  22.270  0.00  0.00    +0.000 A 
ATOM     12  C   UNL     1       1.010   8.741  21.085  0.00  0.00    +0.000 A 
ATOM     13  C   UNL     1       0.807   9.455  19.897  0.00  0.00    +0.000 A 
ATOM     14  C   UNL     1      -0.022  10.595  19.851  0.00  0.00    +0.000 A 
ATOM     15  C   UNL     1      -0.612  11.014  21.051  0.00  0.00    +0.000 A 
ATOM     16  N   UNL     1      -1.453  12.044  21.392  0.00  0.00    +0.000 N 
ATOM     17  C   UNL     1      -1.975  13.055  20.509  0.00  0.00    +0.000 C 
ENDBRANCH   1  12
BRANCH   4  18
ATOM     18  C   UNL     1       3.625   5.142  19.044  0.00  0.00    +0.000 A 
ATOM     19  C   UNL     1       2.832   4.379  18.182  0.00  0.00    +0.000 A 
ATOM     20  C   UNL     1       3.412   3.697  17.107  0.00  0.00    +0.000 A 
ATOM     21  C   UNL     1       4.793   3.737  16.920  0.00  0.00    +0.000 A 
ATOM     22  C   UNL     1       5.576   4.491  17.786  0.00  0.00    +0.000 A 
ATOM     23  F   UNL     1       6.905   4.516  17.612  0.00  0.00    +0.000 F 
ATOM     24  C   UNL     1       5.007   5.207  18.833  0.00  0.00    +0.000 A 
ENDBRANCH   4  18
TORSDOF 2
ENDMDL
MODEL 6
REMARK VINA RESULT:      -7.4      3.249      8.891
REMARK  Name = 
REMARK  4 active torsions:
REMARK  status: ('A' for Active; 'I' for Inactive)
REMARK    1  A    between atoms: C_1  and  C_2
REMARK    2  A    between atoms: C_6  and  N_7
REMARK    3  A    between atoms: N_10  and  C_11
REMARK    4  A    between atoms: N_21  and  C_22
REMARK                            x       y       z     vdW  Elec       q    Type
REMARK                         _______ _______ _______ _____ _____    ______ ____
ROOT
ATOM      1  N   UNL     1       7.223   8.327  17.085  0.00  0.00    +0.000 N 
ATOM      2  C   UNL     1       8.143   8.826  17.990  0.00  0.00    +0.000 C 
ATOM      3  O   UNL     1       8.511   8.244  19.010  0.00  0.00    +0.000 OA
ATOM      4  N   UNL     1       8.613  10.082  17.635  0.00  0.00    +0.000 N 
ATOM      5  H   UNL     1       7.288   8.683  16.143  0.00  0.00    +0.000 HD
ATOM      6  H   UNL     1       7.916  10.676  17.207  0.00  0.00    +0.000 HD
ENDROOT
BRANCH   1  12
ATOM      7  C   UNL     1       1.628   3.684  18.116  0.00  0.00    +0.000 C 
ATOM      8  C   UNL     1       2.914   4.404  17.912  0.00  0.00    +0.000 A 
ATOM      9  N   UNL     1       3.047   5.700  17.748  0.00  0.00    +0.000 NA
ATOM     10  C   UNL     1       4.397   5.922  17.600  0.00  0.00    +0.000 A 
ATOM     11  C   UNL     1       5.083   7.130  17.402  0.00  0.00    +0.000 A 
ATOM     12  C   UNL     1       6.480   7.128  17.278  0.00  0.00    +0.000 A 
ATOM     13  C   UNL     1       7.170   5.910  17.317  0.00  0.00    +0.000 A 
ATOM     14  C   UNL     1       6.501   4.687  17.527  0.00  0.00    +0.000 A 
ATOM     15  C   UNL     1       5.106   4.727  17.661  0.00  0.00    +0.000 A 
ATOM     16  N   UNL     1       4.140   3.776  17.871  0.00  0.00    +0.000 N 
ATOM     17  C   UNL     1       4.347   2.356  18.005  0.00  0.00    +0.000 C 
ENDBRANCH   1  12
BRANCH   4  18
ATOM     18  C   UNL     1       9.581  10.731  18.446  0.00  0.00    +0.000 A 
ATOM     19  C   UNL     1      10.839  11.018  17.907  0.00  0.00    +0.000 A 
ATOM     20  C   UNL     1      11.808  11.663  18.683  0.00  0.00    +0.000 A 
ATOM     21  C   UNL     1      11.539  11.978  20.014  0.00  0.00    +0.000 A 
ATOM     22  C   UNL     1      10.288  11.682  20.545  0.00  0.00    +0.000 A 
ATOM     23  F   UNL     1      10.038  11.975  21.829  0.00  0.00    +0.000 F 
ATOM     24  C   UNL     1       9.302  11.080  19.772  0.00  0.00    +0.000 A 
ENDBRANCH   4  18
TORSDOF 2
ENDMDL
MODEL 7
REMARK VINA RESULT:      -7.3      7.310      8.914
REMARK  Name = 
REMARK  4 active torsions:
REMARK  status: ('A' for Active; 'I' for Inactive)
REMARK    1  A    between atoms: C_1  and  C_2
REMARK    2  A    between atoms: C_6  and  N_7
REMARK    3  A    between atoms: N_10  and  C_11
REMARK    4  A    between atoms: N_21  and  C_22
REMARK                            x       y       z     vdW  Elec       q    Type
REMARK                         _______ _______ _______ _____ _____    ______ ____
ROOT
ATOM      1  N   UNL     1       1.830   7.685  21.146  0.00  0.00    +0.000 N 
ATOM      2  C   UNL     1       2.228   7.032  19.993  0.00  0.00    +0.000 C 
ATOM      3  O   UNL     1       1.994   7.422  18.850  0.00  0.00    +0.000 OA
ATOM      4  N   UNL     1       2.919   5.859  20.256  0.00  0.00    +0.000 N 
ATOM      5  H   UNL     1       2.380   7.502  21.973  0.00  0.00    +0.000 HD
ATOM      6  H   UNL     1       2.577   5.351  21.061  0.00  0.00    +0.000 HD
ENDROOT
BRANCH   1  12
ATOM      7  C   UNL     1      -2.708  12.959  23.496  0.00  0.00    +0.000 C 
ATOM      8  C   UNL     1      -1.809  12.012  22.782  0.00  0.00    +0.000 A 
ATOM      9  N   UNL     1      -1.186  10.993  23.326  0.00  0.00    +0.000 NA
ATOM     10  C   UNL     1      -0.477  10.400  22.306  0.00  0.00    +0.000 A 
ATOM     11  C   UNL     1       0.354   9.269  22.340  0.00  0.00    +0.000 A 
ATOM     12  C   UNL     1       0.985   8.831  21.167  0.00  0.00    +0.000 A 
ATOM     13  C   UNL     1       0.805   9.552  19.980  0.00  0.00    +0.000 A 
ATOM     14  C   UNL     1      -0.036  10.683  19.922  0.00  0.00    +0.000 A 
ATOM     15  C   UNL     1      -0.662  11.086  21.110  0.00  0.00    +0.000 A 
ATOM     16  N   UNL     1      -1.522  12.103  21.437  0.00  0.00    +0.000 N 
ATOM     17  C   UNL     1      -2.033  13.116  20.549  0.00  0.00    +0.000 C 
ENDBRANCH   1  12
BRANCH   4  18
ATOM     18  C   UNL     1       3.418   5.076  19.183  0.00  0.00    +0.000 A 
ATOM     19  C   UNL     1       4.672   5.380  18.642  0.00  0.00    +0.000 A 
ATOM     20  C   UNL     1       5.189   4.619  17.588  0.00  0.00    +0.000 A 
ATOM     21  C   UNL     1       4.434   3.583  17.041  0.00  0.00    +0.000 A 
ATOM     22  C   UNL     1       3.185   3.291  17.578  0.00  0.00    +0.000 A 
ATOM     23  F   UNL     1       2.457   2.303  17.040  0.00  0.00    +0.000 F 
ATOM     24  C   UNL     1       2.678   4.013  18.653  0.00  0.00    +0.000 A 
ENDBRANCH   4  18
TORSDOF 2
ENDMDL
MODEL 8
REMARK VINA RESULT:      -7.3      6.797      7.399
REMARK  Name = 
REMARK  4 active torsions:
REMARK  status: ('A' for Active; 'I' for Inactive)
REMARK    1  A    between atoms: C_1  and  C_2
REMARK    2  A    between atoms: C_6  and  N_7
REMARK    3  A    between atoms: N_10  and  C_11
REMARK    4  A    between atoms: N_21  and  C_22
REMARK                            x       y       z     vdW  Elec       q    Type
REMARK                         _______ _______ _______ _____ _____    ______ ____
ROOT
ATOM      1  N   UNL     1       4.353   5.147  17.595  0.00  0.00    +0.000 N 
ATOM      2  C   UNL     1       4.893   5.383  16.343  0.00  0.00    +0.000 C 
ATOM      3  O   UNL     1       4.808   6.448  15.731  0.00  0.00    +0.000 OA
ATOM      4  N   UNL     1       5.544   4.274  15.825  0.00  0.00    +0.000 N 
ATOM      5  H   UNL     1       4.792   4.419  18.138  0.00  0.00    +0.000 HD
ATOM      6  H   UNL     1       5.102   3.394  16.053  0.00  0.00    +0.000 HD
ENDROOT
BRANCH   1  12
ATOM      7  C   UNL     1       0.443  11.136  19.260  0.00  0.00    +0.000 C 
ATOM      8  C   UNL     1       1.151   9.831  19.160  0.00  0.00    +0.000 A 
ATOM      9  N   UNL     1       1.876   9.431  18.141  0.00  0.00    +0.000 NA
ATOM     10  C   UNL     1       2.337   8.179  18.479  0.00  0.00    +0.000 A 
ATOM     11  C   UNL     1       3.161   7.308  17.749  0.00  0.00    +0.000 A 
ATOM     12  C   UNL     1       3.514   6.063  18.290  0.00  0.00    +0.000 A 
ATOM     13  C   UNL     1       3.008   5.691  19.542  0.00  0.00    +0.000 A 
ATOM     14  C   UNL     1       2.189   6.557  20.297  0.00  0.00    +0.000 A 
ATOM     15  C   UNL     1       1.867   7.799  19.731  0.00  0.00    +0.000 A 
ATOM     16  N   UNL     1       1.122   8.872  20.149  0.00  0.00    +0.000 N 
ATOM     17  C   UNL     1       0.406   8.989  21.394  0.00  0.00    +0.000 C 
ENDBRANCH   1  12
BRANCH   4  18
ATOM     18  C   UNL     1       6.175   4.352  14.556  0.00  0.00    +0.000 A 
ATOM     19  C   UNL     1       5.661   3.603  13.492  0.00  0.00    +0.000 A 
ATOM     20  C   UNL     1       6.260   3.668  12.229  0.00  0.00    +0.000 A 
ATOM     21  C   UNL     1       7.403   4.444  12.039  0.00  0.00    +0.000 A 
ATOM     22  C   UNL     1       7.913   5.179  13.104  0.00  0.00    +0.000 A 
ATOM     23  F   UNL     1       9.020   5.912  12.920  0.00  0.00    +0.000 F 
ATOM     24  C   UNL     1       7.302   5.155  14.353  0.00  0.00    +0.000 A 
ENDBRANCH   4  18
TORSDOF 2
ENDMDL
MODEL 9
REMARK VINA RESULT:      -7.3      6.915      8.166
REMARK  Name = 
REMARK  4 active torsions:
REMARK  status: ('A' for Active; 'I' for Inactive)
REMARK    1  A    between atoms: C_1  and  C_2
REMARK    2  A    between atoms: C_6  and  N_7
REMARK    3  A    between atoms: N_10  and  C_11
REMARK    4  A    between atoms: N_21  and  C_22
REMARK                            x       y       z     vdW  Elec       q    Type
REMARK                         _______ _______ _______ _____ _____    ______ ____
ROOT
ATOM      1  N   UNL     1       2.284   7.004  20.308  0.00  0.00    +0.000 N 
ATOM      2  C   UNL     1       3.128   6.731  19.246  0.00  0.00    +0.000 C 
ATOM      3  O   UNL     1       3.397   7.521  18.342  0.00  0.00    +0.000 OA
ATOM      4  N   UNL     1       3.644   5.444  19.292  0.00  0.00    +0.000 N 
ATOM      5  H   UNL     1       2.436   6.463  21.146  0.00  0.00    +0.000 HD
ATOM      6  H   UNL     1       2.996   4.753  19.643  0.00  0.00    +0.000 HD
ENDROOT
BRANCH   1  12
ATOM      7  C   UNL     1      -1.455  12.620  23.207  0.00  0.00    +0.000 C 
ATOM      8  C   UNL     1      -0.760  11.593  22.384  0.00  0.00    +0.000 A 
ATOM      9  N   UNL     1      -0.083  10.570  22.850  0.00  0.00    +0.000 NA
ATOM     10  C   UNL     1       0.378   9.891  21.745  0.00  0.00    +0.000 A 
ATOM     11  C   UNL     1       1.150   8.721  21.678  0.00  0.00    +0.000 A 
ATOM     12  C   UNL     1       1.510   8.192  20.430  0.00  0.00    +0.000 A 
ATOM     13  C   UNL     1       1.122   8.863  19.263  0.00  0.00    +0.000 A 
ATOM     14  C   UNL     1       0.336  10.033  19.309  0.00  0.00    +0.000 A 
ATOM     15  C   UNL     1      -0.018  10.526  20.572  0.00  0.00    +0.000 A 
ATOM     16  N   UNL     1      -0.750  11.602  21.005  0.00  0.00    +0.000 N 
ATOM     17  C   UNL     1      -1.388  12.596  20.180  0.00  0.00    +0.000 C 
ENDBRANCH   1  12
BRANCH   4  18
ATOM     18  C   UNL     1       4.547   5.008  18.287  0.00  0.00    +0.000 A 
ATOM     19  C   UNL     1       4.040   4.567  17.060  0.00  0.00    +0.000 A 
ATOM     20  C   UNL     1       4.909   4.138  16.051  0.00  0.00    +0.000 A 
ATOM     21  C   UNL     1       6.283   4.103  16.283  0.00  0.00    +0.000 A 
ATOM     22  C   UNL     1       6.779   4.536  17.508  0.00  0.00    +0.000 A 
ATOM     23  F   UNL     1       8.100   4.487  17.732  0.00  0.00    +0.000 F 
ATOM     24  C   UNL     1       5.929   5.003  18.504  0.00  0.00    +0.000 A 
ENDBRANCH   4  18
TORSDOF 2
ENDMDL
