MODEL 1
REMARK VINA RESULT:      -7.0      0.000      0.000
REMARK  Name = 
REMARK  13 active torsions:
REMARK  status: ('A' for Active; 'I' for Inactive)
REMARK    1  A    between atoms: C_1  and  C_2
REMARK    2  A    between atoms: C_2  and  O_3
REMARK    3  A    between atoms: O_3  and  C_4
REMARK    4  A    between atoms: C_7  and  N_8
REMARK    5  A    between atoms: C_10  and  O_11
REMARK    6  A    between atoms: O_11  and  C_12
REMARK    7  A    between atoms: C_15  and  C_16
REMARK    8  A    between atoms: C_16  and  C_17
REMARK    9  A    between atoms: C_16  and  N_18
REMARK   10  A    between atoms: C_19  and  C_21
REMARK   11  A    between atoms: C_21  and  N_22
REMARK   12  A    between atoms: N_22  and  C_23
REMARK   13  A    between atoms: N_22  and  C_24
REMARK                            x       y       z     vdW  Elec       q    Type
REMARK                         _______ _______ _______ _____ _____    ______ ____
ROOT
ATOM      1  C   UNL     1       2.476   5.408  18.575  0.00  0.00    +0.000 A 
ATOM      2  C   UNL     1       2.658   6.692  18.067  0.00  0.00    +0.000 A 
ATOM      3  C   UNL     1       2.312   7.807  18.836  0.00  0.00    +0.000 A 
ATOM      4  C   UNL     1       1.779   7.642  20.122  0.00  0.00    +0.000 A 
ATOM      5  C   UNL     1       1.601   6.342  20.618  0.00  0.00    +0.000 A 
ATOM      6  C   UNL     1       1.942   5.231  19.848  0.00  0.00    +0.000 A 
ENDROOT
BRANCH   4   7
ATOM      7  C   UNL     1       1.365   8.853  20.934  0.00  0.00    +0.000 C 
ATOM      8  C   UNL     1       0.409   8.464  22.067  0.00  0.00    +0.000 C 
BRANCH   7   9
ATOM      9  N   UNL     1       0.778   9.848  20.057  0.00  0.00    +0.000 N 
ATOM     10  C   UNL     1       0.732  11.185  20.372  0.00  0.00    +0.000 C 
ATOM     11  O   UNL     1       1.291  11.672  21.350  0.00  0.00    +0.000 OA
ATOM     12  H   UNL     1       0.179   9.562  19.289  0.00  0.00    +0.000 HD
BRANCH  10  13
ATOM     13  C   UNL     1      -0.037  12.037  19.355  0.00  0.00    +0.000 C 
BRANCH  13  14
ATOM     14  N   UNL     1      -1.455  11.601  19.214  0.00  0.00    +0.000 NA
ATOM     15  C   UNL     1      -2.365  12.543  19.879  0.00  0.00    +0.000 C 
ATOM     16  C   UNL     1      -1.790  11.553  17.782  0.00  0.00    +0.000 C 
ENDBRANCH  13  14
ENDBRANCH  10  13
ENDBRANCH   7   9
ENDBRANCH   4   7
BRANCH   1  17
ATOM     17  O   UNL     1       2.794   4.373  17.735  0.00  0.00    +0.000 OA
BRANCH  17  20
ATOM     18  N   UNL     1       5.862   4.456  18.200  0.00  0.00    +0.000 N 
ATOM     19  C   UNL     1       5.164   3.820  17.118  0.00  0.00    +0.000 C 
ATOM     20  C   UNL     1       3.972   3.585  18.047  0.00  0.00    +0.000 C 
ATOM     21  C   UNL     1       4.873   4.093  19.179  0.00  0.00    +0.000 C 
BRANCH  18  25
ATOM     22  C   UNL     1       7.944   8.133  17.912  0.00  0.00    +0.000 A 
ATOM     23  C   UNL     1       6.811   7.905  17.133  0.00  0.00    +0.000 A 
ATOM     24  C   UNL     1       6.105   6.703  17.241  0.00  0.00    +0.000 A 
ATOM     25  C   UNL     1       6.537   5.696  18.111  0.00  0.00    +0.000 A 
ATOM     26  C   UNL     1       7.667   5.948  18.900  0.00  0.00    +0.000 A 
ATOM     27  C   UNL     1       8.380   7.144  18.790  0.00  0.00    +0.000 A 
BRANCH  22  28
ATOM     28  O   UNL     1       8.544   9.347  17.731  0.00  0.00    +0.000 OA
BRANCH  28  30
ATOM     29  C   UNL     1      10.084  10.754  18.872  0.00  0.00    +0.000 C 
ATOM     30  C   UNL     1       8.694  10.149  18.903  0.00  0.00    +0.000 C 
ENDBRANCH  28  30
ENDBRANCH  22  28
ENDBRANCH  18  25
ENDBRANCH  17  20
ENDBRANCH   1  17
TORSDOF 9
ENDMDL
MODEL 2
REMARK VINA RESULT:      -6.9      0.410      1.328
REMARK  Name = 
REMARK  13 active torsions:
REMARK  status: ('A' for Active; 'I' for Inactive)
REMARK    1  A    between atoms: C_1  and  C_2
REMARK    2  A    between atoms: C_2  and  O_3
REMARK    3  A    between atoms: O_3  and  C_4
REMARK    4  A    between atoms: C_7  and  N_8
REMARK    5  A    between atoms: C_10  and  O_11
REMARK    6  A    between atoms: O_11  and  C_12
REMARK    7  A    between atoms: C_15  and  C_16
REMARK    8  A    between atoms: C_16  and  C_17
REMARK    9  A    between atoms: C_16  and  N_18
REMARK   10  A    between atoms: C_19  and  C_21
REMARK   11  A    between atoms: C_21  and  N_22
REMARK   12  A    between atoms: N_22  and  C_23
REMARK   13  A    between atoms: N_22  and  C_24
REMARK                            x       y       z     vdW  Elec       q    Type
REMARK                         _______ _______ _______ _____ _____    ______ ____
ROOT
ATOM      1  C   UNL     1       2.211   5.405  18.692  0.00  0.00    +0.000 A 
ATOM      2  C   UNL     1       1.732   5.336  19.998  0.00  0.00    +0.000 A 
ATOM      3  C   UNL     1       1.475   6.509  20.715  0.00  0.00    +0.000 A 
ATOM      4  C   UNL     1       1.700   7.761  20.126  0.00  0.00    +0.000 A 
ATOM      5  C   UNL     1       2.184   7.813  18.811  0.00  0.00    +0.000 A 
ATOM      6  C   UNL     1       2.442   6.643  18.099  0.00  0.00    +0.000 A 
ENDROOT
BRANCH   4   7
ATOM      7  C   UNL     1       1.462   9.028  20.924  0.00  0.00    +0.000 C 
ATOM      8  C   UNL     1       0.715   8.732  22.229  0.00  0.00    +0.000 C 
BRANCH   7   9
ATOM      9  N   UNL     1       0.749   9.990  20.106  0.00  0.00    +0.000 N 
ATOM     10  C   UNL     1       0.736  11.337  20.378  0.00  0.00    +0.000 C 
ATOM     11  O   UNL     1       1.424  11.859  21.251  0.00  0.00    +0.000 OA
ATOM     12  H   UNL     1       0.050   9.676  19.440  0.00  0.00    +0.000 HD
BRANCH  10  13
ATOM     13  C   UNL     1      -0.176  12.150  19.453  0.00  0.00    +0.000 C 
BRANCH  13  14
ATOM     14  N   UNL     1      -1.580  11.649  19.463  0.00  0.00    +0.000 NA
ATOM     15  C   UNL     1      -2.471  12.595  20.147  0.00  0.00    +0.000 C 
ATOM     16  C   UNL     1      -2.032  11.496  18.072  0.00  0.00    +0.000 C 
ENDBRANCH  13  14
ENDBRANCH  10  13
ENDBRANCH   7   9
ENDBRANCH   4   7
BRANCH   1  17
ATOM     17  O   UNL     1       2.482   4.209  18.082  0.00  0.00    +0.000 OA
BRANCH  17  20
ATOM     18  N   UNL     1       5.543   4.262  18.596  0.00  0.00    +0.000 N 
ATOM     19  C   UNL     1       4.837   3.465  17.631  0.00  0.00    +0.000 C 
ATOM     20  C   UNL     1       3.622   3.448  18.559  0.00  0.00    +0.000 C 
ATOM     21  C   UNL     1       4.524   4.120  19.601  0.00  0.00    +0.000 C 
BRANCH  18  25
ATOM     22  C   UNL     1       7.660   7.827  17.733  0.00  0.00    +0.000 A 
ATOM     23  C   UNL     1       8.172   6.912  18.652  0.00  0.00    +0.000 A 
ATOM     24  C   UNL     1       7.490   5.721  18.922  0.00  0.00    +0.000 A 
ATOM     25  C   UNL     1       6.269   5.439  18.300  0.00  0.00    +0.000 A 
ATOM     26  C   UNL     1       5.778   6.360  17.365  0.00  0.00    +0.000 A 
ATOM     27  C   UNL     1       6.452   7.555  17.097  0.00  0.00    +0.000 A 
BRANCH  22  28
ATOM     28  O   UNL     1       8.418   8.947  17.540  0.00  0.00    +0.000 OA
BRANCH  28  30
ATOM     29  C   UNL     1       9.592  10.873  18.292  0.00  0.00    +0.000 C 
ATOM     30  C   UNL     1       8.766   9.675  18.719  0.00  0.00    +0.000 C 
ENDBRANCH  28  30
ENDBRANCH  22  28
ENDBRANCH  18  25
ENDBRANCH  17  20
ENDBRANCH   1  17
TORSDOF 9
ENDMDL
MODEL 3
REMARK VINA RESULT:      -6.9      1.889      2.978
REMARK  Name = 
REMARK  13 active torsions:
REMARK  status: ('A' for Active; 'I' for Inactive)
REMARK    1  A    between atoms: C_1  and  C_2
REMARK    2  A    between atoms: C_2  and  O_3
REMARK    3  A    between atoms: O_3  and  C_4
REMARK    4  A    between atoms: C_7  and  N_8
REMARK    5  A    between atoms: C_10  and  O_11
REMARK    6  A    between atoms: O_11  and  C_12
REMARK    7  A    between atoms: C_15  and  C_16
REMARK    8  A    between atoms: C_16  and  C_17
REMARK    9  A    between atoms: C_16  and  N_18
REMARK   10  A    between atoms: C_19  and  C_21
REMARK   11  A    between atoms: C_21  and  N_22
REMARK   12  A    between atoms: N_22  and  C_23
REMARK   13  A    between atoms: N_22  and  C_24
REMARK                            x       y       z     vdW  Elec       q    Type
REMARK                         _______ _______ _______ _____ _____    ______ ____
ROOT
ATOM      1  C   UNL     1       1.678   3.918  19.431  0.00  0.00    +0.000 A 
ATOM      2  C   UNL     1       1.929   4.873  20.412  0.00  0.00    +0.000 A 
ATOM      3  C   UNL     1       2.001   6.228  20.071  0.00  0.00    +0.000 A 
ATOM      4  C   UNL     1       1.824   6.632  18.740  0.00  0.00    +0.000 A 
ATOM      5  C   UNL     1       1.574   5.656  17.764  0.00  0.00    +0.000 A 
ATOM      6  C   UNL     1       1.506   4.307  18.106  0.00  0.00    +0.000 A 
ENDROOT
BRANCH   4   7
ATOM      7  C   UNL     1       1.947   8.097  18.370  0.00  0.00    +0.000 C 
ATOM      8  C   UNL     1       3.278   8.383  17.665  0.00  0.00    +0.000 C 
BRANCH   7   9
ATOM      9  N   UNL     1       1.784   8.913  19.557  0.00  0.00    +0.000 N 
ATOM     10  C   UNL     1       0.715   9.757  19.742  0.00  0.00    +0.000 C 
ATOM     11  O   UNL     1      -0.254   9.799  18.988  0.00  0.00    +0.000 OA
ATOM     12  H   UNL     1       2.567   9.062  20.186  0.00  0.00    +0.000 HD
BRANCH  10  13
ATOM     13  C   UNL     1       0.807  10.609  21.012  0.00  0.00    +0.000 C 
BRANCH  13  14
ATOM     14  N   UNL     1      -0.436  10.537  21.831  0.00  0.00    +0.000 NA
ATOM     15  C   UNL     1      -0.287   9.579  22.934  0.00  0.00    +0.000 C 
ATOM     16  C   UNL     1      -0.703  11.869  22.395  0.00  0.00    +0.000 C 
ENDBRANCH  13  14
ENDBRANCH  10  13
ENDBRANCH   7   9
ENDBRANCH   4   7
BRANCH   1  17
ATOM     17  O   UNL     1       1.674   2.611  19.844  0.00  0.00    +0.000 OA
BRANCH  17  20
ATOM     18  N   UNL     1       4.532   2.605  18.633  0.00  0.00    +0.000 N 
ATOM     19  C   UNL     1       3.354   1.994  18.084  0.00  0.00    +0.000 C 
ATOM     20  C   UNL     1       2.819   1.789  19.501  0.00  0.00    +0.000 C 
ATOM     21  C   UNL     1       4.193   2.265  19.988  0.00  0.00    +0.000 C 
BRANCH  18  25
ATOM     22  C   UNL     1       6.146   6.285  17.294  0.00  0.00    +0.000 A 
ATOM     23  C   UNL     1       6.312   5.886  18.620  0.00  0.00    +0.000 A 
ATOM     24  C   UNL     1       5.804   4.661  19.062  0.00  0.00    +0.000 A 
ATOM     25  C   UNL     1       5.094   3.825  18.192  0.00  0.00    +0.000 A 
ATOM     26  C   UNL     1       4.952   4.232  16.859  0.00  0.00    +0.000 A 
ATOM     27  C   UNL     1       5.452   5.459  16.414  0.00  0.00    +0.000 A 
BRANCH  22  28
ATOM     28  O   UNL     1       6.697   7.493  16.974  0.00  0.00    +0.000 OA
BRANCH  28  30
ATOM     29  C   UNL     1       7.970   9.299  17.854  0.00  0.00    +0.000 C 
ATOM     30  C   UNL     1       7.937   7.802  17.613  0.00  0.00    +0.000 C 
ENDBRANCH  28  30
ENDBRANCH  22  28
ENDBRANCH  18  25
ENDBRANCH  17  20
ENDBRANCH   1  17
TORSDOF 9
ENDMDL
MODEL 4
REMARK VINA RESULT:      -6.8      3.094      9.726
REMARK  Name = 
REMARK  13 active torsions:
REMARK  status: ('A' for Active; 'I' for Inactive)
REMARK    1  A    between atoms: C_1  and  C_2
REMARK    2  A    between atoms: C_2  and  O_3
REMARK    3  A    between atoms: O_3  and  C_4
REMARK    4  A    between atoms: C_7  and  N_8
REMARK    5  A    between atoms: C_10  and  O_11
REMARK    6  A    between atoms: O_11  and  C_12
REMARK    7  A    between atoms: C_15  and  C_16
REMARK    8  A    between atoms: C_16  and  C_17
REMARK    9  A    between atoms: C_16  and  N_18
REMARK   10  A    between atoms: C_19  and  C_21
REMARK   11  A    between atoms: C_21  and  N_22
REMARK   12  A    between atoms: N_22  and  C_23
REMARK   13  A    between atoms: N_22  and  C_24
REMARK                            x       y       z     vdW  Elec       q    Type
REMARK                         _______ _______ _______ _____ _____    ______ ____
ROOT
ATOM      1  C   UNL     1       1.778   8.488  19.257  0.00  0.00    +0.000 A 
ATOM      2  C   UNL     1       2.022   7.356  20.030  0.00  0.00    +0.000 A 
ATOM      3  C   UNL     1       2.885   6.359  19.563  0.00  0.00    +0.000 A 
ATOM      4  C   UNL     1       3.507   6.491  18.314  0.00  0.00    +0.000 A 
ATOM      5  C   UNL     1       3.249   7.637  17.547  0.00  0.00    +0.000 A 
ATOM      6  C   UNL     1       2.386   8.628  18.013  0.00  0.00    +0.000 A 
ENDROOT
BRANCH   4   7
ATOM      7  C   UNL     1       4.406   5.386  17.794  0.00  0.00    +0.000 C 
ATOM      8  C   UNL     1       4.862   5.669  16.358  0.00  0.00    +0.000 C 
BRANCH   7   9
ATOM      9  N   UNL     1       3.720   4.113  17.897  0.00  0.00    +0.000 N 
ATOM     10  C   UNL     1       4.131   3.111  18.743  0.00  0.00    +0.000 C 
ATOM     11  O   UNL     1       5.026   3.247  19.571  0.00  0.00    +0.000 OA
ATOM     12  H   UNL     1       3.053   3.833  17.185  0.00  0.00    +0.000 HD
BRANCH  10  13
ATOM     13  C   UNL     1       3.331   1.811  18.601  0.00  0.00    +0.000 C 
BRANCH  13  14
ATOM     14  N   UNL     1       2.079   1.829  19.409  0.00  0.00    +0.000 NA
ATOM     15  C   UNL     1       2.258   2.608  20.642  0.00  0.00    +0.000 C 
ATOM     16  C   UNL     1       1.014   2.452  18.608  0.00  0.00    +0.000 C 
ENDBRANCH  13  14
ENDBRANCH  10  13
ENDBRANCH   7   9
ENDBRANCH   4   7
BRANCH   1  17
ATOM     17  O   UNL     1       0.882   9.390  19.769  0.00  0.00    +0.000 OA
BRANCH  17  20
ATOM     18  N   UNL     1      -0.734  12.038  19.651  0.00  0.00    +0.000 N 
ATOM     19  C   UNL     1      -0.979  10.836  18.904  0.00  0.00    +0.000 C 
ATOM     20  C   UNL     1       0.518  10.526  18.943  0.00  0.00    +0.000 C 
ATOM     21  C   UNL     1       0.696  11.921  19.554  0.00  0.00    +0.000 C 
BRANCH  18  25
ATOM     22  C   UNL     1      -2.985  13.257  23.025  0.00  0.00    +0.000 A 
ATOM     23  C   UNL     1      -2.181  12.120  23.091  0.00  0.00    +0.000 A 
ATOM     24  C   UNL     1      -1.416  11.726  21.989  0.00  0.00    +0.000 A 
ATOM     25  C   UNL     1      -1.464  12.448  20.791  0.00  0.00    +0.000 A 
ATOM     26  C   UNL     1      -2.263  13.598  20.747  0.00  0.00    +0.000 A 
ATOM     27  C   UNL     1      -3.035  13.991  21.843  0.00  0.00    +0.000 A 
BRANCH  22  28
ATOM     28  O   UNL     1      -3.676  13.552  24.167  0.00  0.00    +0.000 OA
BRANCH  28  30
ATOM     29  C   UNL     1      -5.866  12.627  24.205  0.00  0.00    +0.000 C 
ATOM     30  C   UNL     1      -4.447  12.485  24.721  0.00  0.00    +0.000 C 
ENDBRANCH  28  30
ENDBRANCH  22  28
ENDBRANCH  18  25
ENDBRANCH  17  20
ENDBRANCH   1  17
TORSDOF 9
ENDMDL
MODEL 5
REMARK VINA RESULT:      -6.8      3.681      6.961
REMARK  Name = 
REMARK  13 active torsions:
REMARK  status: ('A' for Active; 'I' for Inactive)
REMARK    1  A    between atoms: C_1  and  C_2
REMARK    2  A    between atoms: C_2  and  O_3
REMARK    3  A    between atoms: O_3  and  C_4
REMARK    4  A    between atoms: C_7  and  N_8
REMARK    5  A    between atoms: C_10  and  O_11
REMARK    6  A    between atoms: O_11  and  C_12
REMARK    7  A    between atoms: C_15  and  C_16
REMARK    8  A    between atoms: C_16  and  C_17
REMARK    9  A    between atoms: C_16  and  N_18
REMARK   10  A    between atoms: C_19  and  C_21
REMARK   11  A    between atoms: C_21  and  N_22
REMARK   12  A    between atoms: N_22  and  C_23
REMARK   13  A    between atoms: N_22  and  C_24
REMARK                            x       y       z     vdW  Elec       q    Type
REMARK                         _______ _______ _______ _____ _____    ______ ____
ROOT
ATOM      1  C   UNL     1      -0.572  11.135  19.630  0.00  0.00    +0.000 A 
ATOM      2  C   UNL     1      -0.477  10.340  18.491  0.00  0.00    +0.000 A 
ATOM      3  C   UNL     1      -1.540  10.282  17.585  0.00  0.00    +0.000 A 
ATOM      4  C   UNL     1      -2.709  11.020  17.818  0.00  0.00    +0.000 A 
ATOM      5  C   UNL     1      -2.788  11.815  18.971  0.00  0.00    +0.000 A 
ATOM      6  C   UNL     1      -1.729  11.869  19.875  0.00  0.00    +0.000 A 
ENDROOT
BRANCH   4   7
ATOM      7  C   UNL     1      -3.876  10.918  16.855  0.00  0.00    +0.000 C 
ATOM      8  C   UNL     1      -3.400  10.582  15.438  0.00  0.00    +0.000 C 
BRANCH   7   9
ATOM      9  N   UNL     1      -4.639  12.150  16.885  0.00  0.00    +0.000 N 
ATOM     10  C   UNL     1      -5.931  12.216  17.351  0.00  0.00    +0.000 C 
ATOM     11  O   UNL     1      -6.505  11.278  17.895  0.00  0.00    +0.000 OA
ATOM     12  H   UNL     1      -4.328  12.957  16.354  0.00  0.00    +0.000 HD
BRANCH  10  13
ATOM     13  C   UNL     1      -6.584  13.592  17.180  0.00  0.00    +0.000 C 
BRANCH  13  14
ATOM     14  N   UNL     1      -6.991  14.189  18.484  0.00  0.00    +0.000 NA
ATOM     15  C   UNL     1      -5.946  14.000  19.499  0.00  0.00    +0.000 C 
ATOM     16  C   UNL     1      -7.207  15.631  18.292  0.00  0.00    +0.000 C 
ENDBRANCH  13  14
ENDBRANCH  10  13
ENDBRANCH   7   9
ENDBRANCH   4   7
BRANCH   1  17
ATOM     17  O   UNL     1       0.496  11.095  20.488  0.00  0.00    +0.000 OA
BRANCH  17  20
ATOM     18  N   UNL     1       1.061   8.191  21.427  0.00  0.00    +0.000 N 
ATOM     19  C   UNL     1      -0.219   8.826  21.289  0.00  0.00    +0.000 C 
ATOM     20  C   UNL     1       0.432  10.172  21.606  0.00  0.00    +0.000 C 
ATOM     21  C   UNL     1       1.702   9.376  21.930  0.00  0.00    +0.000 C 
BRANCH  18  25
ATOM     22  C   UNL     1       2.644   5.389  18.673  0.00  0.00    +0.000 A 
ATOM     23  C   UNL     1       2.620   6.747  18.357  0.00  0.00    +0.000 A 
ATOM     24  C   UNL     1       2.122   7.679  19.273  0.00  0.00    +0.000 A 
ATOM     25  C   UNL     1       1.612   7.267  20.509  0.00  0.00    +0.000 A 
ATOM     26  C   UNL     1       1.661   5.901  20.818  0.00  0.00    +0.000 A 
ATOM     27  C   UNL     1       2.151   4.965  19.904  0.00  0.00    +0.000 A 
BRANCH  22  28
ATOM     28  O   UNL     1       3.166   4.574  17.709  0.00  0.00    +0.000 OA
BRANCH  28  30
ATOM     29  C   UNL     1       2.751   2.233  17.674  0.00  0.00    +0.000 C 
ATOM     30  C   UNL     1       3.684   3.324  18.164  0.00  0.00    +0.000 C 
ENDBRANCH  28  30
ENDBRANCH  22  28
ENDBRANCH  18  25
ENDBRANCH  17  20
ENDBRANCH   1  17
TORSDOF 9
ENDMDL
MODEL 6
REMARK VINA RESULT:      -6.8      3.112      9.738
REMARK  Name = 
REMARK  13 active torsions:
REMARK  status: ('A' for Active; 'I' for Inactive)
REMARK    1  A    between atoms: C_1  and  C_2
REMARK    2  A    between atoms: C_2  and  O_3
REMARK    3  A    between atoms: O_3  and  C_4
REMARK    4  A    between atoms: C_7  and  N_8
REMARK    5  A    between atoms: C_10  and  O_11
REMARK    6  A    between atoms: O_11  and  C_12
REMARK    7  A    between atoms: C_15  and  C_16
REMARK    8  A    between atoms: C_16  and  C_17
REMARK    9  A    between atoms: C_16  and  N_18
REMARK   10  A    between atoms: C_19  and  C_21
REMARK   11  A    between atoms: C_21  and  N_22
REMARK   12  A    between atoms: N_22  and  C_23
REMARK   13  A    between atoms: N_22  and  C_24
REMARK                            x       y       z     vdW  Elec       q    Type
REMARK                         _______ _______ _______ _____ _____    ______ ____
ROOT
ATOM      1  C   UNL     1       1.774   8.607  19.284  0.00  0.00    +0.000 A 
ATOM      2  C   UNL     1       2.409   8.732  18.051  0.00  0.00    +0.000 A 
ATOM      3  C   UNL     1       3.210   7.694  17.565  0.00  0.00    +0.000 A 
ATOM      4  C   UNL     1       3.383   6.523  18.316  0.00  0.00    +0.000 A 
ATOM      5  C   UNL     1       2.737   6.414  19.556  0.00  0.00    +0.000 A 
ATOM      6  C   UNL     1       1.941   7.451  20.041  0.00  0.00    +0.000 A 
ENDROOT
BRANCH   4   7
ATOM      7  C   UNL     1       4.288   5.420  17.804  0.00  0.00    +0.000 C 
ATOM      8  C   UNL     1       4.720   5.682  16.357  0.00  0.00    +0.000 C 
BRANCH   7   9
ATOM      9  N   UNL     1       3.620   4.141  17.940  0.00  0.00    +0.000 N 
ATOM     10  C   UNL     1       4.081   3.143  18.765  0.00  0.00    +0.000 C 
ATOM     11  O   UNL     1       5.014   3.287  19.549  0.00  0.00    +0.000 OA
ATOM     12  H   UNL     1       2.921   3.855  17.262  0.00  0.00    +0.000 HD
BRANCH  10  13
ATOM     13  C   UNL     1       3.286   1.836  18.663  0.00  0.00    +0.000 C 
BRANCH  13  14
ATOM     14  N   UNL     1       2.052   1.860  19.499  0.00  0.00    +0.000 NA
ATOM     15  C   UNL     1       2.252   2.665  20.711  0.00  0.00    +0.000 C 
ATOM     16  C   UNL     1       0.964   2.456  18.710  0.00  0.00    +0.000 C 
ENDBRANCH  13  14
ENDBRANCH  10  13
ENDBRANCH   7   9
ENDBRANCH   4   7
BRANCH   1  17
ATOM     17  O   UNL     1       1.048   9.690  19.705  0.00  0.00    +0.000 OA
BRANCH  17  20
ATOM     18  N   UNL     1      -1.337  11.627  19.266  0.00  0.00    +0.000 N 
ATOM     19  C   UNL     1      -1.251  10.250  18.868  0.00  0.00    +0.000 C 
ATOM     20  C   UNL     1       0.263  10.405  18.717  0.00  0.00    +0.000 C 
ATOM     21  C   UNL     1       0.039  11.904  18.953  0.00  0.00    +0.000 C 
BRANCH  18  25
ATOM     22  C   UNL     1      -3.419  13.092  22.651  0.00  0.00    +0.000 A 
ATOM     23  C   UNL     1      -3.908  13.332  21.369  0.00  0.00    +0.000 A 
ATOM     24  C   UNL     1      -3.240  12.829  20.248  0.00  0.00    +0.000 A 
ATOM     25  C   UNL     1      -2.052  12.103  20.390  0.00  0.00    +0.000 A 
ATOM     26  C   UNL     1      -1.583  11.855  21.687  0.00  0.00    +0.000 A 
ATOM     27  C   UNL     1      -2.244  12.361  22.809  0.00  0.00    +0.000 A 
BRANCH  22  28
ATOM     28  O   UNL     1      -4.162  13.620  23.669  0.00  0.00    +0.000 OA
BRANCH  28  30
ATOM     29  C   UNL     1      -6.323  12.751  24.149  0.00  0.00    +0.000 C 
ATOM     30  C   UNL     1      -4.848  12.676  24.493  0.00  0.00    +0.000 C 
ENDBRANCH  28  30
ENDBRANCH  22  28
ENDBRANCH  18  25
ENDBRANCH  17  20
ENDBRANCH   1  17
TORSDOF 9
ENDMDL
MODEL 7
REMARK VINA RESULT:      -6.8      3.141     10.270
REMARK  Name = 
REMARK  13 active torsions:
REMARK  status: ('A' for Active; 'I' for Inactive)
REMARK    1  A    between atoms: C_1  and  C_2
REMARK    2  A    between atoms: C_2  and  O_3
REMARK    3  A    between atoms: O_3  and  C_4
REMARK    4  A    between atoms: C_7  and  N_8
REMARK    5  A    between atoms: C_10  and  O_11
REMARK    6  A    between atoms: O_11  and  C_12
REMARK    7  A    between atoms: C_15  and  C_16
REMARK    8  A    between atoms: C_16  and  C_17
REMARK    9  A    between atoms: C_16  and  N_18
REMARK   10  A    between atoms: C_19  and  C_21
REMARK   11  A    between atoms: C_21  and  N_22
REMARK   12  A    between atoms: N_22  and  C_23
REMARK   13  A    between atoms: N_22  and  C_24
REMARK                            x       y       z     vdW  Elec       q    Type
REMARK                         _______ _______ _______ _____ _____    ______ ____
ROOT
ATOM      1  C   UNL     1       0.968   9.477  19.315  0.00  0.00    +0.000 A 
ATOM      2  C   UNL     1       1.607   9.400  18.080  0.00  0.00    +0.000 A 
ATOM      3  C   UNL     1       2.505   8.361  17.818  0.00  0.00    +0.000 A 
ATOM      4  C   UNL     1       2.771   7.393  18.796  0.00  0.00    +0.000 A 
ATOM      5  C   UNL     1       2.120   7.486  20.035  0.00  0.00    +0.000 A 
ATOM      6  C   UNL     1       1.227   8.524  20.295  0.00  0.00    +0.000 A 
ENDROOT
BRANCH   4   7
ATOM      7  C   UNL     1       3.780   6.294  18.521  0.00  0.00    +0.000 C 
ATOM      8  C   UNL     1       4.229   6.305  17.056  0.00  0.00    +0.000 C 
BRANCH   7   9
ATOM      9  N   UNL     1       3.216   5.013  18.899  0.00  0.00    +0.000 N 
ATOM     10  C   UNL     1       3.990   3.936  19.263  0.00  0.00    +0.000 C 
ATOM     11  O   UNL     1       5.205   3.997  19.425  0.00  0.00    +0.000 OA
ATOM     12  H   UNL     1       2.247   4.798  18.687  0.00  0.00    +0.000 HD
BRANCH  10  13
ATOM     13  C   UNL     1       3.191   2.651  19.507  0.00  0.00    +0.000 C 
BRANCH  13  14
ATOM     14  N   UNL     1       1.771   2.930  19.866  0.00  0.00    +0.000 NA
ATOM     15  C   UNL     1       0.851   2.188  18.993  0.00  0.00    +0.000 C 
ATOM     16  C   UNL     1       1.548   2.505  21.256  0.00  0.00    +0.000 C 
ENDBRANCH  13  14
ENDBRANCH  10  13
ENDBRANCH   7   9
ENDBRANCH   4   7
BRANCH   1  17
ATOM     17  O   UNL     1       0.142  10.554  19.504  0.00  0.00    +0.000 OA
BRANCH  17  20
ATOM     18  N   UNL     1      -2.475  11.871  18.477  0.00  0.00    +0.000 N 
ATOM     19  C   UNL     1      -1.964  10.572  18.138  0.00  0.00    +0.000 C 
ATOM     20  C   UNL     1      -0.542  11.095  18.345  0.00  0.00    +0.000 C 
ATOM     21  C   UNL     1      -1.174  12.485  18.491  0.00  0.00    +0.000 C 
BRANCH  18  25
ATOM     22  C   UNL     1      -5.600  12.676  21.220  0.00  0.00    +0.000 A 
ATOM     23  C   UNL     1      -5.893  12.206  19.940  0.00  0.00    +0.000 A 
ATOM     24  C   UNL     1      -4.864  11.914  19.039  0.00  0.00    +0.000 A 
ATOM     25  C   UNL     1      -3.525  12.116  19.392  0.00  0.00    +0.000 A 
ATOM     26  C   UNL     1      -3.248  12.572  20.687  0.00  0.00    +0.000 A 
ATOM     27  C   UNL     1      -4.272  12.871  21.589  0.00  0.00    +0.000 A 
BRANCH  22  28
ATOM     28  O   UNL     1      -6.684  12.913  22.018  0.00  0.00    +0.000 OA
BRANCH  28  30
ATOM     29  C   UNL     1      -7.019  14.320  23.904  0.00  0.00    +0.000 C 
ATOM     30  C   UNL     1      -6.416  13.017  23.416  0.00  0.00    +0.000 C 
ENDBRANCH  28  30
ENDBRANCH  22  28
ENDBRANCH  18  25
ENDBRANCH  17  20
ENDBRANCH   1  17
TORSDOF 9
ENDMDL
MODEL 8
REMARK VINA RESULT:      -6.7      3.090      9.818
REMARK  Name = 
REMARK  13 active torsions:
REMARK  status: ('A' for Active; 'I' for Inactive)
REMARK    1  A    between atoms: C_1  and  C_2
REMARK    2  A    between atoms: C_2  and  O_3
REMARK    3  A    between atoms: O_3  and  C_4
REMARK    4  A    between atoms: C_7  and  N_8
REMARK    5  A    between atoms: C_10  and  O_11
REMARK    6  A    between atoms: O_11  and  C_12
REMARK    7  A    between atoms: C_15  and  C_16
REMARK    8  A    between atoms: C_16  and  C_17
REMARK    9  A    between atoms: C_16  and  N_18
REMARK   10  A    between atoms: C_19  and  C_21
REMARK   11  A    between atoms: C_21  and  N_22
REMARK   12  A    between atoms: N_22  and  C_23
REMARK   13  A    between atoms: N_22  and  C_24
REMARK                            x       y       z     vdW  Elec       q    Type
REMARK                         _______ _______ _______ _____ _____    ______ ____
ROOT
ATOM      1  C   UNL     1       1.678   8.608  19.279  0.00  0.00    +0.000 A 
ATOM      2  C   UNL     1       1.931   7.497  20.081  0.00  0.00    +0.000 A 
ATOM      3  C   UNL     1       2.799   6.495  19.638  0.00  0.00    +0.000 A 
ATOM      4  C   UNL     1       3.417   6.598  18.384  0.00  0.00    +0.000 A 
ATOM      5  C   UNL     1       3.150   7.722  17.589  0.00  0.00    +0.000 A 
ATOM      6  C   UNL     1       2.282   8.719  18.031  0.00  0.00    +0.000 A 
ENDROOT
BRANCH   4   7
ATOM      7  C   UNL     1       4.322   5.486  17.891  0.00  0.00    +0.000 C 
ATOM      8  C   UNL     1       4.824   5.766  16.470  0.00  0.00    +0.000 C 
BRANCH   7   9
ATOM      9  N   UNL     1       3.623   4.219  17.972  0.00  0.00    +0.000 N 
ATOM     10  C   UNL     1       4.079   3.162  18.722  0.00  0.00    +0.000 C 
ATOM     11  O   UNL     1       5.038   3.235  19.485  0.00  0.00    +0.000 OA
ATOM     12  H   UNL     1       2.898   3.992  17.298  0.00  0.00    +0.000 HD
BRANCH  10  13
ATOM     13  C   UNL     1       3.246   1.884  18.567  0.00  0.00    +0.000 C 
BRANCH  13  14
ATOM     14  N   UNL     1       2.048   1.881  19.454  0.00  0.00    +0.000 NA
ATOM     15  C   UNL     1       2.271   2.712  20.644  0.00  0.00    +0.000 C 
ATOM     16  C   UNL     1       0.908   2.429  18.702  0.00  0.00    +0.000 C 
ENDBRANCH  13  14
ENDBRANCH  10  13
ENDBRANCH   7   9
ENDBRANCH   4   7
BRANCH   1  17
ATOM     17  O   UNL     1       0.777   9.517  19.770  0.00  0.00    +0.000 OA
BRANCH  17  20
ATOM     18  N   UNL     1      -1.303  11.794  19.421  0.00  0.00    +0.000 N 
ATOM     19  C   UNL     1      -1.335  10.489  18.823  0.00  0.00    +0.000 C 
ATOM     20  C   UNL     1       0.194  10.463  18.837  0.00  0.00    +0.000 C 
ATOM     21  C   UNL     1       0.122  11.929  19.281  0.00  0.00    +0.000 C 
BRANCH  18  25
ATOM     22  C   UNL     1      -3.562  13.035  22.782  0.00  0.00    +0.000 A 
ATOM     23  C   UNL     1      -4.007  13.323  21.493  0.00  0.00    +0.000 A 
ATOM     24  C   UNL     1      -3.279  12.894  20.379  0.00  0.00    +0.000 A 
ATOM     25  C   UNL     1      -2.076  12.195  20.536  0.00  0.00    +0.000 A 
ATOM     26  C   UNL     1      -1.653  11.898  21.838  0.00  0.00    +0.000 A 
ATOM     27  C   UNL     1      -2.373  12.331  22.954  0.00  0.00    +0.000 A 
BRANCH  22  28
ATOM     28  O   UNL     1      -4.362  13.492  23.792  0.00  0.00    +0.000 OA
BRANCH  28  30
ATOM     29  C   UNL     1      -5.062  15.748  24.062  0.00  0.00    +0.000 C 
ATOM     30  C   UNL     1      -5.381  14.416  23.409  0.00  0.00    +0.000 C 
ENDBRANCH  28  30
ENDBRANCH  22  28
ENDBRANCH  18  25
ENDBRANCH  17  20
ENDBRANCH   1  17
TORSDOF 9
ENDMDL
MODEL 9
REMARK VINA RESULT:      -6.7      2.563     10.165
REMARK  Name = 
REMARK  13 active torsions:
REMARK  status: ('A' for Active; 'I' for Inactive)
REMARK    1  A    between atoms: C_1  and  C_2
REMARK    2  A    between atoms: C_2  and  O_3
REMARK    3  A    between atoms: O_3  and  C_4
REMARK    4  A    between atoms: C_7  and  N_8
REMARK    5  A    between atoms: C_10  and  O_11
REMARK    6  A    between atoms: O_11  and  C_12
REMARK    7  A    between atoms: C_15  and  C_16
REMARK    8  A    between atoms: C_16  and  C_17
REMARK    9  A    between atoms: C_16  and  N_18
REMARK   10  A    between atoms: C_19  and  C_21
REMARK   11  A    between atoms: C_21  and  N_22
REMARK   12  A    between atoms: N_22  and  C_23
REMARK   13  A    between atoms: N_22  and  C_24
REMARK                            x       y       z     vdW  Elec       q    Type
REMARK                         _______ _______ _______ _____ _____    ______ ____
ROOT
ATOM      1  C   UNL     1       1.170   9.685  19.621  0.00  0.00    +0.000 A 
ATOM      2  C   UNL     1       1.754   9.160  18.471  0.00  0.00    +0.000 A 
ATOM      3  C   UNL     1       2.204   7.836  18.454  0.00  0.00    +0.000 A 
ATOM      4  C   UNL     1       2.073   7.030  19.593  0.00  0.00    +0.000 A 
ATOM      5  C   UNL     1       1.484   7.576  20.743  0.00  0.00    +0.000 A 
ATOM      6  C   UNL     1       1.039   8.897  20.760  0.00  0.00    +0.000 A 
ENDROOT
BRANCH   4   7
ATOM      7  C   UNL     1       2.603   5.610  19.583  0.00  0.00    +0.000 C 
ATOM      8  C   UNL     1       2.254   4.876  20.883  0.00  0.00    +0.000 C 
BRANCH   7   9
ATOM      9  N   UNL     1       4.032   5.627  19.346  0.00  0.00    +0.000 N 
ATOM     10  C   UNL     1       4.684   4.640  18.644  0.00  0.00    +0.000 C 
ATOM     11  O   UNL     1       4.105   3.734  18.052  0.00  0.00    +0.000 OA
ATOM     12  H   UNL     1       4.633   6.245  19.882  0.00  0.00    +0.000 HD
BRANCH  10  13
ATOM     13  C   UNL     1       6.208   4.800  18.616  0.00  0.00    +0.000 C 
BRANCH  13  14
ATOM     14  N   UNL     1       6.636   5.982  17.816  0.00  0.00    +0.000 NA
ATOM     15  C   UNL     1       7.817   6.622  18.412  0.00  0.00    +0.000 C 
ATOM     16  C   UNL     1       6.979   5.530  16.459  0.00  0.00    +0.000 C 
ENDBRANCH  13  14
ENDBRANCH  10  13
ENDBRANCH   7   9
ENDBRANCH   4   7
BRANCH   1  17
ATOM     17  O   UNL     1       0.803  11.005  19.566  0.00  0.00    +0.000 OA
BRANCH  17  20
ATOM     18  N   UNL     1      -2.070  12.102  19.145  0.00  0.00    +0.000 N 
ATOM     19  C   UNL     1      -1.581  10.795  18.807  0.00  0.00    +0.000 C 
ATOM     20  C   UNL     1      -0.191  11.391  18.582  0.00  0.00    +0.000 C 
ATOM     21  C   UNL     1      -0.853  12.763  18.758  0.00  0.00    +0.000 C 
BRANCH  18  25
ATOM     22  C   UNL     1      -4.485  12.944  22.521  0.00  0.00    +0.000 A 
ATOM     23  C   UNL     1      -3.122  12.700  22.677  0.00  0.00    +0.000 A 
ATOM     24  C   UNL     1      -2.314  12.446  21.564  0.00  0.00    +0.000 A 
ATOM     25  C   UNL     1      -2.863  12.403  20.277  0.00  0.00    +0.000 A 
ATOM     26  C   UNL     1      -4.231  12.669  20.136  0.00  0.00    +0.000 A 
ATOM     27  C   UNL     1      -5.043  12.916  21.246  0.00  0.00    +0.000 A 
BRANCH  22  28
ATOM     28  O   UNL     1      -5.170  13.194  23.677  0.00  0.00    +0.000 OA
BRANCH  28  30
ATOM     29  C   UNL     1      -6.556  15.121  23.810  0.00  0.00    +0.000 C 
ATOM     30  C   UNL     1      -6.520  13.633  23.517  0.00  0.00    +0.000 C 
ENDBRANCH  28  30
ENDBRANCH  22  28
ENDBRANCH  18  25
ENDBRANCH  17  20
ENDBRANCH   1  17
TORSDOF 9
ENDMDL
