MODEL 1
REMARK VINA RESULT:      -7.2      0.000      0.000
REMARK  Name = 
REMARK  10 active torsions:
REMARK  status: ('A' for Active; 'I' for Inactive)
REMARK    1  A    between atoms: C_1  and  C_2
REMARK    2  A    between atoms: C_2  and  C_3
REMARK    3  A    between atoms: C_3  and  C_4
REMARK    4  A    between atoms: C_4  and  C_6
REMARK    5  A    between atoms: C_8  and  C_9
REMARK    6  A    between atoms: C_9  and  C_10
REMARK    7  A    between atoms: C_9  and  C_11
REMARK    8  A    between atoms: C_9  and  C_12
REMARK    9  A    between atoms: C_16  and  C_17
REMARK   10  A    between atoms: C_16  and  C_18
REMARK                            x       y       z     vdW  Elec       q    Type
REMARK                         _______ _______ _______ _____ _____    ______ ____
ROOT
ATOM      1  C   UNL     1       2.426   6.780  19.411  0.00  0.00    +0.000 A 
ATOM      2  C   UNL     1       3.544   6.739  18.565  0.00  0.00    +0.000 A 
ATOM      3  C   UNL     1       4.173   5.529  18.161  0.00  0.00    +0.000 A 
ATOM      4  C   UNL     1       3.581   4.338  18.633  0.00  0.00    +0.000 A 
ATOM      5  C   UNL     1       2.458   4.362  19.476  0.00  0.00    +0.000 A 
ATOM      6  C   UNL     1       1.886   5.577  19.864  0.00  0.00    +0.000 A 
ATOM      7  C   UNL     1       1.921   3.022  19.952  0.00  0.00    +0.000 C 
ATOM      8  C   UNL     1       2.019   2.939  21.486  0.00  0.00    +0.000 C 
ATOM      9  C   UNL     1       0.459   2.843  19.509  0.00  0.00    +0.000 C 
ATOM     10  C   UNL     1       2.781   1.908  19.318  0.00  0.00    +0.000 C 
ATOM     11  S   UNL     1       4.082   2.663  18.317  0.00  0.00    +0.000 S 
ENDROOT
BRANCH   3  12
ATOM     12  C   UNL     1       5.438   5.579  17.266  0.00  0.00    +0.000 C 
ATOM     13  C   UNL     1       6.645   4.804  17.869  0.00  0.00    +0.000 C 
ATOM     14  C   UNL     1       5.175   4.927  15.892  0.00  0.00    +0.000 C 
ATOM     15  C   UNL     1       5.941   7.024  17.067  0.00  0.00    +0.000 C 
ENDBRANCH   3  12
BRANCH   1  16
ATOM     16  C   UNL     1       1.785   8.052  19.875  0.00  0.00    +0.000 C 
ATOM     17  O   UNL     1       1.627   8.965  19.068  0.00  0.00    +0.000 OA
BRANCH  16  18
ATOM     18  C   UNL     1       1.382   8.200  21.331  0.00  0.00    +0.000 C 
BRANCH  18  20
ATOM     19  C   UNL     1      -0.255   9.398  22.818  0.00  0.00    +0.000 C 
ATOM     20  C   UNL     1      -0.047   8.723  21.471  0.00  0.00    +0.000 C 
ENDBRANCH  18  20
ENDBRANCH  16  18
ENDBRANCH   1  16
TORSDOF 4
ENDMDL
MODEL 2
REMARK VINA RESULT:      -7.2      1.518      1.861
REMARK  Name = 
REMARK  10 active torsions:
REMARK  status: ('A' for Active; 'I' for Inactive)
REMARK    1  A    between atoms: C_1  and  C_2
REMARK    2  A    between atoms: C_2  and  C_3
REMARK    3  A    between atoms: C_3  and  C_4
REMARK    4  A    between atoms: C_4  and  C_6
REMARK    5  A    between atoms: C_8  and  C_9
REMARK    6  A    between atoms: C_9  and  C_10
REMARK    7  A    between atoms: C_9  and  C_11
REMARK    8  A    between atoms: C_9  and  C_12
REMARK    9  A    between atoms: C_16  and  C_17
REMARK   10  A    between atoms: C_16  and  C_18
REMARK                            x       y       z     vdW  Elec       q    Type
REMARK                         _______ _______ _______ _____ _____    ______ ____
ROOT
ATOM      1  C   UNL     1       2.575   6.743  18.716  0.00  0.00    +0.000 A 
ATOM      2  C   UNL     1       3.598   6.587  17.767  0.00  0.00    +0.000 A 
ATOM      3  C   UNL     1       4.170   5.328  17.439  0.00  0.00    +0.000 A 
ATOM      4  C   UNL     1       3.622   4.208  18.101  0.00  0.00    +0.000 A 
ATOM      5  C   UNL     1       2.594   4.348  19.048  0.00  0.00    +0.000 A 
ATOM      6  C   UNL     1       2.077   5.610  19.355  0.00  0.00    +0.000 A 
ATOM      7  C   UNL     1       2.100   3.079  19.724  0.00  0.00    +0.000 C 
ATOM      8  C   UNL     1       2.359   3.166  21.240  0.00  0.00    +0.000 C 
ATOM      9  C   UNL     1       0.597   2.882  19.459  0.00  0.00    +0.000 C 
ATOM     10  C   UNL     1       2.879   1.885  19.134  0.00  0.00    +0.000 C 
ATOM     11  S   UNL     1       4.073   2.499  17.925  0.00  0.00    +0.000 S 
ENDROOT
BRANCH   3  12
ATOM     12  C   UNL     1       5.334   5.253  16.417  0.00  0.00    +0.000 C 
ATOM     13  C   UNL     1       5.136   4.141  15.346  0.00  0.00    +0.000 C 
ATOM     14  C   UNL     1       5.466   6.570  15.625  0.00  0.00    +0.000 C 
ATOM     15  C   UNL     1       6.676   4.922  17.103  0.00  0.00    +0.000 C 
ENDBRANCH   3  12
BRANCH   1  16
ATOM     16  C   UNL     1       1.997   8.072  19.098  0.00  0.00    +0.000 C 
ATOM     17  O   UNL     1       1.679   8.266  20.269  0.00  0.00    +0.000 OA
BRANCH  16  18
ATOM     18  C   UNL     1       1.782   9.129  18.031  0.00  0.00    +0.000 C 
BRANCH  18  20
ATOM     19  C   UNL     1      -0.491  10.191  18.213  0.00  0.00    +0.000 C 
ATOM     20  C   UNL     1       0.983  10.317  18.566  0.00  0.00    +0.000 C 
ENDBRANCH  18  20
ENDBRANCH  16  18
ENDBRANCH   1  16
TORSDOF 4
ENDMDL
MODEL 3
REMARK VINA RESULT:      -7.1      1.501      4.290
REMARK  Name = 
REMARK  10 active torsions:
REMARK  status: ('A' for Active; 'I' for Inactive)
REMARK    1  A    between atoms: C_1  and  C_2
REMARK    2  A    between atoms: C_2  and  C_3
REMARK    3  A    between atoms: C_3  and  C_4
REMARK    4  A    between atoms: C_4  and  C_6
REMARK    5  A    between atoms: C_8  and  C_9
REMARK    6  A    between atoms: C_9  and  C_10
REMARK    7  A    between atoms: C_9  and  C_11
REMARK    8  A    between atoms: C_9  and  C_12
REMARK    9  A    between atoms: C_16  and  C_17
REMARK   10  A    between atoms: C_16  and  C_18
REMARK                            x       y       z     vdW  Elec       q    Type
REMARK                         _______ _______ _______ _____ _____    ______ ____
ROOT
ATOM      1  C   UNL     1       2.578   7.420  18.311  0.00  0.00    +0.000 A 
ATOM      2  C   UNL     1       2.067   6.275  18.941  0.00  0.00    +0.000 A 
ATOM      3  C   UNL     1       2.677   4.994  18.842  0.00  0.00    +0.000 A 
ATOM      4  C   UNL     1       3.871   4.934  18.092  0.00  0.00    +0.000 A 
ATOM      5  C   UNL     1       4.398   6.073  17.461  0.00  0.00    +0.000 A 
ATOM      6  C   UNL     1       3.752   7.308  17.569  0.00  0.00    +0.000 A 
ATOM      7  C   UNL     1       5.672   5.889  16.653  0.00  0.00    +0.000 C 
ATOM      8  C   UNL     1       5.403   6.233  15.176  0.00  0.00    +0.000 C 
ATOM      9  C   UNL     1       6.791   6.788  17.205  0.00  0.00    +0.000 C 
ATOM     10  C   UNL     1       6.105   4.412  16.769  0.00  0.00    +0.000 C 
ATOM     11  S   UNL     1       4.900   3.520  17.777  0.00  0.00    +0.000 S 
ENDROOT
BRANCH   3  12
ATOM     12  C   UNL     1       2.015   3.770  19.527  0.00  0.00    +0.000 C 
ATOM     13  C   UNL     1       0.807   4.154  20.429  0.00  0.00    +0.000 C 
ATOM     14  C   UNL     1       1.452   2.783  18.483  0.00  0.00    +0.000 C 
ATOM     15  C   UNL     1       3.001   3.034  20.458  0.00  0.00    +0.000 C 
ENDBRANCH   3  12
BRANCH   1  16
ATOM     16  C   UNL     1       1.918   8.764  18.376  0.00  0.00    +0.000 C 
ATOM     17  O   UNL     1       2.079   9.549  17.445  0.00  0.00    +0.000 OA
BRANCH  16  18
ATOM     18  C   UNL     1       1.101   9.139  19.599  0.00  0.00    +0.000 C 
BRANCH  18  20
ATOM     19  C   UNL     1      -1.025  10.341  19.000  0.00  0.00    +0.000 C 
ATOM     20  C   UNL     1       0.424  10.498  19.431  0.00  0.00    +0.000 C 
ENDBRANCH  18  20
ENDBRANCH  16  18
ENDBRANCH   1  16
TORSDOF 4
ENDMDL
MODEL 4
REMARK VINA RESULT:      -7.1      1.502      1.929
REMARK  Name = 
REMARK  10 active torsions:
REMARK  status: ('A' for Active; 'I' for Inactive)
REMARK    1  A    between atoms: C_1  and  C_2
REMARK    2  A    between atoms: C_2  and  C_3
REMARK    3  A    between atoms: C_3  and  C_4
REMARK    4  A    between atoms: C_4  and  C_6
REMARK    5  A    between atoms: C_8  and  C_9
REMARK    6  A    between atoms: C_9  and  C_10
REMARK    7  A    between atoms: C_9  and  C_11
REMARK    8  A    between atoms: C_9  and  C_12
REMARK    9  A    between atoms: C_16  and  C_17
REMARK   10  A    between atoms: C_16  and  C_18
REMARK                            x       y       z     vdW  Elec       q    Type
REMARK                         _______ _______ _______ _____ _____    ______ ____
ROOT
ATOM      1  C   UNL     1       2.594   6.689  18.717  0.00  0.00    +0.000 A 
ATOM      2  C   UNL     1       3.688   6.529  17.853  0.00  0.00    +0.000 A 
ATOM      3  C   UNL     1       4.260   5.264  17.545  0.00  0.00    +0.000 A 
ATOM      4  C   UNL     1       3.637   4.144  18.136  0.00  0.00    +0.000 A 
ATOM      5  C   UNL     1       2.538   4.287  18.999  0.00  0.00    +0.000 A 
ATOM      6  C   UNL     1       2.022   5.554  19.289  0.00  0.00    +0.000 A 
ATOM      7  C   UNL     1       1.964   3.017  19.605  0.00  0.00    +0.000 C 
ATOM      8  C   UNL     1       2.099   3.067  21.138  0.00  0.00    +0.000 C 
ATOM      9  C   UNL     1       0.485   2.858  19.214  0.00  0.00    +0.000 C 
ATOM     10  C   UNL     1       2.765   1.818  19.054  0.00  0.00    +0.000 C 
ATOM     11  S   UNL     1       4.066   2.429  17.960  0.00  0.00    +0.000 S 
ENDROOT
BRANCH   3  12
ATOM     12  C   UNL     1       5.502   5.184  16.620  0.00  0.00    +0.000 C 
ATOM     13  C   UNL     1       5.933   6.568  16.055  0.00  0.00    +0.000 C 
ATOM     14  C   UNL     1       6.732   4.648  17.383  0.00  0.00    +0.000 C 
ATOM     15  C   UNL     1       5.236   4.304  15.381  0.00  0.00    +0.000 C 
ENDBRANCH   3  12
BRANCH   1  16
ATOM     16  C   UNL     1       2.013   8.022  19.079  0.00  0.00    +0.000 C 
ATOM     17  O   UNL     1       1.730   8.246  20.254  0.00  0.00    +0.000 OA
BRANCH  16  18
ATOM     18  C   UNL     1       1.753   9.046  17.990  0.00  0.00    +0.000 C 
BRANCH  18  20
ATOM     19  C   UNL     1      -0.471  10.194  18.239  0.00  0.00    +0.000 C 
ATOM     20  C   UNL     1       1.019  10.272  18.531  0.00  0.00    +0.000 C 
ENDBRANCH  18  20
ENDBRANCH  16  18
ENDBRANCH   1  16
TORSDOF 4
ENDMDL
MODEL 5
REMARK VINA RESULT:      -7.1      1.603      4.400
REMARK  Name = 
REMARK  10 active torsions:
REMARK  status: ('A' for Active; 'I' for Inactive)
REMARK    1  A    between atoms: C_1  and  C_2
REMARK    2  A    between atoms: C_2  and  C_3
REMARK    3  A    between atoms: C_3  and  C_4
REMARK    4  A    between atoms: C_4  and  C_6
REMARK    5  A    between atoms: C_8  and  C_9
REMARK    6  A    between atoms: C_9  and  C_10
REMARK    7  A    between atoms: C_9  and  C_11
REMARK    8  A    between atoms: C_9  and  C_12
REMARK    9  A    between atoms: C_16  and  C_17
REMARK   10  A    between atoms: C_16  and  C_18
REMARK                            x       y       z     vdW  Elec       q    Type
REMARK                         _______ _______ _______ _____ _____    ______ ____
ROOT
ATOM      1  C   UNL     1       2.467   7.193  18.789  0.00  0.00    +0.000 A 
ATOM      2  C   UNL     1       2.061   5.938  19.266  0.00  0.00    +0.000 A 
ATOM      3  C   UNL     1       2.715   4.724  18.919  0.00  0.00    +0.000 A 
ATOM      4  C   UNL     1       3.844   4.847  18.082  0.00  0.00    +0.000 A 
ATOM      5  C   UNL     1       4.266   6.098  17.601  0.00  0.00    +0.000 A 
ATOM      6  C   UNL     1       3.579   7.263  17.952  0.00  0.00    +0.000 A 
ATOM      7  C   UNL     1       5.475   6.112  16.680  0.00  0.00    +0.000 C 
ATOM      8  C   UNL     1       5.069   6.664  15.300  0.00  0.00    +0.000 C 
ATOM      9  C   UNL     1       6.596   6.977  17.281  0.00  0.00    +0.000 C 
ATOM     10  C   UNL     1       5.981   4.662  16.527  0.00  0.00    +0.000 C 
ATOM     11  S   UNL     1       4.904   3.559  17.470  0.00  0.00    +0.000 S 
ENDROOT
BRANCH   3  12
ATOM     12  C   UNL     1       2.167   3.373  19.450  0.00  0.00    +0.000 C 
ATOM     13  C   UNL     1       1.792   2.378  18.315  0.00  0.00    +0.000 C 
ATOM     14  C   UNL     1       3.220   2.643  20.309  0.00  0.00    +0.000 C 
ATOM     15  C   UNL     1       0.872   3.564  20.268  0.00  0.00    +0.000 C 
ENDBRANCH   3  12
BRANCH   1  16
ATOM     16  C   UNL     1       1.757   8.472  19.115  0.00  0.00    +0.000 C 
ATOM     17  O   UNL     1       1.448   8.697  20.283  0.00  0.00    +0.000 OA
BRANCH  16  18
ATOM     18  C   UNL     1       1.402   9.437  18.000  0.00  0.00    +0.000 C 
BRANCH  18  20
ATOM     19  C   UNL     1      -1.009  10.153  17.987  0.00  0.00    +0.000 C 
ATOM     20  C   UNL     1       0.395  10.490  18.462  0.00  0.00    +0.000 C 
ENDBRANCH  18  20
ENDBRANCH  16  18
ENDBRANCH   1  16
TORSDOF 4
ENDMDL
MODEL 6
REMARK VINA RESULT:      -7.1      1.626      2.079
REMARK  Name = 
REMARK  10 active torsions:
REMARK  status: ('A' for Active; 'I' for Inactive)
REMARK    1  A    between atoms: C_1  and  C_2
REMARK    2  A    between atoms: C_2  and  C_3
REMARK    3  A    between atoms: C_3  and  C_4
REMARK    4  A    between atoms: C_4  and  C_6
REMARK    5  A    between atoms: C_8  and  C_9
REMARK    6  A    between atoms: C_9  and  C_10
REMARK    7  A    between atoms: C_9  and  C_11
REMARK    8  A    between atoms: C_9  and  C_12
REMARK    9  A    between atoms: C_16  and  C_17
REMARK   10  A    between atoms: C_16  and  C_18
REMARK                            x       y       z     vdW  Elec       q    Type
REMARK                         _______ _______ _______ _____ _____    ______ ____
ROOT
ATOM      1  C   UNL     1       2.917   7.228  18.274  0.00  0.00    +0.000 A 
ATOM      2  C   UNL     1       4.288   7.072  18.017  0.00  0.00    +0.000 A 
ATOM      3  C   UNL     1       4.989   5.855  18.241  0.00  0.00    +0.000 A 
ATOM      4  C   UNL     1       4.214   4.773  18.711  0.00  0.00    +0.000 A 
ATOM      5  C   UNL     1       2.840   4.913  18.967  0.00  0.00    +0.000 A 
ATOM      6  C   UNL     1       2.197   6.135  18.752  0.00  0.00    +0.000 A 
ATOM      7  C   UNL     1       2.109   3.692  19.501  0.00  0.00    +0.000 C 
ATOM      8  C   UNL     1       1.541   3.999  20.900  0.00  0.00    +0.000 C 
ATOM      9  C   UNL     1       0.969   3.291  18.549  0.00  0.00    +0.000 C 
ATOM     10  C   UNL     1       3.120   2.530  19.598  0.00  0.00    +0.000 C 
ATOM     11  S   UNL     1       4.747   3.118  19.078  0.00  0.00    +0.000 S 
ENDROOT
BRANCH   3  12
ATOM     12  C   UNL     1       6.516   5.785  17.979  0.00  0.00    +0.000 C 
ATOM     13  C   UNL     1       7.089   7.090  17.354  0.00  0.00    +0.000 C 
ATOM     14  C   UNL     1       7.298   5.580  19.294  0.00  0.00    +0.000 C 
ATOM     15  C   UNL     1       6.874   4.665  16.981  0.00  0.00    +0.000 C 
ENDBRANCH   3  12
BRANCH   1  16
ATOM     16  C   UNL     1       2.181   8.519  18.081  0.00  0.00    +0.000 C 
ATOM     17  O   UNL     1       2.344   9.144  17.035  0.00  0.00    +0.000 OA
BRANCH  16  18
ATOM     18  C   UNL     1       1.287   9.044  19.189  0.00  0.00    +0.000 C 
BRANCH  18  20
ATOM     19  C   UNL     1      -0.777  10.273  18.444  0.00  0.00    +0.000 C 
ATOM     20  C   UNL     1       0.687  10.404  18.833  0.00  0.00    +0.000 C 
ENDBRANCH  18  20
ENDBRANCH  16  18
ENDBRANCH   1  16
TORSDOF 4
ENDMDL
MODEL 7
REMARK VINA RESULT:      -7.0      1.496      4.272
REMARK  Name = 
REMARK  10 active torsions:
REMARK  status: ('A' for Active; 'I' for Inactive)
REMARK    1  A    between atoms: C_1  and  C_2
REMARK    2  A    between atoms: C_2  and  C_3
REMARK    3  A    between atoms: C_3  and  C_4
REMARK    4  A    between atoms: C_4  and  C_6
REMARK    5  A    between atoms: C_8  and  C_9
REMARK    6  A    between atoms: C_9  and  C_10
REMARK    7  A    between atoms: C_9  and  C_11
REMARK    8  A    between atoms: C_9  and  C_12
REMARK    9  A    between atoms: C_16  and  C_17
REMARK   10  A    between atoms: C_16  and  C_18
REMARK                            x       y       z     vdW  Elec       q    Type
REMARK                         _______ _______ _______ _____ _____    ______ ____
ROOT
ATOM      1  C   UNL     1       2.559   7.447  18.318  0.00  0.00    +0.000 A 
ATOM      2  C   UNL     1       2.042   6.303  18.944  0.00  0.00    +0.000 A 
ATOM      3  C   UNL     1       2.647   5.020  18.845  0.00  0.00    +0.000 A 
ATOM      4  C   UNL     1       3.843   4.956  18.099  0.00  0.00    +0.000 A 
ATOM      5  C   UNL     1       4.376   6.095  17.472  0.00  0.00    +0.000 A 
ATOM      6  C   UNL     1       3.735   7.332  17.580  0.00  0.00    +0.000 A 
ATOM      7  C   UNL     1       5.652   5.907  16.667  0.00  0.00    +0.000 C 
ATOM      8  C   UNL     1       5.389   6.254  15.190  0.00  0.00    +0.000 C 
ATOM      9  C   UNL     1       6.773   6.801  17.224  0.00  0.00    +0.000 C 
ATOM     10  C   UNL     1       6.079   4.428  16.782  0.00  0.00    +0.000 C 
ATOM     11  S   UNL     1       4.868   3.539  17.785  0.00  0.00    +0.000 S 
ENDROOT
BRANCH   3  12
ATOM     12  C   UNL     1       1.978   3.797  19.526  0.00  0.00    +0.000 C 
ATOM     13  C   UNL     1       2.957   2.987  20.423  0.00  0.00    +0.000 C 
ATOM     14  C   UNL     1       0.831   4.237  20.459  0.00  0.00    +0.000 C 
ATOM     15  C   UNL     1       1.445   2.786  18.489  0.00  0.00    +0.000 C 
ENDBRANCH   3  12
BRANCH   1  16
ATOM     16  C   UNL     1       1.903   8.793  18.383  0.00  0.00    +0.000 C 
ATOM     17  O   UNL     1       2.034   9.562  17.434  0.00  0.00    +0.000 OA
BRANCH  16  18
ATOM     18  C   UNL     1       1.131   9.190  19.627  0.00  0.00    +0.000 C 
BRANCH  18  20
ATOM     19  C   UNL     1       0.043  11.444  19.874  0.00  0.00    +0.000 C 
ATOM     20  C   UNL     1      -0.087  10.048  19.286  0.00  0.00    +0.000 C 
ENDBRANCH  18  20
ENDBRANCH  16  18
ENDBRANCH   1  16
TORSDOF 4
ENDMDL
MODEL 8
REMARK VINA RESULT:      -6.9      1.407      1.519
REMARK  Name = 
REMARK  10 active torsions:
REMARK  status: ('A' for Active; 'I' for Inactive)
REMARK    1  A    between atoms: C_1  and  C_2
REMARK    2  A    between atoms: C_2  and  C_3
REMARK    3  A    between atoms: C_3  and  C_4
REMARK    4  A    between atoms: C_4  and  C_6
REMARK    5  A    between atoms: C_8  and  C_9
REMARK    6  A    between atoms: C_9  and  C_10
REMARK    7  A    between atoms: C_9  and  C_11
REMARK    8  A    between atoms: C_9  and  C_12
REMARK    9  A    between atoms: C_16  and  C_17
REMARK   10  A    between atoms: C_16  and  C_18
REMARK                            x       y       z     vdW  Elec       q    Type
REMARK                         _______ _______ _______ _____ _____    ______ ____
ROOT
ATOM      1  C   UNL     1       2.795   7.235  18.330  0.00  0.00    +0.000 A 
ATOM      2  C   UNL     1       4.055   7.037  17.745  0.00  0.00    +0.000 A 
ATOM      3  C   UNL     1       4.773   5.813  17.838  0.00  0.00    +0.000 A 
ATOM      4  C   UNL     1       4.126   4.768  18.532  0.00  0.00    +0.000 A 
ATOM      5  C   UNL     1       2.862   4.949  19.117  0.00  0.00    +0.000 A 
ATOM      6  C   UNL     1       2.203   6.178  19.018  0.00  0.00    +0.000 A 
ATOM      7  C   UNL     1       2.272   3.767  19.868  0.00  0.00    +0.000 C 
ATOM      8  C   UNL     1       2.076   4.139  21.350  0.00  0.00    +0.000 C 
ATOM      9  C   UNL     1       0.924   3.358  19.248  0.00  0.00    +0.000 C 
ATOM     10  C   UNL     1       3.259   2.586  19.758  0.00  0.00    +0.000 C 
ATOM     11  S   UNL     1       4.711   3.115  18.823  0.00  0.00    +0.000 S 
ENDROOT
BRANCH   3  12
ATOM     12  C   UNL     1       6.185   5.697  17.206  0.00  0.00    +0.000 C 
ATOM     13  C   UNL     1       7.180   4.879  18.079  0.00  0.00    +0.000 C 
ATOM     14  C   UNL     1       6.130   4.966  15.849  0.00  0.00    +0.000 C 
ATOM     15  C   UNL     1       6.845   7.080  17.025  0.00  0.00    +0.000 C 
ENDBRANCH   3  12
BRANCH   1  16
ATOM     16  C   UNL     1       2.052   8.535  18.273  0.00  0.00    +0.000 C 
ATOM     17  O   UNL     1       2.127   9.217  17.253  0.00  0.00    +0.000 OA
BRANCH  16  18
ATOM     18  C   UNL     1       1.259   8.998  19.481  0.00  0.00    +0.000 C 
BRANCH  18  20
ATOM     19  C   UNL     1      -0.845  10.325  19.107  0.00  0.00    +0.000 C 
ATOM     20  C   UNL     1       0.666  10.390  19.268  0.00  0.00    +0.000 C 
ENDBRANCH  18  20
ENDBRANCH  16  18
ENDBRANCH   1  16
TORSDOF 4
ENDMDL
MODEL 9
REMARK VINA RESULT:      -6.9      0.869      4.050
REMARK  Name = 
REMARK  10 active torsions:
REMARK  status: ('A' for Active; 'I' for Inactive)
REMARK    1  A    between atoms: C_1  and  C_2
REMARK    2  A    between atoms: C_2  and  C_3
REMARK    3  A    between atoms: C_3  and  C_4
REMARK    4  A    between atoms: C_4  and  C_6
REMARK    5  A    between atoms: C_8  and  C_9
REMARK    6  A    between atoms: C_9  and  C_10
REMARK    7  A    between atoms: C_9  and  C_11
REMARK    8  A    between atoms: C_9  and  C_12
REMARK    9  A    between atoms: C_16  and  C_17
REMARK   10  A    between atoms: C_16  and  C_18
REMARK                            x       y       z     vdW  Elec       q    Type
REMARK                         _______ _______ _______ _____ _____    ______ ____
ROOT
ATOM      1  C   UNL     1       2.440   7.069  19.209  0.00  0.00    +0.000 A 
ATOM      2  C   UNL     1       2.086   5.767  19.597  0.00  0.00    +0.000 A 
ATOM      3  C   UNL     1       2.719   4.602  19.083  0.00  0.00    +0.000 A 
ATOM      4  C   UNL     1       3.771   4.822  18.169  0.00  0.00    +0.000 A 
ATOM      5  C   UNL     1       4.140   6.119  17.775  0.00  0.00    +0.000 A 
ATOM      6  C   UNL     1       3.475   7.235  18.291  0.00  0.00    +0.000 A 
ATOM      7  C   UNL     1       5.266   6.240  16.761  0.00  0.00    +0.000 C 
ATOM      8  C   UNL     1       4.738   6.912  15.479  0.00  0.00    +0.000 C 
ATOM      9  C   UNL     1       6.427   7.062  17.345  0.00  0.00    +0.000 C 
ATOM     10  C   UNL     1       5.768   4.818  16.429  0.00  0.00    +0.000 C 
ATOM     11  S   UNL     1       4.785   3.614  17.350  0.00  0.00    +0.000 S 
ENDROOT
BRANCH   3  12
ATOM     12  C   UNL     1       2.229   3.199  19.528  0.00  0.00    +0.000 C 
ATOM     13  C   UNL     1       3.332   2.366  20.243  0.00  0.00    +0.000 C 
ATOM     14  C   UNL     1       1.072   3.309  20.542  0.00  0.00    +0.000 C 
ATOM     15  C   UNL     1       1.786   2.341  18.325  0.00  0.00    +0.000 C 
ENDBRANCH   3  12
BRANCH   1  16
ATOM     16  C   UNL     1       1.749   8.299  19.714  0.00  0.00    +0.000 C 
ATOM     17  O   UNL     1       1.514   9.212  18.926  0.00  0.00    +0.000 OA
BRANCH  16  18
ATOM     18  C   UNL     1       1.393   8.407  21.185  0.00  0.00    +0.000 C 
BRANCH  18  20
ATOM     19  C   UNL     1      -0.304   9.372  22.770  0.00  0.00    +0.000 C 
ATOM     20  C   UNL     1      -0.072   8.793  21.384  0.00  0.00    +0.000 C 
ENDBRANCH  18  20
ENDBRANCH  16  18
ENDBRANCH   1  16
TORSDOF 4
ENDMDL
