MODEL 1
REMARK VINA RESULT:      -7.6      0.000      0.000
REMARK  Name = 
REMARK  7 active torsions:
REMARK  status: ('A' for Active; 'I' for Inactive)
REMARK    1  A    between atoms: C_1  and  O_2
REMARK    2  A    between atoms: O_2  and  C_3
REMARK    3  A    between atoms: C_4  and  C_5
REMARK    4  A    between atoms: C_10  and  C_12
REMARK    5  A    between atoms: C_16  and  C_17
REMARK    6  A    between atoms: C_19  and  C_20
REMARK    7  A    between atoms: N_22  and  C_23
REMARK                            x       y       z     vdW  Elec       q    Type
REMARK                         _______ _______ _______ _____ _____    ______ ____
ROOT
ATOM      1  C   UNL     1       5.556   4.612  18.334  0.00  0.00    +0.000 C 
ATOM      2  C   UNL     1       6.417   5.514  19.220  0.00  0.00    +0.000 C 
ATOM      3  C   UNL     1       7.693   5.671  18.409  0.00  0.00    +0.000 C 
ATOM      4  C   UNL     1       7.241   5.585  16.954  0.00  0.00    +0.000 C 
ATOM      5  N   UNL     1       5.887   5.037  16.975  0.00  0.00    +0.000 N 
ATOM      6  C   UNL     1       5.271   4.444  15.867  0.00  0.00    +0.000 C 
ATOM      7  O   UNL     1       4.207   3.828  15.954  0.00  0.00    +0.000 OA
ENDROOT
BRANCH   1   9
ATOM      8  C   UNL     1       3.372   3.558  19.262  0.00  0.00    +0.000 A 
ATOM      9  C   UNL     1       4.116   4.608  18.719  0.00  0.00    +0.000 A 
ATOM     10  C   UNL     1       3.175   5.682  18.621  0.00  0.00    +0.000 A 
ATOM     11  C   UNL     1       3.368   7.072  18.136  0.00  0.00    +0.000 C 
ATOM     12  N   UNL     1       1.962   5.332  19.059  0.00  0.00    +0.000 NA
ATOM     13  N   UNL     1       2.088   4.028  19.340  0.00  0.00    +0.000 N 
ATOM     14  C   UNL     1       0.923   3.268  19.730  0.00  0.00    +0.000 C 
BRANCH   8  16
ATOM     15  C   UNL     1       3.727   1.306  18.627  0.00  0.00    +0.000 C 
ATOM     16  O   UNL     1       3.603   2.294  19.637  0.00  0.00    +0.000 OA
ENDBRANCH   8  16
ENDBRANCH   1   9
BRANCH   6  17
ATOM     17  C   UNL     1       5.938   4.441  14.519  0.00  0.00    +0.000 A 
ATOM     18  C   UNL     1       5.440   3.563  13.577  0.00  0.00    +0.000 A 
ATOM     19  C   UNL     1       6.142   3.484  12.404  0.00  0.00    +0.000 A 
ATOM     20  N   UNL     1       7.228   4.231  12.146  0.00  0.00    +0.000 NA
ATOM     21  C   UNL     1       7.614   5.093  13.104  0.00  0.00    +0.000 A 
ATOM     22  C   UNL     1       8.762   6.001  12.785  0.00  0.00    +0.000 C 
ATOM     23  N   UNL     1       7.016   5.231  14.300  0.00  0.00    +0.000 NA
ENDBRANCH   6  17
TORSDOF 3
ENDMDL
MODEL 2
REMARK VINA RESULT:      -7.5      2.939      6.984
REMARK  Name = 
REMARK  7 active torsions:
REMARK  status: ('A' for Active; 'I' for Inactive)
REMARK    1  A    between atoms: C_1  and  O_2
REMARK    2  A    between atoms: O_2  and  C_3
REMARK    3  A    between atoms: C_4  and  C_5
REMARK    4  A    between atoms: C_10  and  C_12
REMARK    5  A    between atoms: C_16  and  C_17
REMARK    6  A    between atoms: C_19  and  C_20
REMARK    7  A    between atoms: N_22  and  C_23
REMARK                            x       y       z     vdW  Elec       q    Type
REMARK                         _______ _______ _______ _____ _____    ______ ____
ROOT
ATOM      1  C   UNL     1       3.748   5.187  19.481  0.00  0.00    +0.000 C 
ATOM      2  C   UNL     1       3.243   3.948  20.225  0.00  0.00    +0.000 C 
ATOM      3  C   UNL     1       2.251   4.529  21.219  0.00  0.00    +0.000 C 
ATOM      4  C   UNL     1       1.681   5.762  20.523  0.00  0.00    +0.000 C 
ATOM      5  N   UNL     1       2.572   6.051  19.403  0.00  0.00    +0.000 N 
ATOM      6  C   UNL     1       2.635   7.293  18.760  0.00  0.00    +0.000 C 
ATOM      7  O   UNL     1       3.517   7.570  17.945  0.00  0.00    +0.000 OA
ENDROOT
BRANCH   1   9
ATOM      8  C   UNL     1       5.696   5.312  17.769  0.00  0.00    +0.000 A 
ATOM      9  C   UNL     1       4.448   4.863  18.205  0.00  0.00    +0.000 A 
ATOM     10  C   UNL     1       3.995   4.017  17.143  0.00  0.00    +0.000 A 
ATOM     11  C   UNL     1       2.743   3.230  17.023  0.00  0.00    +0.000 C 
ATOM     12  N   UNL     1       4.878   3.949  16.142  0.00  0.00    +0.000 NA
ATOM     13  N   UNL     1       5.837   4.813  16.502  0.00  0.00    +0.000 N 
ATOM     14  C   UNL     1       6.917   5.101  15.587  0.00  0.00    +0.000 C 
BRANCH   8  16
ATOM     15  C   UNL     1       7.462   5.602  19.318  0.00  0.00    +0.000 C 
ATOM     16  O   UNL     1       6.671   6.095  18.250  0.00  0.00    +0.000 OA
ENDBRANCH   8  16
ENDBRANCH   1   9
BRANCH   6  17
ATOM     17  C   UNL     1       1.680   8.399  19.116  0.00  0.00    +0.000 A 
ATOM     18  C   UNL     1       1.220   9.186  18.079  0.00  0.00    +0.000 A 
ATOM     19  C   UNL     1       0.458  10.264  18.440  0.00  0.00    +0.000 A 
ATOM     20  N   UNL     1       0.131  10.540  19.713  0.00  0.00    +0.000 NA
ATOM     21  C   UNL     1       0.585   9.692  20.655  0.00  0.00    +0.000 A 
ATOM     22  C   UNL     1       0.142   9.934  22.065  0.00  0.00    +0.000 C 
ATOM     23  N   UNL     1       1.363   8.622  20.413  0.00  0.00    +0.000 NA
ENDBRANCH   6  17
TORSDOF 3
ENDMDL
MODEL 3
REMARK VINA RESULT:      -7.4      0.676      1.425
REMARK  Name = 
REMARK  7 active torsions:
REMARK  status: ('A' for Active; 'I' for Inactive)
REMARK    1  A    between atoms: C_1  and  O_2
REMARK    2  A    between atoms: O_2  and  C_3
REMARK    3  A    between atoms: C_4  and  C_5
REMARK    4  A    between atoms: C_10  and  C_12
REMARK    5  A    between atoms: C_16  and  C_17
REMARK    6  A    between atoms: C_19  and  C_20
REMARK    7  A    between atoms: N_22  and  C_23
REMARK                            x       y       z     vdW  Elec       q    Type
REMARK                         _______ _______ _______ _____ _____    ______ ____
ROOT
ATOM      1  C   UNL     1       5.572   4.596  18.471  0.00  0.00    +0.000 C 
ATOM      2  C   UNL     1       6.456   5.507  19.326  0.00  0.00    +0.000 C 
ATOM      3  C   UNL     1       7.749   5.573  18.528  0.00  0.00    +0.000 C 
ATOM      4  C   UNL     1       7.313   5.432  17.071  0.00  0.00    +0.000 C 
ATOM      5  N   UNL     1       5.939   4.940  17.098  0.00  0.00    +0.000 N 
ATOM      6  C   UNL     1       5.315   4.317  16.011  0.00  0.00    +0.000 C 
ATOM      7  O   UNL     1       4.226   3.749  16.111  0.00  0.00    +0.000 OA
ENDROOT
BRANCH   1   9
ATOM      8  C   UNL     1       3.335   3.675  19.413  0.00  0.00    +0.000 A 
ATOM      9  C   UNL     1       4.128   4.668  18.833  0.00  0.00    +0.000 A 
ATOM     10  C   UNL     1       3.232   5.772  18.669  0.00  0.00    +0.000 A 
ATOM     11  C   UNL     1       3.488   7.128  18.122  0.00  0.00    +0.000 C 
ATOM     12  N   UNL     1       2.000   5.492  19.103  0.00  0.00    +0.000 NA
ATOM     13  N   UNL     1       2.070   4.199  19.449  0.00  0.00    +0.000 N 
ATOM     14  C   UNL     1       0.870   3.505  19.855  0.00  0.00    +0.000 C 
BRANCH   8  16
ATOM     15  C   UNL     1       3.695   1.395  18.891  0.00  0.00    +0.000 C 
ATOM     16  O   UNL     1       3.510   2.422  19.851  0.00  0.00    +0.000 OA
ENDBRANCH   8  16
ENDBRANCH   1   9
BRANCH   6  17
ATOM     17  C   UNL     1       6.000   4.221  14.675  0.00  0.00    +0.000 A 
ATOM     18  C   UNL     1       7.052   5.086  14.448  0.00  0.00    +0.000 A 
ATOM     19  C   UNL     1       7.575   5.072  13.183  0.00  0.00    +0.000 A 
ATOM     20  N   UNL     1       7.136   4.250  12.216  0.00  0.00    +0.000 NA
ATOM     21  C   UNL     1       6.138   3.408  12.540  0.00  0.00    +0.000 A 
ATOM     22  C   UNL     1       5.711   2.419  11.500  0.00  0.00    +0.000 C 
ATOM     23  N   UNL     1       5.534   3.359  13.741  0.00  0.00    +0.000 NA
ENDBRANCH   6  17
TORSDOF 3
ENDMDL
MODEL 4
REMARK VINA RESULT:      -7.2      2.640      6.685
REMARK  Name = 
REMARK  7 active torsions:
REMARK  status: ('A' for Active; 'I' for Inactive)
REMARK    1  A    between atoms: C_1  and  O_2
REMARK    2  A    between atoms: O_2  and  C_3
REMARK    3  A    between atoms: C_4  and  C_5
REMARK    4  A    between atoms: C_10  and  C_12
REMARK    5  A    between atoms: C_16  and  C_17
REMARK    6  A    between atoms: C_19  and  C_20
REMARK    7  A    between atoms: N_22  and  C_23
REMARK                            x       y       z     vdW  Elec       q    Type
REMARK                         _______ _______ _______ _____ _____    ______ ____
ROOT
ATOM      1  C   UNL     1       4.072   5.064  19.592  0.00  0.00    +0.000 C 
ATOM      2  C   UNL     1       3.540   3.774  20.220  0.00  0.00    +0.000 C 
ATOM      3  C   UNL     1       2.385   4.263  21.078  0.00  0.00    +0.000 C 
ATOM      4  C   UNL     1       1.849   5.489  20.344  0.00  0.00    +0.000 C 
ATOM      5  N   UNL     1       2.871   5.867  19.371  0.00  0.00    +0.000 N 
ATOM      6  C   UNL     1       2.952   7.134  18.781  0.00  0.00    +0.000 C 
ATOM      7  O   UNL     1       3.922   7.487  18.108  0.00  0.00    +0.000 OA
ENDROOT
BRANCH   1   9
ATOM      8  C   UNL     1       4.619   4.313  17.167  0.00  0.00    +0.000 A 
ATOM      9  C   UNL     1       4.962   4.826  18.420  0.00  0.00    +0.000 A 
ATOM     10  C   UNL     1       6.368   5.073  18.318  0.00  0.00    +0.000 A 
ATOM     11  C   UNL     1       7.308   5.637  19.319  0.00  0.00    +0.000 C 
ATOM     12  N   UNL     1       6.853   4.743  17.117  0.00  0.00    +0.000 NA
ATOM     13  N   UNL     1       5.802   4.199  16.488  0.00  0.00    +0.000 N 
ATOM     14  C   UNL     1       5.984   3.603  15.184  0.00  0.00    +0.000 C 
BRANCH   8  16
ATOM     15  C   UNL     1       2.752   2.859  17.169  0.00  0.00    +0.000 C 
ATOM     16  O   UNL     1       3.501   3.897  16.559  0.00  0.00    +0.000 OA
ENDBRANCH   8  16
ENDBRANCH   1   9
BRANCH   6  17
ATOM     17  C   UNL     1       1.894   8.174  19.029  0.00  0.00    +0.000 A 
ATOM     18  C   UNL     1       1.437   8.876  17.931  0.00  0.00    +0.000 A 
ATOM     19  C   UNL     1       0.573   9.903  18.197  0.00  0.00    +0.000 A 
ATOM     20  N   UNL     1       0.149  10.206  19.435  0.00  0.00    +0.000 NA
ATOM     21  C   UNL     1       0.609   9.438  20.439  0.00  0.00    +0.000 A 
ATOM     22  C   UNL     1       0.063   9.703  21.809  0.00  0.00    +0.000 C 
ATOM     23  N   UNL     1       1.481   8.425  20.294  0.00  0.00    +0.000 NA
ENDBRANCH   6  17
TORSDOF 3
ENDMDL
MODEL 5
REMARK VINA RESULT:      -7.2      1.143      2.173
REMARK  Name = 
REMARK  7 active torsions:
REMARK  status: ('A' for Active; 'I' for Inactive)
REMARK    1  A    between atoms: C_1  and  O_2
REMARK    2  A    between atoms: O_2  and  C_3
REMARK    3  A    between atoms: C_4  and  C_5
REMARK    4  A    between atoms: C_10  and  C_12
REMARK    5  A    between atoms: C_16  and  C_17
REMARK    6  A    between atoms: C_19  and  C_20
REMARK    7  A    between atoms: N_22  and  C_23
REMARK                            x       y       z     vdW  Elec       q    Type
REMARK                         _______ _______ _______ _____ _____    ______ ____
ROOT
ATOM      1  C   UNL     1       5.929   4.537  18.641  0.00  0.00    +0.000 C 
ATOM      2  C   UNL     1       6.691   5.606  19.428  0.00  0.00    +0.000 C 
ATOM      3  C   UNL     1       7.833   5.969  18.491  0.00  0.00    +0.000 C 
ATOM      4  C   UNL     1       7.266   5.760  17.089  0.00  0.00    +0.000 C 
ATOM      5  N   UNL     1       6.045   4.976  17.252  0.00  0.00    +0.000 N 
ATOM      6  C   UNL     1       5.444   4.249  16.217  0.00  0.00    +0.000 C 
ATOM      7  O   UNL     1       4.526   3.452  16.417  0.00  0.00    +0.000 OA
ENDROOT
BRANCH   1   9
ATOM      8  C   UNL     1       3.537   5.207  19.394  0.00  0.00    +0.000 A 
ATOM      9  C   UNL     1       4.558   4.283  19.168  0.00  0.00    +0.000 A 
ATOM     10  C   UNL     1       3.983   3.031  19.559  0.00  0.00    +0.000 A 
ATOM     11  C   UNL     1       4.569   1.668  19.533  0.00  0.00    +0.000 C 
ATOM     12  N   UNL     1       2.725   3.167  19.988  0.00  0.00    +0.000 NA
ATOM     13  N   UNL     1       2.523   4.491  19.972  0.00  0.00    +0.000 N 
ATOM     14  C   UNL     1       1.290   5.030  20.500  0.00  0.00    +0.000 C 
BRANCH   8  16
ATOM     15  C   UNL     1       3.184   7.026  17.922  0.00  0.00    +0.000 C 
ATOM     16  O   UNL     1       3.365   6.526  19.236  0.00  0.00    +0.000 OA
ENDBRANCH   8  16
ENDBRANCH   1   9
BRANCH   6  17
ATOM     17  C   UNL     1       5.968   4.328  14.809  0.00  0.00    +0.000 A 
ATOM     18  C   UNL     1       5.342   3.539  13.864  0.00  0.00    +0.000 A 
ATOM     19  C   UNL     1       5.916   3.528  12.621  0.00  0.00    +0.000 A 
ATOM     20  N   UNL     1       6.997   4.260  12.304  0.00  0.00    +0.000 NA
ATOM     21  C   UNL     1       7.512   5.036  13.275  0.00  0.00    +0.000 A 
ATOM     22  C   UNL     1       8.654   5.931  12.903  0.00  0.00    +0.000 C 
ATOM     23  N   UNL     1       7.046   5.100  14.535  0.00  0.00    +0.000 NA
ENDBRANCH   6  17
TORSDOF 3
ENDMDL
MODEL 6
REMARK VINA RESULT:      -7.1      2.836      6.898
REMARK  Name = 
REMARK  7 active torsions:
REMARK  status: ('A' for Active; 'I' for Inactive)
REMARK    1  A    between atoms: C_1  and  O_2
REMARK    2  A    between atoms: O_2  and  C_3
REMARK    3  A    between atoms: C_4  and  C_5
REMARK    4  A    between atoms: C_10  and  C_12
REMARK    5  A    between atoms: C_16  and  C_17
REMARK    6  A    between atoms: C_19  and  C_20
REMARK    7  A    between atoms: N_22  and  C_23
REMARK                            x       y       z     vdW  Elec       q    Type
REMARK                         _______ _______ _______ _____ _____    ______ ____
ROOT
ATOM      1  C   UNL     1       3.689   4.464  19.757  0.00  0.00    +0.000 C 
ATOM      2  C   UNL     1       3.079   3.184  20.335  0.00  0.00    +0.000 C 
ATOM      3  C   UNL     1       2.130   3.709  21.400  0.00  0.00    +0.000 C 
ATOM      4  C   UNL     1       1.668   5.066  20.873  0.00  0.00    +0.000 C 
ATOM      5  N   UNL     1       2.588   5.424  19.797  0.00  0.00    +0.000 N 
ATOM      6  C   UNL     1       2.758   6.731  19.323  0.00  0.00    +0.000 C 
ATOM      7  O   UNL     1       3.665   7.039  18.548  0.00  0.00    +0.000 OA
ENDROOT
BRANCH   1   9
ATOM      8  C   UNL     1       5.729   4.375  18.154  0.00  0.00    +0.000 A 
ATOM      9  C   UNL     1       4.369   4.254  18.448  0.00  0.00    +0.000 A 
ATOM     10  C   UNL     1       3.779   3.878  17.199  0.00  0.00    +0.000 A 
ATOM     11  C   UNL     1       2.362   3.582  16.869  0.00  0.00    +0.000 C 
ATOM     12  N   UNL     1       4.686   3.778  16.222  0.00  0.00    +0.000 NA
ATOM     13  N   UNL     1       5.825   4.179  16.802  0.00  0.00    +0.000 N 
ATOM     14  C   UNL     1       7.019   4.322  16.002  0.00  0.00    +0.000 C 
BRANCH   8  16
ATOM     15  C   UNL     1       7.273   6.019  18.868  0.00  0.00    +0.000 C 
ATOM     16  O   UNL     1       6.848   4.668  18.828  0.00  0.00    +0.000 OA
ENDBRANCH   8  16
ENDBRANCH   1   9
BRANCH   6  17
ATOM     17  C   UNL     1       1.894   7.856  19.824  0.00  0.00    +0.000 A 
ATOM     18  C   UNL     1       1.547   7.830  21.160  0.00  0.00    +0.000 A 
ATOM     19  C   UNL     1       0.657   8.788  21.564  0.00  0.00    +0.000 A 
ATOM     20  N   UNL     1       0.167   9.730  20.741  0.00  0.00    +0.000 NA
ATOM     21  C   UNL     1       0.597   9.707  19.467  0.00  0.00    +0.000 A 
ATOM     22  C   UNL     1       0.136  10.813  18.568  0.00  0.00    +0.000 C 
ATOM     23  N   UNL     1       1.445   8.796  18.959  0.00  0.00    +0.000 NA
ENDBRANCH   6  17
TORSDOF 3
ENDMDL
MODEL 7
REMARK VINA RESULT:      -7.1      2.162      6.664
REMARK  Name = 
REMARK  7 active torsions:
REMARK  status: ('A' for Active; 'I' for Inactive)
REMARK    1  A    between atoms: C_1  and  O_2
REMARK    2  A    between atoms: O_2  and  C_3
REMARK    3  A    between atoms: C_4  and  C_5
REMARK    4  A    between atoms: C_10  and  C_12
REMARK    5  A    between atoms: C_16  and  C_17
REMARK    6  A    between atoms: C_19  and  C_20
REMARK    7  A    between atoms: N_22  and  C_23
REMARK                            x       y       z     vdW  Elec       q    Type
REMARK                         _______ _______ _______ _____ _____    ______ ____
ROOT
ATOM      1  C   UNL     1       4.488   4.277  17.437  0.00  0.00    +0.000 C 
ATOM      2  C   UNL     1       3.736   2.996  17.066  0.00  0.00    +0.000 C 
ATOM      3  C   UNL     1       2.407   3.160  17.786  0.00  0.00    +0.000 C 
ATOM      4  C   UNL     1       2.165   4.667  17.813  0.00  0.00    +0.000 C 
ATOM      5  N   UNL     1       3.441   5.296  17.482  0.00  0.00    +0.000 N 
ATOM      6  C   UNL     1       3.750   6.630  17.775  0.00  0.00    +0.000 C 
ATOM      7  O   UNL     1       4.888   7.085  17.655  0.00  0.00    +0.000 OA
ENDROOT
BRANCH   1   9
ATOM      8  C   UNL     1       5.702   4.640  15.171  0.00  0.00    +0.000 A 
ATOM      9  C   UNL     1       5.666   4.542  16.563  0.00  0.00    +0.000 A 
ATOM     10  C   UNL     1       7.025   4.758  16.959  0.00  0.00    +0.000 A 
ATOM     11  C   UNL     1       7.624   4.795  18.316  0.00  0.00    +0.000 C 
ATOM     12  N   UNL     1       7.828   4.968  15.911  0.00  0.00    +0.000 NA
ATOM     13  N   UNL     1       7.025   4.791  14.853  0.00  0.00    +0.000 N 
ATOM     14  C   UNL     1       7.586   4.818  13.522  0.00  0.00    +0.000 C 
BRANCH   8  16
ATOM     15  C   UNL     1       5.008   3.580  13.172  0.00  0.00    +0.000 C 
ATOM     16  O   UNL     1       4.818   4.571  14.167  0.00  0.00    +0.000 OA
ENDBRANCH   8  16
ENDBRANCH   1   9
BRANCH   6  17
ATOM     17  C   UNL     1       2.716   7.555  18.356  0.00  0.00    +0.000 A 
ATOM     18  C   UNL     1       2.217   8.537  17.523  0.00  0.00    +0.000 A 
ATOM     19  C   UNL     1       1.377   9.446  18.109  0.00  0.00    +0.000 A 
ATOM     20  N   UNL     1       1.015   9.386  19.401  0.00  0.00    +0.000 NA
ATOM     21  C   UNL     1       1.513   8.368  20.125  0.00  0.00    +0.000 A 
ATOM     22  C   UNL     1       1.035   8.234  21.539  0.00  0.00    +0.000 C 
ATOM     23  N   UNL     1       2.366   7.439  19.659  0.00  0.00    +0.000 NA
ENDBRANCH   6  17
TORSDOF 3
ENDMDL
MODEL 8
REMARK VINA RESULT:      -6.9      1.347      2.605
REMARK  Name = 
REMARK  7 active torsions:
REMARK  status: ('A' for Active; 'I' for Inactive)
REMARK    1  A    between atoms: C_1  and  O_2
REMARK    2  A    between atoms: O_2  and  C_3
REMARK    3  A    between atoms: C_4  and  C_5
REMARK    4  A    between atoms: C_10  and  C_12
REMARK    5  A    between atoms: C_16  and  C_17
REMARK    6  A    between atoms: C_19  and  C_20
REMARK    7  A    between atoms: N_22  and  C_23
REMARK                            x       y       z     vdW  Elec       q    Type
REMARK                         _______ _______ _______ _____ _____    ______ ____
ROOT
ATOM      1  C   UNL     1       5.949   4.504  18.795  0.00  0.00    +0.000 C 
ATOM      2  C   UNL     1       6.685   5.612  19.552  0.00  0.00    +0.000 C 
ATOM      3  C   UNL     1       7.844   5.945  18.627  0.00  0.00    +0.000 C 
ATOM      4  C   UNL     1       7.310   5.672  17.223  0.00  0.00    +0.000 C 
ATOM      5  N   UNL     1       6.092   4.885  17.391  0.00  0.00    +0.000 N 
ATOM      6  C   UNL     1       5.521   4.110  16.375  0.00  0.00    +0.000 C 
ATOM      7  O   UNL     1       4.604   3.314  16.588  0.00  0.00    +0.000 OA
ENDROOT
BRANCH   1   9
ATOM      8  C   UNL     1       3.531   5.181  19.455  0.00  0.00    +0.000 A 
ATOM      9  C   UNL     1       4.569   4.259  19.302  0.00  0.00    +0.000 A 
ATOM     10  C   UNL     1       4.000   3.022  19.745  0.00  0.00    +0.000 A 
ATOM     11  C   UNL     1       4.602   1.667  19.805  0.00  0.00    +0.000 C 
ATOM     12  N   UNL     1       2.730   3.163  20.136  0.00  0.00    +0.000 NA
ATOM     13  N   UNL     1       2.512   4.482  20.045  0.00  0.00    +0.000 N 
ATOM     14  C   UNL     1       1.261   5.031  20.514  0.00  0.00    +0.000 C 
BRANCH   8  16
ATOM     15  C   UNL     1       3.177   6.912  17.881  0.00  0.00    +0.000 C 
ATOM     16  O   UNL     1       3.347   6.487  19.223  0.00  0.00    +0.000 OA
ENDBRANCH   8  16
ENDBRANCH   1   9
BRANCH   6  17
ATOM     17  C   UNL     1       6.075   4.135  14.977  0.00  0.00    +0.000 A 
ATOM     18  C   UNL     1       7.161   4.956  14.749  0.00  0.00    +0.000 A 
ATOM     19  C   UNL     1       7.566   5.063  13.446  0.00  0.00    +0.000 A 
ATOM     20  N   UNL     1       6.985   4.391  12.438  0.00  0.00    +0.000 NA
ATOM     21  C   UNL     1       5.963   3.577  12.760  0.00  0.00    +0.000 A 
ATOM     22  C   UNL     1       5.375   2.748  11.659  0.00  0.00    +0.000 C 
ATOM     23  N   UNL     1       5.467   3.420  14.000  0.00  0.00    +0.000 NA
ENDBRANCH   6  17
TORSDOF 3
ENDMDL
MODEL 9
REMARK VINA RESULT:      -6.6      3.102      6.823
REMARK  Name = 
REMARK  7 active torsions:
REMARK  status: ('A' for Active; 'I' for Inactive)
REMARK    1  A    between atoms: C_1  and  O_2
REMARK    2  A    between atoms: O_2  and  C_3
REMARK    3  A    between atoms: C_4  and  C_5
REMARK    4  A    between atoms: C_10  and  C_12
REMARK    5  A    between atoms: C_16  and  C_17
REMARK    6  A    between atoms: C_19  and  C_20
REMARK    7  A    between atoms: N_22  and  C_23
REMARK                            x       y       z     vdW  Elec       q    Type
REMARK                         _______ _______ _______ _____ _____    ______ ____
ROOT
ATOM      1  C   UNL     1       3.605   5.852  19.281  0.00  0.00    +0.000 C 
ATOM      2  C   UNL     1       3.026   4.818  20.249  0.00  0.00    +0.000 C 
ATOM      3  C   UNL     1       2.027   5.630  21.058  0.00  0.00    +0.000 C 
ATOM      4  C   UNL     1       1.531   6.705  20.096  0.00  0.00    +0.000 C 
ATOM      5  N   UNL     1       2.469   6.720  18.976  0.00  0.00    +0.000 N 
ATOM      6  C   UNL     1       2.604   7.794  18.088  0.00  0.00    +0.000 C 
ATOM      7  O   UNL     1       3.521   7.861  17.268  0.00  0.00    +0.000 OA
ENDROOT
BRANCH   1   9
ATOM      8  C   UNL     1       5.640   5.483  17.713  0.00  0.00    +0.000 A 
ATOM      9  C   UNL     1       4.330   5.241  18.131  0.00  0.00    +0.000 A 
ATOM     10  C   UNL     1       3.844   4.269  17.199  0.00  0.00    +0.000 A 
ATOM     11  C   UNL     1       2.521   3.600  17.128  0.00  0.00    +0.000 C 
ATOM     12  N   UNL     1       4.765   3.940  16.288  0.00  0.00    +0.000 NA
ATOM     13  N   UNL     1       5.792   4.756  16.562  0.00  0.00    +0.000 N 
ATOM     14  C   UNL     1       6.942   4.771  15.688  0.00  0.00    +0.000 C 
BRANCH   8  16
ATOM     15  C   UNL     1       7.474   5.759  19.183  0.00  0.00    +0.000 C 
ATOM     16  O   UNL     1       6.668   6.238  18.119  0.00  0.00    +0.000 OA
ENDBRANCH   8  16
ENDBRANCH   1   9
BRANCH   6  17
ATOM     17  C   UNL     1       1.685   8.983  18.165  0.00  0.00    +0.000 A 
ATOM     18  C   UNL     1       2.170  10.108  18.802  0.00  0.00    +0.000 A 
ATOM     19  C   UNL     1       1.274  11.129  18.974  0.00  0.00    +0.000 A 
ATOM     20  N   UNL     1       0.009  11.080  18.527  0.00  0.00    +0.000 NA
ATOM     21  C   UNL     1      -0.364   9.962  17.877  0.00  0.00    +0.000 A 
ATOM     22  C   UNL     1      -1.740   9.939  17.287  0.00  0.00    +0.000 C 
ATOM     23  N   UNL     1       0.425   8.891  17.678  0.00  0.00    +0.000 NA
ENDBRANCH   6  17
TORSDOF 3
ENDMDL
