MODEL 1
REMARK VINA RESULT:      -7.7      0.000      0.000
REMARK  Name = 
REMARK  6 active torsions:
REMARK  status: ('A' for Active; 'I' for Inactive)
REMARK    1  A    between atoms: C_1  and  C_2
REMARK    2  A    between atoms: C_4  and  C_5
REMARK    3  A    between atoms: C_6  and  C_7
REMARK    4  A    between atoms: C_14  and  C_15
REMARK    5  A    between atoms: C_19  and  C_20
REMARK    6  A    between atoms: C_19  and  C_21
REMARK                            x       y       z     vdW  Elec       q    Type
REMARK                         _______ _______ _______ _____ _____    ______ ____
ROOT
ATOM      1  C   UNL     1      11.522  13.100  16.606  0.00  0.00    +0.000 C 
ATOM      2  C   UNL     1      10.880  12.705  17.902  0.00  0.00    +0.000 A 
ATOM      3  N   UNL     1      10.392  11.446  17.972  0.00  0.00    +0.000 NA
ATOM      4  C   UNL     1       9.769  11.030  19.106  0.00  0.00    +0.000 A 
ATOM      5  C   UNL     1       9.640  11.866  20.228  0.00  0.00    +0.000 A 
ATOM      6  C   UNL     1       8.948  11.458  21.502  0.00  0.00    +0.000 C 
ATOM      7  C   UNL     1      10.203  13.167  20.151  0.00  0.00    +0.000 A 
ATOM      8  C   UNL     1      10.779  13.602  18.958  0.00  0.00    +0.000 A 
ATOM      9  O   UNL     1      11.233  14.880  18.779  0.00  0.00    +0.000 OA
ATOM     10  C   UNL     1      10.780  15.802  19.779  0.00  0.00    +0.000 C 
ATOM     11  C   UNL     1       9.346  16.268  19.478  0.00  0.00    +0.000 C 
ATOM     12  C   UNL     1      11.705  17.020  19.703  0.00  0.00    +0.000 C 
ATOM     13  O   UNL     1      10.926  15.289  21.100  0.00  0.00    +0.000 OA
ATOM     14  C   UNL     1      10.154  14.118  21.317  0.00  0.00    +0.000 C 
ENDROOT
BRANCH   4  15
ATOM     15  C   UNL     1       9.222   9.657  19.024  0.00  0.00    +0.000 C 
ATOM     16  C   UNL     1       8.415   9.234  18.034  0.00  0.00    +0.000 C 
BRANCH  16  17
ATOM     17  C   UNL     1       7.778   7.908  17.955  0.00  0.00    +0.000 A 
ATOM     18  C   UNL     1       8.204   6.912  18.851  0.00  0.00    +0.000 A 
ATOM     19  C   UNL     1       7.653   5.629  18.811  0.00  0.00    +0.000 A 
ATOM     20  C   UNL     1       6.663   5.341  17.881  0.00  0.00    +0.000 A 
ATOM     21  F   UNL     1       6.144   4.107  17.829  0.00  0.00    +0.000 F 
ATOM     22  C   UNL     1       6.202   6.316  17.007  0.00  0.00    +0.000 A 
ATOM     23  C   UNL     1       6.753   7.601  17.049  0.00  0.00    +0.000 A 
ENDBRANCH  16  17
ENDBRANCH   4  15
TORSDOF 2
ENDMDL
MODEL 2
REMARK VINA RESULT:      -7.7      1.445      1.979
REMARK  Name = 
REMARK  6 active torsions:
REMARK  status: ('A' for Active; 'I' for Inactive)
REMARK    1  A    between atoms: C_1  and  C_2
REMARK    2  A    between atoms: C_4  and  C_5
REMARK    3  A    between atoms: C_6  and  C_7
REMARK    4  A    between atoms: C_14  and  C_15
REMARK    5  A    between atoms: C_19  and  C_20
REMARK    6  A    between atoms: C_19  and  C_21
REMARK                            x       y       z     vdW  Elec       q    Type
REMARK                         _______ _______ _______ _____ _____    ______ ____
ROOT
ATOM      1  C   UNL     1      12.333  11.722  20.106  0.00  0.00    +0.000 C 
ATOM      2  C   UNL     1      11.085  12.047  19.341  0.00  0.00    +0.000 A 
ATOM      3  N   UNL     1      10.341  10.996  18.931  0.00  0.00    +0.000 NA
ATOM      4  C   UNL     1       9.212  11.215  18.205  0.00  0.00    +0.000 A 
ATOM      5  C   UNL     1       8.777  12.514  17.890  0.00  0.00    +0.000 A 
ATOM      6  C   UNL     1       7.542  12.809  17.079  0.00  0.00    +0.000 C 
ATOM      7  C   UNL     1       9.546  13.605  18.373  0.00  0.00    +0.000 A 
ATOM      8  C   UNL     1      10.737  13.362  19.058  0.00  0.00    +0.000 A 
ATOM      9  O   UNL     1      11.583  14.364  19.446  0.00  0.00    +0.000 OA
ATOM     10  C   UNL     1      11.317  15.625  18.818  0.00  0.00    +0.000 C 
ATOM     11  C   UNL     1      11.917  15.665  17.403  0.00  0.00    +0.000 C 
ATOM     12  C   UNL     1      12.016  16.692  19.665  0.00  0.00    +0.000 C 
ATOM     13  O   UNL     1       9.932  15.962  18.839  0.00  0.00    +0.000 OA
ATOM     14  C   UNL     1       9.135  15.031  18.124  0.00  0.00    +0.000 C 
ENDROOT
BRANCH   4  15
ATOM     15  C   UNL     1       8.531   9.979  17.762  0.00  0.00    +0.000 C 
ATOM     16  C   UNL     1       8.384   8.889  18.538  0.00  0.00    +0.000 C 
BRANCH  16  17
ATOM     17  C   UNL     1       7.791   7.609  18.114  0.00  0.00    +0.000 A 
ATOM     18  C   UNL     1       8.175   6.441  18.796  0.00  0.00    +0.000 A 
ATOM     19  C   UNL     1       7.665   5.194  18.426  0.00  0.00    +0.000 A 
ATOM     20  C   UNL     1       6.757   5.113  17.380  0.00  0.00    +0.000 A 
ATOM     21  F   UNL     1       6.277   3.917  17.012  0.00  0.00    +0.000 F 
ATOM     22  C   UNL     1       6.337   6.255  16.711  0.00  0.00    +0.000 A 
ATOM     23  C   UNL     1       6.848   7.503  17.082  0.00  0.00    +0.000 A 
ENDBRANCH  16  17
ENDBRANCH   4  15
TORSDOF 2
ENDMDL
MODEL 3
REMARK VINA RESULT:      -7.7      0.147      1.016
REMARK  Name = 
REMARK  6 active torsions:
REMARK  status: ('A' for Active; 'I' for Inactive)
REMARK    1  A    between atoms: C_1  and  C_2
REMARK    2  A    between atoms: C_4  and  C_5
REMARK    3  A    between atoms: C_6  and  C_7
REMARK    4  A    between atoms: C_14  and  C_15
REMARK    5  A    between atoms: C_19  and  C_20
REMARK    6  A    between atoms: C_19  and  C_21
REMARK                            x       y       z     vdW  Elec       q    Type
REMARK                         _______ _______ _______ _____ _____    ______ ____
ROOT
ATOM      1  C   UNL     1      11.274  13.080  16.535  0.00  0.00    +0.000 C 
ATOM      2  C   UNL     1      10.703  12.689  17.865  0.00  0.00    +0.000 A 
ATOM      3  N   UNL     1      10.223  11.429  17.966  0.00  0.00    +0.000 NA
ATOM      4  C   UNL     1       9.662  11.016  19.134  0.00  0.00    +0.000 A 
ATOM      5  C   UNL     1       9.592  11.857  20.258  0.00  0.00    +0.000 A 
ATOM      6  C   UNL     1       8.970  11.451  21.568  0.00  0.00    +0.000 C 
ATOM      7  C   UNL     1      10.147  13.158  20.146  0.00  0.00    +0.000 A 
ATOM      8  C   UNL     1      10.657  13.590  18.922  0.00  0.00    +0.000 A 
ATOM      9  O   UNL     1      11.097  14.868  18.714  0.00  0.00    +0.000 OA
ATOM     10  C   UNL     1      10.697  15.793  19.733  0.00  0.00    +0.000 C 
ATOM     11  C   UNL     1       9.248  16.255  19.508  0.00  0.00    +0.000 C 
ATOM     12  C   UNL     1      11.614  17.012  19.603  0.00  0.00    +0.000 C 
ATOM     13  O   UNL     1      10.915  15.285  21.047  0.00  0.00    +0.000 OA
ATOM     14  C   UNL     1      10.158  14.114  21.309  0.00  0.00    +0.000 C 
ENDROOT
BRANCH   4  15
ATOM     15  C   UNL     1       9.114   9.642  19.087  0.00  0.00    +0.000 C 
ATOM     16  C   UNL     1       8.425   9.149  18.041  0.00  0.00    +0.000 C 
BRANCH  16  17
ATOM     17  C   UNL     1       7.789   7.822  17.983  0.00  0.00    +0.000 A 
ATOM     18  C   UNL     1       6.758   7.620  17.048  0.00  0.00    +0.000 A 
ATOM     19  C   UNL     1       6.102   6.390  16.960  0.00  0.00    +0.000 A 
ATOM     20  C   UNL     1       6.483   5.352  17.799  0.00  0.00    +0.000 A 
ATOM     21  F   UNL     1       5.845   4.176  17.729  0.00  0.00    +0.000 F 
ATOM     22  C   UNL     1       7.520   5.516  18.709  0.00  0.00    +0.000 A 
ATOM     23  C   UNL     1       8.178   6.748  18.795  0.00  0.00    +0.000 A 
ENDBRANCH  16  17
ENDBRANCH   4  15
TORSDOF 2
ENDMDL
MODEL 4
REMARK VINA RESULT:      -7.7      1.592      2.360
REMARK  Name = 
REMARK  6 active torsions:
REMARK  status: ('A' for Active; 'I' for Inactive)
REMARK    1  A    between atoms: C_1  and  C_2
REMARK    2  A    between atoms: C_4  and  C_5
REMARK    3  A    between atoms: C_6  and  C_7
REMARK    4  A    between atoms: C_14  and  C_15
REMARK    5  A    between atoms: C_19  and  C_20
REMARK    6  A    between atoms: C_19  and  C_21
REMARK                            x       y       z     vdW  Elec       q    Type
REMARK                         _______ _______ _______ _____ _____    ______ ____
ROOT
ATOM      1  C   UNL     1       7.222  14.408  17.507  0.00  0.00    +0.000 C 
ATOM      2  C   UNL     1       8.455  13.602  17.789  0.00  0.00    +0.000 A 
ATOM      3  N   UNL     1       8.278  12.273  17.961  0.00  0.00    +0.000 NA
ATOM      4  C   UNL     1       9.348  11.486  18.251  0.00  0.00    +0.000 A 
ATOM      5  C   UNL     1      10.648  12.012  18.350  0.00  0.00    +0.000 A 
ATOM      6  C   UNL     1      11.862  11.186  18.682  0.00  0.00    +0.000 C 
ATOM      7  C   UNL     1      10.818  13.402  18.117  0.00  0.00    +0.000 A 
ATOM      8  C   UNL     1       9.702  14.207  17.887  0.00  0.00    +0.000 A 
ATOM      9  O   UNL     1       9.783  15.567  17.773  0.00  0.00    +0.000 OA
ATOM     10  C   UNL     1      11.029  16.115  18.224  0.00  0.00    +0.000 C 
ATOM     11  C   UNL     1      11.042  16.242  19.756  0.00  0.00    +0.000 C 
ATOM     12  C   UNL     1      11.132  17.520  17.625  0.00  0.00    +0.000 C 
ATOM     13  O   UNL     1      12.153  15.398  17.721  0.00  0.00    +0.000 OA
ATOM     14  C   UNL     1      12.177  14.048  18.157  0.00  0.00    +0.000 C 
ENDROOT
BRANCH   4  15
ATOM     15  C   UNL     1       9.005  10.065  18.483  0.00  0.00    +0.000 C 
ATOM     16  C   UNL     1       8.195   9.352  17.680  0.00  0.00    +0.000 C 
BRANCH  16  17
ATOM     17  C   UNL     1       7.757   7.966  17.915  0.00  0.00    +0.000 A 
ATOM     18  C   UNL     1       6.740   7.442  17.098  0.00  0.00    +0.000 A 
ATOM     19  C   UNL     1       6.268   6.141  17.287  0.00  0.00    +0.000 A 
ATOM     20  C   UNL     1       6.821   5.353  18.287  0.00  0.00    +0.000 A 
ATOM     21  F   UNL     1       6.360   4.110  18.481  0.00  0.00    +0.000 F 
ATOM     22  C   UNL     1       7.850   5.835  19.086  0.00  0.00    +0.000 A 
ATOM     23  C   UNL     1       8.323   7.138  18.896  0.00  0.00    +0.000 A 
ENDBRANCH  16  17
ENDBRANCH   4  15
TORSDOF 2
ENDMDL
MODEL 5
REMARK VINA RESULT:      -7.6      8.392      9.414
REMARK  Name = 
REMARK  6 active torsions:
REMARK  status: ('A' for Active; 'I' for Inactive)
REMARK    1  A    between atoms: C_1  and  C_2
REMARK    2  A    between atoms: C_4  and  C_5
REMARK    3  A    between atoms: C_6  and  C_7
REMARK    4  A    between atoms: C_14  and  C_15
REMARK    5  A    between atoms: C_19  and  C_20
REMARK    6  A    between atoms: C_19  and  C_21
REMARK                            x       y       z     vdW  Elec       q    Type
REMARK                         _______ _______ _______ _____ _____    ______ ____
ROOT
ATOM      1  C   UNL     1      -0.420   9.731  23.174  0.00  0.00    +0.000 C 
ATOM      2  C   UNL     1       0.131   9.691  21.780  0.00  0.00    +0.000 A 
ATOM      3  N   UNL     1       0.785   8.562  21.425  0.00  0.00    +0.000 NA
ATOM      4  C   UNL     1       1.337   8.469  20.186  0.00  0.00    +0.000 A 
ATOM      5  C   UNL     1       1.222   9.506  19.245  0.00  0.00    +0.000 A 
ATOM      6  C   UNL     1       1.826   9.456  17.866  0.00  0.00    +0.000 C 
ATOM      7  C   UNL     1       0.488  10.661  19.621  0.00  0.00    +0.000 A 
ATOM      8  C   UNL     1      -0.014  10.770  20.918  0.00  0.00    +0.000 A 
ATOM      9  O   UNL     1      -0.627  11.902  21.380  0.00  0.00    +0.000 OA
ATOM     10  C   UNL     1      -0.422  13.054  20.551  0.00  0.00    +0.000 C 
ATOM     11  C   UNL     1       0.953  13.684  20.826  0.00  0.00    +0.000 C 
ATOM     12  C   UNL     1      -1.501  14.069  20.937  0.00  0.00    +0.000 C 
ATOM     13  O   UNL     1      -0.633  12.774  19.169  0.00  0.00    +0.000 OA
ATOM     14  C   UNL     1       0.273  11.805  18.666  0.00  0.00    +0.000 C 
ENDROOT
BRANCH   4  15
ATOM     15  C   UNL     1       2.083   7.212  19.952  0.00  0.00    +0.000 C 
ATOM     16  C   UNL     1       1.799   6.050  20.568  0.00  0.00    +0.000 C 
BRANCH  16  17
ATOM     17  C   UNL     1       2.564   4.799  20.434  0.00  0.00    +0.000 A 
ATOM     18  C   UNL     1       3.671   4.787  19.567  0.00  0.00    +0.000 A 
ATOM     19  C   UNL     1       4.423   3.625  19.381  0.00  0.00    +0.000 A 
ATOM     20  C   UNL     1       4.078   2.471  20.072  0.00  0.00    +0.000 A 
ATOM     21  F   UNL     1       4.788   1.350  19.884  0.00  0.00    +0.000 F 
ATOM     22  C   UNL     1       3.009   2.466  20.959  0.00  0.00    +0.000 A 
ATOM     23  C   UNL     1       2.257   3.631  21.146  0.00  0.00    +0.000 A 
ENDBRANCH  16  17
ENDBRANCH   4  15
TORSDOF 2
ENDMDL
MODEL 6
REMARK VINA RESULT:      -7.6      8.186      9.237
REMARK  Name = 
REMARK  6 active torsions:
REMARK  status: ('A' for Active; 'I' for Inactive)
REMARK    1  A    between atoms: C_1  and  C_2
REMARK    2  A    between atoms: C_4  and  C_5
REMARK    3  A    between atoms: C_6  and  C_7
REMARK    4  A    between atoms: C_14  and  C_15
REMARK    5  A    between atoms: C_19  and  C_20
REMARK    6  A    between atoms: C_19  and  C_21
REMARK                            x       y       z     vdW  Elec       q    Type
REMARK                         _______ _______ _______ _____ _____    ______ ____
ROOT
ATOM      1  C   UNL     1      -0.171   9.426  23.039  0.00  0.00    +0.000 C 
ATOM      2  C   UNL     1       0.415   9.357  21.660  0.00  0.00    +0.000 A 
ATOM      3  N   UNL     1       1.028   8.200  21.324  0.00  0.00    +0.000 NA
ATOM      4  C   UNL     1       1.608   8.079  20.101  0.00  0.00    +0.000 A 
ATOM      5  C   UNL     1       1.565   9.118  19.155  0.00  0.00    +0.000 A 
ATOM      6  C   UNL     1       2.203   9.038  17.794  0.00  0.00    +0.000 C 
ATOM      7  C   UNL     1       0.873  10.306  19.510  0.00  0.00    +0.000 A 
ATOM      8  C   UNL     1       0.341  10.440  20.793  0.00  0.00    +0.000 A 
ATOM      9  O   UNL     1      -0.232  11.599  21.237  0.00  0.00    +0.000 OA
ATOM     10  C   UNL     1       0.046  12.738  20.412  0.00  0.00    +0.000 C 
ATOM     11  C   UNL     1       1.439  13.308  20.724  0.00  0.00    +0.000 C 
ATOM     12  C   UNL     1      -0.997  13.802  20.768  0.00  0.00    +0.000 C 
ATOM     13  O   UNL     1      -0.140  12.465  19.025  0.00  0.00    +0.000 OA
ATOM     14  C   UNL     1       0.735  11.455  18.548  0.00  0.00    +0.000 C 
ENDROOT
BRANCH   4  15
ATOM     15  C   UNL     1       2.304   6.790  19.889  0.00  0.00    +0.000 C 
ATOM     16  C   UNL     1       1.836   5.812  19.091  0.00  0.00    +0.000 C 
BRANCH  16  17
ATOM     17  C   UNL     1       2.446   4.483  18.916  0.00  0.00    +0.000 A 
ATOM     18  C   UNL     1       1.854   3.595  18.001  0.00  0.00    +0.000 A 
ATOM     19  C   UNL     1       2.374   2.314  17.807  0.00  0.00    +0.000 A 
ATOM     20  C   UNL     1       3.498   1.919  18.519  0.00  0.00    +0.000 A 
ATOM     21  F   UNL     1       3.990   0.685  18.347  0.00  0.00    +0.000 F 
ATOM     22  C   UNL     1       4.122   2.788  19.404  0.00  0.00    +0.000 A 
ATOM     23  C   UNL     1       3.601   4.073  19.597  0.00  0.00    +0.000 A 
ENDBRANCH  16  17
ENDBRANCH   4  15
TORSDOF 2
ENDMDL
MODEL 7
REMARK VINA RESULT:      -7.6      9.005     11.800
REMARK  Name = 
REMARK  6 active torsions:
REMARK  status: ('A' for Active; 'I' for Inactive)
REMARK    1  A    between atoms: C_1  and  C_2
REMARK    2  A    between atoms: C_4  and  C_5
REMARK    3  A    between atoms: C_6  and  C_7
REMARK    4  A    between atoms: C_14  and  C_15
REMARK    5  A    between atoms: C_19  and  C_20
REMARK    6  A    between atoms: C_19  and  C_21
REMARK                            x       y       z     vdW  Elec       q    Type
REMARK                         _______ _______ _______ _____ _____    ______ ____
ROOT
ATOM      1  C   UNL     1       1.607   3.479  21.698  0.00  0.00    +0.000 C 
ATOM      2  C   UNL     1       2.077   4.495  20.700  0.00  0.00    +0.000 A 
ATOM      3  N   UNL     1       1.731   5.779  20.941  0.00  0.00    +0.000 NA
ATOM      4  C   UNL     1       2.096   6.748  20.061  0.00  0.00    +0.000 A 
ATOM      5  C   UNL     1       2.855   6.459  18.914  0.00  0.00    +0.000 A 
ATOM      6  C   UNL     1       3.273   7.494  17.903  0.00  0.00    +0.000 C 
ATOM      7  C   UNL     1       3.250   5.111  18.706  0.00  0.00    +0.000 A 
ATOM      8  C   UNL     1       2.810   4.118  19.581  0.00  0.00    +0.000 A 
ATOM      9  O   UNL     1       3.056   2.789  19.374  0.00  0.00    +0.000 OA
ATOM     10  C   UNL     1       3.505   2.481  18.048  0.00  0.00    +0.000 C 
ATOM     11  C   UNL     1       2.317   2.415  17.074  0.00  0.00    +0.000 C 
ATOM     12  C   UNL     1       4.148   1.093  18.114  0.00  0.00    +0.000 C 
ATOM     13  O   UNL     1       4.534   3.362  17.603  0.00  0.00    +0.000 OA
ATOM     14  C   UNL     1       4.100   4.711  17.530  0.00  0.00    +0.000 C 
ENDROOT
BRANCH   4  15
ATOM     15  C   UNL     1       1.594   8.097  20.407  0.00  0.00    +0.000 C 
ATOM     16  C   UNL     1       0.797   8.348  21.462  0.00  0.00    +0.000 C 
BRANCH  16  17
ATOM     17  C   UNL     1       0.204   9.654  21.797  0.00  0.00    +0.000 A 
ATOM     18  C   UNL     1       0.527  10.757  20.988  0.00  0.00    +0.000 A 
ATOM     19  C   UNL     1       0.013  12.026  21.267  0.00  0.00    +0.000 A 
ATOM     20  C   UNL     1      -0.838  12.193  22.351  0.00  0.00    +0.000 A 
ATOM     21  F   UNL     1      -1.321  13.411  22.632  0.00  0.00    +0.000 F 
ATOM     22  C   UNL     1      -1.199  11.113  23.146  0.00  0.00    +0.000 A 
ATOM     23  C   UNL     1      -0.685   9.842  22.865  0.00  0.00    +0.000 A 
ENDBRANCH  16  17
ENDBRANCH   4  15
TORSDOF 2
ENDMDL
MODEL 8
REMARK VINA RESULT:      -7.2      7.520      8.661
REMARK  Name = 
REMARK  6 active torsions:
REMARK  status: ('A' for Active; 'I' for Inactive)
REMARK    1  A    between atoms: C_1  and  C_2
REMARK    2  A    between atoms: C_4  and  C_5
REMARK    3  A    between atoms: C_6  and  C_7
REMARK    4  A    between atoms: C_14  and  C_15
REMARK    5  A    between atoms: C_19  and  C_20
REMARK    6  A    between atoms: C_19  and  C_21
REMARK                            x       y       z     vdW  Elec       q    Type
REMARK                         _______ _______ _______ _____ _____    ______ ____
ROOT
ATOM      1  C   UNL     1       1.607  12.850  18.234  0.00  0.00    +0.000 C 
ATOM      2  C   UNL     1       1.436  11.541  18.945  0.00  0.00    +0.000 A 
ATOM      3  N   UNL     1       1.920  10.447  18.315  0.00  0.00    +0.000 NA
ATOM      4  C   UNL     1       1.772   9.223  18.887  0.00  0.00    +0.000 A 
ATOM      5  C   UNL     1       1.153   9.062  20.139  0.00  0.00    +0.000 A 
ATOM      6  C   UNL     1       0.953   7.728  20.808  0.00  0.00    +0.000 C 
ATOM      7  C   UNL     1       0.697  10.229  20.806  0.00  0.00    +0.000 A 
ATOM      8  C   UNL     1       0.796  11.469  20.176  0.00  0.00    +0.000 A 
ATOM      9  O   UNL     1       0.271  12.614  20.711  0.00  0.00    +0.000 OA
ATOM     10  C   UNL     1      -0.650  12.384  21.784  0.00  0.00    +0.000 C 
ATOM     11  C   UNL     1      -2.036  12.003  21.239  0.00  0.00    +0.000 C 
ATOM     12  C   UNL     1      -0.781  13.708  22.541  0.00  0.00    +0.000 C 
ATOM     13  O   UNL     1      -0.156  11.444  22.735  0.00  0.00    +0.000 OA
ATOM     14  C   UNL     1       0.062  10.161  22.169  0.00  0.00    +0.000 C 
ENDROOT
BRANCH   4  15
ATOM     15  C   UNL     1       2.282   8.106  18.061  0.00  0.00    +0.000 C 
ATOM     16  C   UNL     1       3.363   7.373  18.384  0.00  0.00    +0.000 C 
BRANCH  16  17
ATOM     17  C   UNL     1       3.958   6.312  17.554  0.00  0.00    +0.000 A 
ATOM     18  C   UNL     1       4.935   6.675  16.610  0.00  0.00    +0.000 A 
ATOM     19  C   UNL     1       5.520   5.716  15.780  0.00  0.00    +0.000 A 
ATOM     20  C   UNL     1       5.139   4.387  15.899  0.00  0.00    +0.000 A 
ATOM     21  F   UNL     1       5.687   3.467  15.093  0.00  0.00    +0.000 F 
ATOM     22  C   UNL     1       4.200   3.997  16.845  0.00  0.00    +0.000 A 
ATOM     23  C   UNL     1       3.616   4.958  17.678  0.00  0.00    +0.000 A 
ENDBRANCH  16  17
ENDBRANCH   4  15
TORSDOF 2
ENDMDL
MODEL 9
REMARK VINA RESULT:      -7.2      7.578      8.707
REMARK  Name = 
REMARK  6 active torsions:
REMARK  status: ('A' for Active; 'I' for Inactive)
REMARK    1  A    between atoms: C_1  and  C_2
REMARK    2  A    between atoms: C_4  and  C_5
REMARK    3  A    between atoms: C_6  and  C_7
REMARK    4  A    between atoms: C_14  and  C_15
REMARK    5  A    between atoms: C_19  and  C_20
REMARK    6  A    between atoms: C_19  and  C_21
REMARK                            x       y       z     vdW  Elec       q    Type
REMARK                         _______ _______ _______ _____ _____    ______ ____
ROOT
ATOM      1  C   UNL     1       1.547  12.726  18.370  0.00  0.00    +0.000 C 
ATOM      2  C   UNL     1       1.384  11.414  19.078  0.00  0.00    +0.000 A 
ATOM      3  N   UNL     1       1.862  10.323  18.438  0.00  0.00    +0.000 NA
ATOM      4  C   UNL     1       1.720   9.097  19.007  0.00  0.00    +0.000 A 
ATOM      5  C   UNL     1       1.113   8.930  20.264  0.00  0.00    +0.000 A 
ATOM      6  C   UNL     1       0.922   7.593  20.930  0.00  0.00    +0.000 C 
ATOM      7  C   UNL     1       0.663  10.094  20.940  0.00  0.00    +0.000 A 
ATOM      8  C   UNL     1       0.755  11.337  20.314  0.00  0.00    +0.000 A 
ATOM      9  O   UNL     1       0.235  12.478  20.859  0.00  0.00    +0.000 OA
ATOM     10  C   UNL     1      -0.676  12.244  21.940  0.00  0.00    +0.000 C 
ATOM     11  C   UNL     1      -2.067  11.864  21.406  0.00  0.00    +0.000 C 
ATOM     12  C   UNL     1      -0.800  13.565  22.703  0.00  0.00    +0.000 C 
ATOM     13  O   UNL     1      -0.171  11.301  22.882  0.00  0.00    +0.000 OA
ATOM     14  C   UNL     1       0.041  10.020  22.309  0.00  0.00    +0.000 C 
ENDROOT
BRANCH   4  15
ATOM     15  C   UNL     1       2.223   7.983  18.172  0.00  0.00    +0.000 C 
ATOM     16  C   UNL     1       3.500   7.559  18.185  0.00  0.00    +0.000 C 
BRANCH  16  17
ATOM     17  C   UNL     1       4.065   6.515  17.312  0.00  0.00    +0.000 A 
ATOM     18  C   UNL     1       3.726   5.176  17.572  0.00  0.00    +0.000 A 
ATOM     19  C   UNL     1       4.248   4.141  16.793  0.00  0.00    +0.000 A 
ATOM     20  C   UNL     1       5.102   4.442  15.741  0.00  0.00    +0.000 A 
ATOM     21  F   UNL     1       5.616   3.451  15.002  0.00  0.00    +0.000 F 
ATOM     22  C   UNL     1       5.427   5.759  15.443  0.00  0.00    +0.000 A 
ATOM     23  C   UNL     1       4.903   6.796  16.224  0.00  0.00    +0.000 A 
ENDBRANCH  16  17
ENDBRANCH   4  15
TORSDOF 2
ENDMDL
