MODEL 1
REMARK VINA RESULT:      -6.6      0.000      0.000
REMARK  Name = 
REMARK  5 active torsions:
REMARK  status: ('A' for Active; 'I' for Inactive)
REMARK    1  A    between atoms: N_1  and  C_2
REMARK    2  A    between atoms: C_2  and  C_3
REMARK    3  A    between atoms: N_5  and  C_6
REMARK    4  A    between atoms: C_10  and  S_11
REMARK    5  A    between atoms: S_11  and  N_12
REMARK                            x       y       z     vdW  Elec       q    Type
REMARK                         _______ _______ _______ _____ _____    ______ ____
ROOT
ATOM      1  C   UNL     1       3.569   4.959  18.157  0.00  0.00    +0.000 A 
ATOM      2  C   UNL     1       3.291   6.330  18.116  0.00  0.00    +0.000 A 
ATOM      3  C   UNL     1       4.130   7.215  17.437  0.00  0.00    +0.000 A 
ATOM      4  C   UNL     1       5.259   6.739  16.782  0.00  0.00    +0.000 A 
ATOM      5  C   UNL     1       5.558   5.375  16.841  0.00  0.00    +0.000 A 
ATOM      6  C   UNL     1       4.730   4.482  17.537  0.00  0.00    +0.000 A 
ENDROOT
BRANCH   1   9
ATOM      7  C   UNL     1       1.462   3.639  18.376  0.00  0.00    +0.000 C 
ATOM      8  O   UNL     1       0.913   3.964  17.326  0.00  0.00    +0.000 OA
ATOM      9  N   UNL     1       2.724   4.034  18.800  0.00  0.00    +0.000 N 
ATOM     10  H   UNL     1       3.073   3.532  19.612  0.00  0.00    +0.000 HD
BRANCH   7  11
ATOM     11  C   UNL     1       0.793   2.640  19.323  0.00  0.00    +0.000 C 
BRANCH  11  12
ATOM     12  N   UNL     1       0.697   3.184  20.690  0.00  0.00    +0.000 NA
ATOM     13  H   UNL     1      -0.026   3.906  20.686  0.00  0.00    +0.000 HD
ATOM     14  H   UNL     1       1.566   3.687  20.890  0.00  0.00    +0.000 HD
ENDBRANCH  11  12
ENDBRANCH   7  11
ENDBRANCH   1   9
BRANCH   5  15
ATOM     15  S   UNL     1       6.941   4.772  15.923  0.00  0.00    +0.000 S 
ATOM     16  O   UNL     1       6.529   3.640  15.124  0.00  0.00    +0.000 OA
ATOM     17  O   UNL     1       7.666   5.890  15.362  0.00  0.00    +0.000 OA
BRANCH  15  18
ATOM     18  N   UNL     1       7.922   4.145  17.131  0.00  0.00    +0.000 NA
ATOM     19  H   UNL     1       8.087   4.858  17.842  0.00  0.00    +0.000 HD
ATOM     20  H   UNL     1       7.506   3.289  17.501  0.00  0.00    +0.000 HD
ENDBRANCH  15  18
ENDBRANCH   5  15
TORSDOF 5
ENDMDL
MODEL 2
REMARK VINA RESULT:      -6.5      1.531      1.669
REMARK  Name = 
REMARK  5 active torsions:
REMARK  status: ('A' for Active; 'I' for Inactive)
REMARK    1  A    between atoms: N_1  and  C_2
REMARK    2  A    between atoms: C_2  and  C_3
REMARK    3  A    between atoms: N_5  and  C_6
REMARK    4  A    between atoms: C_10  and  S_11
REMARK    5  A    between atoms: S_11  and  N_12
REMARK                            x       y       z     vdW  Elec       q    Type
REMARK                         _______ _______ _______ _____ _____    ______ ____
ROOT
ATOM      1  C   UNL     1       3.540   5.345  19.152  0.00  0.00    +0.000 A 
ATOM      2  C   UNL     1       3.010   6.533  18.637  0.00  0.00    +0.000 A 
ATOM      3  C   UNL     1       3.687   7.257  17.653  0.00  0.00    +0.000 A 
ATOM      4  C   UNL     1       4.903   6.795  17.164  0.00  0.00    +0.000 A 
ATOM      5  C   UNL     1       5.450   5.623  17.692  0.00  0.00    +0.000 A 
ATOM      6  C   UNL     1       4.786   4.901  18.694  0.00  0.00    +0.000 A 
ENDROOT
BRANCH   1   9
ATOM      7  C   UNL     1       1.861   3.644  19.874  0.00  0.00    +0.000 C 
ATOM      8  O   UNL     1       1.459   3.281  18.771  0.00  0.00    +0.000 OA
ATOM      9  N   UNL     1       2.865   4.572  20.117  0.00  0.00    +0.000 N 
ATOM     10  H   UNL     1       3.172   4.617  21.085  0.00  0.00    +0.000 HD
BRANCH   7  11
ATOM     11  C   UNL     1       1.315   2.998  21.149  0.00  0.00    +0.000 C 
BRANCH  11  12
ATOM     12  N   UNL     1       2.393   2.746  22.123  0.00  0.00    +0.000 NA
ATOM     13  H   UNL     1       2.625   3.637  22.565  0.00  0.00    +0.000 HD
ATOM     14  H   UNL     1       3.234   2.487  21.602  0.00  0.00    +0.000 HD
ENDBRANCH  11  12
ENDBRANCH   7  11
ENDBRANCH   1   9
BRANCH   5  15
ATOM     15  S   UNL     1       6.947   4.998  16.993  0.00  0.00    +0.000 S 
ATOM     16  O   UNL     1       7.468   5.955  16.044  0.00  0.00    +0.000 OA
ATOM     17  O   UNL     1       7.763   4.429  18.042  0.00  0.00    +0.000 OA
BRANCH  15  18
ATOM     18  N   UNL     1       6.398   3.703  16.081  0.00  0.00    +0.000 NA
ATOM     19  H   UNL     1       5.777   3.123  16.646  0.00  0.00    +0.000 HD
ATOM     20  H   UNL     1       5.965   4.046  15.221  0.00  0.00    +0.000 HD
ENDBRANCH  15  18
ENDBRANCH   5  15
TORSDOF 5
ENDMDL
MODEL 3
REMARK VINA RESULT:      -6.4      1.251      1.251
REMARK  Name = 
REMARK  5 active torsions:
REMARK  status: ('A' for Active; 'I' for Inactive)
REMARK    1  A    between atoms: N_1  and  C_2
REMARK    2  A    between atoms: C_2  and  C_3
REMARK    3  A    between atoms: N_5  and  C_6
REMARK    4  A    between atoms: C_10  and  S_11
REMARK    5  A    between atoms: S_11  and  N_12
REMARK                            x       y       z     vdW  Elec       q    Type
REMARK                         _______ _______ _______ _____ _____    ______ ____
ROOT
ATOM      1  C   UNL     1       3.482   5.383  19.086  0.00  0.00    +0.000 A 
ATOM      2  C   UNL     1       2.946   6.593  18.631  0.00  0.00    +0.000 A 
ATOM      3  C   UNL     1       3.563   7.314  17.606  0.00  0.00    +0.000 A 
ATOM      4  C   UNL     1       4.723   6.827  17.016  0.00  0.00    +0.000 A 
ATOM      5  C   UNL     1       5.278   5.633  17.483  0.00  0.00    +0.000 A 
ATOM      6  C   UNL     1       4.675   4.914  18.525  0.00  0.00    +0.000 A 
ENDROOT
BRANCH   1   9
ATOM      7  C   UNL     1       1.815   3.722  19.918  0.00  0.00    +0.000 C 
ATOM      8  O   UNL     1       1.310   3.392  18.847  0.00  0.00    +0.000 OA
ATOM      9  N   UNL     1       2.864   4.614  20.092  0.00  0.00    +0.000 N 
ATOM     10  H   UNL     1       3.252   4.631  21.031  0.00  0.00    +0.000 HD
BRANCH   7  11
ATOM     11  C   UNL     1       1.354   3.070  21.223  0.00  0.00    +0.000 C 
BRANCH  11  12
ATOM     12  N   UNL     1       2.505   2.620  22.030  0.00  0.00    +0.000 NA
ATOM     13  H   UNL     1       3.158   2.149  21.401  0.00  0.00    +0.000 HD
ATOM     14  H   UNL     1       2.178   1.887  22.663  0.00  0.00    +0.000 HD
ENDBRANCH  11  12
ENDBRANCH   7  11
ENDBRANCH   1   9
BRANCH   5  15
ATOM     15  S   UNL     1       6.697   4.980  16.659  0.00  0.00    +0.000 S 
ATOM     16  O   UNL     1       6.300   3.856  15.841  0.00  0.00    +0.000 OA
ATOM     17  O   UNL     1       7.492   6.070  16.139  0.00  0.00    +0.000 OA
BRANCH  15  18
ATOM     18  N   UNL     1       7.578   4.331  17.930  0.00  0.00    +0.000 NA
ATOM     19  H   UNL     1       7.421   4.884  18.773  0.00  0.00    +0.000 HD
ATOM     20  H   UNL     1       7.344   3.343  18.041  0.00  0.00    +0.000 HD
ENDBRANCH  15  18
ENDBRANCH   5  15
TORSDOF 5
ENDMDL
MODEL 4
REMARK VINA RESULT:      -6.4      0.958      1.090
REMARK  Name = 
REMARK  5 active torsions:
REMARK  status: ('A' for Active; 'I' for Inactive)
REMARK    1  A    between atoms: N_1  and  C_2
REMARK    2  A    between atoms: C_2  and  C_3
REMARK    3  A    between atoms: N_5  and  C_6
REMARK    4  A    between atoms: C_10  and  S_11
REMARK    5  A    between atoms: S_11  and  N_12
REMARK                            x       y       z     vdW  Elec       q    Type
REMARK                         _______ _______ _______ _____ _____    ______ ____
ROOT
ATOM      1  C   UNL     1       3.581   5.096  18.278  0.00  0.00    +0.000 A 
ATOM      2  C   UNL     1       3.302   6.455  18.094  0.00  0.00    +0.000 A 
ATOM      3  C   UNL     1       4.155   7.270  17.347  0.00  0.00    +0.000 A 
ATOM      4  C   UNL     1       5.297   6.733  16.766  0.00  0.00    +0.000 A 
ATOM      5  C   UNL     1       5.596   5.383  16.967  0.00  0.00    +0.000 A 
ATOM      6  C   UNL     1       4.754   4.563  17.733  0.00  0.00    +0.000 A 
ENDROOT
BRANCH   1   9
ATOM      7  C   UNL     1       1.524   3.707  18.539  0.00  0.00    +0.000 C 
ATOM      8  O   UNL     1       1.057   3.827  17.409  0.00  0.00    +0.000 OA
ATOM      9  N   UNL     1       2.723   4.239  18.994  0.00  0.00    +0.000 N 
ATOM     10  H   UNL     1       3.020   3.893  19.903  0.00  0.00    +0.000 HD
BRANCH   7  11
ATOM     11  C   UNL     1       0.817   2.836  19.580  0.00  0.00    +0.000 C 
BRANCH  11  12
ATOM     12  N   UNL     1       1.627   2.706  20.805  0.00  0.00    +0.000 NA
ATOM     13  H   UNL     1       1.610   1.723  21.085  0.00  0.00    +0.000 HD
ATOM     14  H   UNL     1       1.140   3.199  21.558  0.00  0.00    +0.000 HD
ENDBRANCH  11  12
ENDBRANCH   7  11
ENDBRANCH   1   9
BRANCH   5  15
ATOM     15  S   UNL     1       6.998   4.694  16.143  0.00  0.00    +0.000 S 
ATOM     16  O   UNL     1       7.373   5.549  15.041  0.00  0.00    +0.000 OA
ATOM     17  O   UNL     1       7.954   4.239  17.128  0.00  0.00    +0.000 OA
BRANCH  15  18
ATOM     18  N   UNL     1       6.356   3.309  15.449  0.00  0.00    +0.000 NA
ATOM     19  H   UNL     1       6.941   2.506  15.681  0.00  0.00    +0.000 HD
ATOM     20  H   UNL     1       5.382   3.200  15.738  0.00  0.00    +0.000 HD
ENDBRANCH  15  18
ENDBRANCH   5  15
TORSDOF 5
ENDMDL
MODEL 5
REMARK VINA RESULT:      -6.3      1.828      1.844
REMARK  Name = 
REMARK  5 active torsions:
REMARK  status: ('A' for Active; 'I' for Inactive)
REMARK    1  A    between atoms: N_1  and  C_2
REMARK    2  A    between atoms: C_2  and  C_3
REMARK    3  A    between atoms: N_5  and  C_6
REMARK    4  A    between atoms: C_10  and  S_11
REMARK    5  A    between atoms: S_11  and  N_12
REMARK                            x       y       z     vdW  Elec       q    Type
REMARK                         _______ _______ _______ _____ _____    ______ ____
ROOT
ATOM      1  C   UNL     1       3.558   5.487  19.266  0.00  0.00    +0.000 A 
ATOM      2  C   UNL     1       2.892   6.463  18.515  0.00  0.00    +0.000 A 
ATOM      3  C   UNL     1       3.568   7.220  17.557  0.00  0.00    +0.000 A 
ATOM      4  C   UNL     1       4.922   7.005  17.330  0.00  0.00    +0.000 A 
ATOM      5  C   UNL     1       5.599   6.051  18.094  0.00  0.00    +0.000 A 
ATOM      6  C   UNL     1       4.931   5.300  19.072  0.00  0.00    +0.000 A 
ENDROOT
BRANCH   1   9
ATOM      7  C   UNL     1       1.955   3.697  19.944  0.00  0.00    +0.000 C 
ATOM      8  O   UNL     1       1.607   3.310  18.831  0.00  0.00    +0.000 OA
ATOM      9  N   UNL     1       2.897   4.681  20.213  0.00  0.00    +0.000 N 
ATOM     10  H   UNL     1       3.172   4.745  21.190  0.00  0.00    +0.000 HD
BRANCH   7  11
ATOM     11  C   UNL     1       1.405   3.026  21.204  0.00  0.00    +0.000 C 
BRANCH  11  12
ATOM     12  N   UNL     1       2.498   2.569  22.083  0.00  0.00    +0.000 NA
ATOM     13  H   UNL     1       3.352   2.536  21.524  0.00  0.00    +0.000 HD
ATOM     14  H   UNL     1       2.312   1.594  22.334  0.00  0.00    +0.000 HD
ENDBRANCH  11  12
ENDBRANCH   7  11
ENDBRANCH   1   9
BRANCH   5  15
ATOM     15  S   UNL     1       7.295   5.722  17.728  0.00  0.00    +0.000 S 
ATOM     16  O   UNL     1       7.602   4.352  18.069  0.00  0.00    +0.000 OA
ATOM     17  O   UNL     1       7.624   6.289  16.439  0.00  0.00    +0.000 OA
BRANCH  15  18
ATOM     18  N   UNL     1       8.092   6.665  18.863  0.00  0.00    +0.000 NA
ATOM     19  H   UNL     1       9.051   6.334  18.972  0.00  0.00    +0.000 HD
ATOM     20  H   UNL     1       8.029   7.650  18.598  0.00  0.00    +0.000 HD
ENDBRANCH  15  18
ENDBRANCH   5  15
TORSDOF 5
ENDMDL
MODEL 6
REMARK VINA RESULT:      -6.3      1.448      1.622
REMARK  Name = 
REMARK  5 active torsions:
REMARK  status: ('A' for Active; 'I' for Inactive)
REMARK    1  A    between atoms: N_1  and  C_2
REMARK    2  A    between atoms: C_2  and  C_3
REMARK    3  A    between atoms: N_5  and  C_6
REMARK    4  A    between atoms: C_10  and  S_11
REMARK    5  A    between atoms: S_11  and  N_12
REMARK                            x       y       z     vdW  Elec       q    Type
REMARK                         _______ _______ _______ _____ _____    ______ ____
ROOT
ATOM      1  C   UNL     1       3.646   5.239  18.953  0.00  0.00    +0.000 A 
ATOM      2  C   UNL     1       3.197   6.487  18.506  0.00  0.00    +0.000 A 
ATOM      3  C   UNL     1       3.852   7.160  17.473  0.00  0.00    +0.000 A 
ATOM      4  C   UNL     1       4.963   6.588  16.866  0.00  0.00    +0.000 A 
ATOM      5  C   UNL     1       5.433   5.355  17.324  0.00  0.00    +0.000 A 
ATOM      6  C   UNL     1       4.792   4.682  18.375  0.00  0.00    +0.000 A 
ENDROOT
BRANCH   1   9
ATOM      7  C   UNL     1       1.982   3.575  19.787  0.00  0.00    +0.000 C 
ATOM      8  O   UNL     1       1.565   3.153  18.710  0.00  0.00    +0.000 OA
ATOM      9  N   UNL     1       2.986   4.517  19.967  0.00  0.00    +0.000 N 
ATOM     10  H   UNL     1       3.307   4.613  20.926  0.00  0.00    +0.000 HD
BRANCH   7  11
ATOM     11  C   UNL     1       1.455   2.997  21.101  0.00  0.00    +0.000 C 
BRANCH  11  12
ATOM     12  N   UNL     1       2.560   2.674  22.023  0.00  0.00    +0.000 NA
ATOM     13  H   UNL     1       3.322   3.327  21.833  0.00  0.00    +0.000 HD
ATOM     14  H   UNL     1       2.930   1.757  21.761  0.00  0.00    +0.000 HD
ENDBRANCH  11  12
ENDBRANCH   7  11
ENDBRANCH   1   9
BRANCH   5  15
ATOM     15  S   UNL     1       6.786   4.597  16.479  0.00  0.00    +0.000 S 
ATOM     16  O   UNL     1       7.861   4.358  17.415  0.00  0.00    +0.000 OA
ATOM     17  O   UNL     1       6.283   3.564  15.601  0.00  0.00    +0.000 OA
BRANCH  15  18
ATOM     18  N   UNL     1       7.317   5.834  15.479  0.00  0.00    +0.000 NA
ATOM     19  H   UNL     1       7.962   5.460  14.783  0.00  0.00    +0.000 HD
ATOM     20  H   UNL     1       6.513   6.317  15.073  0.00  0.00    +0.000 HD
ENDBRANCH  15  18
ENDBRANCH   5  15
TORSDOF 5
ENDMDL
MODEL 7
REMARK VINA RESULT:      -6.2      1.853      1.885
REMARK  Name = 
REMARK  5 active torsions:
REMARK  status: ('A' for Active; 'I' for Inactive)
REMARK    1  A    between atoms: N_1  and  C_2
REMARK    2  A    between atoms: C_2  and  C_3
REMARK    3  A    between atoms: N_5  and  C_6
REMARK    4  A    between atoms: C_10  and  S_11
REMARK    5  A    between atoms: S_11  and  N_12
REMARK                            x       y       z     vdW  Elec       q    Type
REMARK                         _______ _______ _______ _____ _____    ______ ____
ROOT
ATOM      1  C   UNL     1       3.575   5.098  18.660  0.00  0.00    +0.000 A 
ATOM      2  C   UNL     1       3.160   6.111  17.787  0.00  0.00    +0.000 A 
ATOM      3  C   UNL     1       4.079   6.996  17.221  0.00  0.00    +0.000 A 
ATOM      4  C   UNL     1       5.432   6.873  17.514  0.00  0.00    +0.000 A 
ATOM      5  C   UNL     1       5.851   5.882  18.405  0.00  0.00    +0.000 A 
ATOM      6  C   UNL     1       4.931   5.002  18.993  0.00  0.00    +0.000 A 
ENDROOT
BRANCH   1   9
ATOM      7  C   UNL     1       1.974   3.188  18.531  0.00  0.00    +0.000 C 
ATOM      8  O   UNL     1       2.082   2.917  17.338  0.00  0.00    +0.000 OA
ATOM      9  N   UNL     1       2.678   4.167  19.219  0.00  0.00    +0.000 N 
ATOM     10  H   UNL     1       2.576   4.129  20.229  0.00  0.00    +0.000 HD
BRANCH   7  11
ATOM     11  C   UNL     1       1.057   2.359  19.433  0.00  0.00    +0.000 C 
BRANCH  11  12
ATOM     12  N   UNL     1       0.747   3.077  20.683  0.00  0.00    +0.000 NA
ATOM     13  H   UNL     1       0.721   4.076  20.468  0.00  0.00    +0.000 HD
ATOM     14  H   UNL     1       1.545   2.967  21.314  0.00  0.00    +0.000 HD
ENDBRANCH  11  12
ENDBRANCH   7  11
ENDBRANCH   1   9
BRANCH   5  15
ATOM     15  S   UNL     1       7.582   5.678  18.691  0.00  0.00    +0.000 S 
ATOM     16  O   UNL     1       8.030   4.455  18.066  0.00  0.00    +0.000 OA
ATOM     17  O   UNL     1       8.252   6.943  18.483  0.00  0.00    +0.000 OA
BRANCH  15  18
ATOM     18  N   UNL     1       7.637   5.394  20.343  0.00  0.00    +0.000 NA
ATOM     19  H   UNL     1       7.999   6.219  20.822  0.00  0.00    +0.000 HD
ATOM     20  H   UNL     1       6.714   5.104  20.673  0.00  0.00    +0.000 HD
ENDBRANCH  15  18
ENDBRANCH   5  15
TORSDOF 5
ENDMDL
MODEL 8
REMARK VINA RESULT:      -6.2      2.203      2.410
REMARK  Name = 
REMARK  5 active torsions:
REMARK  status: ('A' for Active; 'I' for Inactive)
REMARK    1  A    between atoms: N_1  and  C_2
REMARK    2  A    between atoms: C_2  and  C_3
REMARK    3  A    between atoms: N_5  and  C_6
REMARK    4  A    between atoms: C_10  and  S_11
REMARK    5  A    between atoms: S_11  and  N_12
REMARK                            x       y       z     vdW  Elec       q    Type
REMARK                         _______ _______ _______ _____ _____    ______ ____
ROOT
ATOM      1  C   UNL     1       3.505   5.186  19.092  0.00  0.00    +0.000 A 
ATOM      2  C   UNL     1       3.081   5.928  17.983  0.00  0.00    +0.000 A 
ATOM      3  C   UNL     1       3.996   6.614  17.183  0.00  0.00    +0.000 A 
ATOM      4  C   UNL     1       5.353   6.561  17.477  0.00  0.00    +0.000 A 
ATOM      5  C   UNL     1       5.781   5.844  18.597  0.00  0.00    +0.000 A 
ATOM      6  C   UNL     1       4.866   5.169  19.417  0.00  0.00    +0.000 A 
ENDROOT
BRANCH   1   9
ATOM      7  C   UNL     1       2.279   3.113  19.747  0.00  0.00    +0.000 C 
ATOM      8  O   UNL     1       2.772   2.327  18.942  0.00  0.00    +0.000 OA
ATOM      9  N   UNL     1       2.612   4.452  19.897  0.00  0.00    +0.000 N 
ATOM     10  H   UNL     1       2.219   4.895  20.723  0.00  0.00    +0.000 HD
BRANCH   7  11
ATOM     11  C   UNL     1       1.252   2.629  20.772  0.00  0.00    +0.000 C 
BRANCH  11  12
ATOM     12  N   UNL     1       1.787   2.712  22.144  0.00  0.00    +0.000 NA
ATOM     13  H   UNL     1       1.135   2.225  22.761  0.00  0.00    +0.000 HD
ATOM     14  H   UNL     1       1.744   3.690  22.439  0.00  0.00    +0.000 HD
ENDBRANCH  11  12
ENDBRANCH   7  11
ENDBRANCH   1   9
BRANCH   5  15
ATOM     15  S   UNL     1       7.516   5.707  18.901  0.00  0.00    +0.000 S 
ATOM     16  O   UNL     1       8.188   6.871  18.373  0.00  0.00    +0.000 OA
ATOM     17  O   UNL     1       7.728   5.240  20.254  0.00  0.00    +0.000 OA
BRANCH  15  18
ATOM     18  N   UNL     1       7.951   4.434  17.900  0.00  0.00    +0.000 NA
ATOM     19  H   UNL     1       7.121   4.057  17.443  0.00  0.00    +0.000 HD
ATOM     20  H   UNL     1       8.673   4.742  17.246  0.00  0.00    +0.000 HD
ENDBRANCH  15  18
ENDBRANCH   5  15
TORSDOF 5
ENDMDL
MODEL 9
REMARK VINA RESULT:      -6.2      1.921      2.143
REMARK  Name = 
REMARK  5 active torsions:
REMARK  status: ('A' for Active; 'I' for Inactive)
REMARK    1  A    between atoms: N_1  and  C_2
REMARK    2  A    between atoms: C_2  and  C_3
REMARK    3  A    between atoms: N_5  and  C_6
REMARK    4  A    between atoms: C_10  and  S_11
REMARK    5  A    between atoms: S_11  and  N_12
REMARK                            x       y       z     vdW  Elec       q    Type
REMARK                         _______ _______ _______ _____ _____    ______ ____
ROOT
ATOM      1  C   UNL     1       3.528   5.375  19.278  0.00  0.00    +0.000 A 
ATOM      2  C   UNL     1       2.853   6.311  18.486  0.00  0.00    +0.000 A 
ATOM      3  C   UNL     1       3.537   7.092  17.552  0.00  0.00    +0.000 A 
ATOM      4  C   UNL     1       4.908   6.939  17.391  0.00  0.00    +0.000 A 
ATOM      5  C   UNL     1       5.593   6.026  18.196  0.00  0.00    +0.000 A 
ATOM      6  C   UNL     1       4.917   5.253  19.150  0.00  0.00    +0.000 A 
ENDROOT
BRANCH   1   9
ATOM      7  C   UNL     1       1.904   3.587  19.906  0.00  0.00    +0.000 C 
ATOM      8  O   UNL     1       1.541   3.244  18.784  0.00  0.00    +0.000 OA
ATOM      9  N   UNL     1       2.863   4.546  20.202  0.00  0.00    +0.000 N 
ATOM     10  H   UNL     1       3.147   4.572  21.178  0.00  0.00    +0.000 HD
BRANCH   7  11
ATOM     11  C   UNL     1       1.354   2.881  21.147  0.00  0.00    +0.000 C 
BRANCH  11  12
ATOM     12  N   UNL     1       2.417   2.649  22.143  0.00  0.00    +0.000 NA
ATOM     13  H   UNL     1       1.968   2.349  23.011  0.00  0.00    +0.000 HD
ATOM     14  H   UNL     1       2.840   3.553  22.368  0.00  0.00    +0.000 HD
ENDBRANCH  11  12
ENDBRANCH   7  11
ENDBRANCH   1   9
BRANCH   5  15
ATOM     15  S   UNL     1       7.319   5.776  17.912  0.00  0.00    +0.000 S 
ATOM     16  O   UNL     1       8.067   6.838  18.544  0.00  0.00    +0.000 OA
ATOM     17  O   UNL     1       7.638   4.380  18.115  0.00  0.00    +0.000 OA
BRANCH  15  18
ATOM     18  N   UNL     1       7.449   6.044  16.262  0.00  0.00    +0.000 NA
ATOM     19  H   UNL     1       6.581   6.448  15.910  0.00  0.00    +0.000 HD
ATOM     20  H   UNL     1       8.273   6.618  16.071  0.00  0.00    +0.000 HD
ENDBRANCH  15  18
ENDBRANCH   5  15
TORSDOF 5
ENDMDL
