MODEL 1
REMARK VINA RESULT:      -6.8      0.000      0.000
REMARK  Name = 
REMARK  10 active torsions:
REMARK  status: ('A' for Active; 'I' for Inactive)
REMARK    1  A    between atoms: C_1  and  N_2
REMARK    2  A    between atoms: C_4  and  C_5
REMARK    3  A    between atoms: N_7  and  C_8
REMARK    4  A    between atoms: C_8  and  C_9
REMARK    5  A    between atoms: C_8  and  C_10
REMARK    6  A    between atoms: C_8  and  C_11
REMARK    7  A    between atoms: C_11  and  C_12
REMARK    8  A    between atoms: C_12  and  C_13
REMARK    9  A    between atoms: C_12  and  C_14
REMARK   10  A    between atoms: C_12  and  C_15
REMARK                            x       y       z     vdW  Elec       q    Type
REMARK                         _______ _______ _______ _____ _____    ______ ____
ROOT
ATOM      1  C   UNL     1       2.817   5.830  19.289  0.00  0.00    +0.000 C 
ATOM      2  O   UNL     1       2.835   5.239  20.361  0.00  0.00    +0.000 OA
ATOM      3  N   UNL     1       3.304   5.326  18.104  0.00  0.00    +0.000 N 
ATOM      4  H   UNL     1       3.300   5.957  17.306  0.00  0.00    +0.000 HD
ENDROOT
BRANCH   1   8
ATOM      5  C   UNL     1       0.643   9.603  21.496  0.00  0.00    +0.000 C 
ATOM      6  N   UNL     1       1.209   9.047  20.278  0.00  0.00    +0.000 N 
ATOM      7  N   UNL     1       1.723   7.767  20.354  0.00  0.00    +0.000 NA
ATOM      8  C   UNL     1       2.241   7.245  19.279  0.00  0.00    +0.000 C 
ATOM      9  C   UNL     1       2.326   7.920  17.946  0.00  0.00    +0.000 C 
ATOM     10  C   UNL     1       1.777   9.313  17.886  0.00  0.00    +0.000 C 
ATOM     11  C   UNL     1       1.192   9.855  19.152  0.00  0.00    +0.000 C 
ATOM     12  O   UNL     1       0.718  10.998  19.154  0.00  0.00    +0.000 OA
ENDBRANCH   1   8
BRANCH   3  13
ATOM     13  C   UNL     1       4.032   4.021  18.017  0.00  0.00    +0.000 C 
ATOM     14  C   UNL     1       5.184   4.083  19.034  0.00  0.00    +0.000 C 
ATOM     15  C   UNL     1       3.067   2.906  18.462  0.00  0.00    +0.000 C 
BRANCH  13  16
ATOM     16  C   UNL     1       4.557   3.831  16.544  0.00  0.00    +0.000 C 
BRANCH  16  17
ATOM     17  C   UNL     1       5.615   4.758  15.851  0.00  0.00    +0.000 C 
ATOM     18  C   UNL     1       7.038   4.578  16.403  0.00  0.00    +0.000 C 
ATOM     19  C   UNL     1       5.678   4.352  14.353  0.00  0.00    +0.000 C 
ATOM     20  C   UNL     1       5.233   6.241  15.894  0.00  0.00    +0.000 C 
ENDBRANCH  16  17
ENDBRANCH  13  16
ENDBRANCH   3  13
TORSDOF 4
ENDMDL
MODEL 2
REMARK VINA RESULT:      -6.7      1.199      2.125
REMARK  Name = 
REMARK  10 active torsions:
REMARK  status: ('A' for Active; 'I' for Inactive)
REMARK    1  A    between atoms: C_1  and  N_2
REMARK    2  A    between atoms: C_4  and  C_5
REMARK    3  A    between atoms: N_7  and  C_8
REMARK    4  A    between atoms: C_8  and  C_9
REMARK    5  A    between atoms: C_8  and  C_10
REMARK    6  A    between atoms: C_8  and  C_11
REMARK    7  A    between atoms: C_11  and  C_12
REMARK    8  A    between atoms: C_12  and  C_13
REMARK    9  A    between atoms: C_12  and  C_14
REMARK   10  A    between atoms: C_12  and  C_15
REMARK                            x       y       z     vdW  Elec       q    Type
REMARK                         _______ _______ _______ _____ _____    ______ ____
ROOT
ATOM      1  C   UNL     1       2.980   6.312  19.068  0.00  0.00    +0.000 C 
ATOM      2  O   UNL     1       3.142   5.654  20.087  0.00  0.00    +0.000 OA
ATOM      3  N   UNL     1       3.476   5.976  17.828  0.00  0.00    +0.000 N 
ATOM      4  H   UNL     1       3.336   6.656  17.084  0.00  0.00    +0.000 HD
ENDROOT
BRANCH   1   8
ATOM      5  C   UNL     1       0.446   9.572  21.673  0.00  0.00    +0.000 C 
ATOM      6  N   UNL     1       0.991   9.180  20.383  0.00  0.00    +0.000 N 
ATOM      7  N   UNL     1       1.696   7.992  20.336  0.00  0.00    +0.000 NA
ATOM      8  C   UNL     1       2.200   7.619  19.194  0.00  0.00    +0.000 C 
ATOM      9  C   UNL     1       2.076   8.373  17.907  0.00  0.00    +0.000 C 
ATOM     10  C   UNL     1       1.320   9.665  17.981  0.00  0.00    +0.000 C 
ATOM     11  C   UNL     1       0.764  10.038  19.319  0.00  0.00    +0.000 C 
ATOM     12  O   UNL     1       0.125  11.091  19.431  0.00  0.00    +0.000 OA
ENDBRANCH   1   8
BRANCH   3  13
ATOM     13  C   UNL     1       4.385   4.808  17.608  0.00  0.00    +0.000 C 
ATOM     14  C   UNL     1       3.555   3.540  17.867  0.00  0.00    +0.000 C 
ATOM     15  C   UNL     1       4.807   4.804  16.126  0.00  0.00    +0.000 C 
BRANCH  13  16
ATOM     16  C   UNL     1       5.606   4.924  18.597  0.00  0.00    +0.000 C 
BRANCH  16  17
ATOM     17  C   UNL     1       7.023   5.465  18.202  0.00  0.00    +0.000 C 
ATOM     18  C   UNL     1       6.982   6.843  17.521  0.00  0.00    +0.000 C 
ATOM     19  C   UNL     1       7.831   5.655  19.515  0.00  0.00    +0.000 C 
ATOM     20  C   UNL     1       7.817   4.486  17.329  0.00  0.00    +0.000 C 
ENDBRANCH  16  17
ENDBRANCH  13  16
ENDBRANCH   3  13
TORSDOF 4
ENDMDL
MODEL 3
REMARK VINA RESULT:      -6.6      0.972      1.021
REMARK  Name = 
REMARK  10 active torsions:
REMARK  status: ('A' for Active; 'I' for Inactive)
REMARK    1  A    between atoms: C_1  and  N_2
REMARK    2  A    between atoms: C_4  and  C_5
REMARK    3  A    between atoms: N_7  and  C_8
REMARK    4  A    between atoms: C_8  and  C_9
REMARK    5  A    between atoms: C_8  and  C_10
REMARK    6  A    between atoms: C_8  and  C_11
REMARK    7  A    between atoms: C_11  and  C_12
REMARK    8  A    between atoms: C_12  and  C_13
REMARK    9  A    between atoms: C_12  and  C_14
REMARK   10  A    between atoms: C_12  and  C_15
REMARK                            x       y       z     vdW  Elec       q    Type
REMARK                         _______ _______ _______ _____ _____    ______ ____
ROOT
ATOM      1  C   UNL     1       2.967   6.048  18.471  0.00  0.00    +0.000 C 
ATOM      2  O   UNL     1       2.250   5.165  18.019  0.00  0.00    +0.000 OA
ATOM      3  N   UNL     1       4.328   5.942  18.649  0.00  0.00    +0.000 N 
ATOM      4  H   UNL     1       4.788   6.724  19.112  0.00  0.00    +0.000 HD
ENDROOT
BRANCH   1   8
ATOM      5  C   UNL     1       0.886   8.906  21.838  0.00  0.00    +0.000 C 
ATOM      6  N   UNL     1       1.295   8.728  20.454  0.00  0.00    +0.000 N 
ATOM      7  N   UNL     1       1.910   7.534  20.131  0.00  0.00    +0.000 NA
ATOM      8  C   UNL     1       2.291   7.350  18.899  0.00  0.00    +0.000 C 
ATOM      9  C   UNL     1       2.114   8.332  17.784  0.00  0.00    +0.000 C 
ATOM     10  C   UNL     1       1.458   9.627  18.156  0.00  0.00    +0.000 C 
ATOM     11  C   UNL     1       1.040   9.777  19.585  0.00  0.00    +0.000 C 
ATOM     12  O   UNL     1       0.486  10.824  19.941  0.00  0.00    +0.000 OA
ENDBRANCH   1   8
BRANCH   3  13
ATOM     13  C   UNL     1       5.079   4.668  18.417  0.00  0.00    +0.000 C 
ATOM     14  C   UNL     1       6.537   4.926  18.833  0.00  0.00    +0.000 C 
ATOM     15  C   UNL     1       4.501   3.595  19.358  0.00  0.00    +0.000 C 
BRANCH  13  16
ATOM     16  C   UNL     1       4.961   4.282  16.894  0.00  0.00    +0.000 C 
BRANCH  16  17
ATOM     17  C   UNL     1       5.696   5.029  15.728  0.00  0.00    +0.000 C 
ATOM     18  C   UNL     1       7.229   4.972  15.837  0.00  0.00    +0.000 C 
ATOM     19  C   UNL     1       5.329   4.302  14.405  0.00  0.00    +0.000 C 
ATOM     20  C   UNL     1       5.248   6.487  15.573  0.00  0.00    +0.000 C 
ENDBRANCH  16  17
ENDBRANCH  13  16
ENDBRANCH   3  13
TORSDOF 4
ENDMDL
MODEL 4
REMARK VINA RESULT:      -6.6      1.447      2.167
REMARK  Name = 
REMARK  10 active torsions:
REMARK  status: ('A' for Active; 'I' for Inactive)
REMARK    1  A    between atoms: C_1  and  N_2
REMARK    2  A    between atoms: C_4  and  C_5
REMARK    3  A    between atoms: N_7  and  C_8
REMARK    4  A    between atoms: C_8  and  C_9
REMARK    5  A    between atoms: C_8  and  C_10
REMARK    6  A    between atoms: C_8  and  C_11
REMARK    7  A    between atoms: C_11  and  C_12
REMARK    8  A    between atoms: C_12  and  C_13
REMARK    9  A    between atoms: C_12  and  C_14
REMARK   10  A    between atoms: C_12  and  C_15
REMARK                            x       y       z     vdW  Elec       q    Type
REMARK                         _______ _______ _______ _____ _____    ______ ____
ROOT
ATOM      1  C   UNL     1       2.926   6.672  18.984  0.00  0.00    +0.000 C 
ATOM      2  O   UNL     1       3.066   5.820  19.851  0.00  0.00    +0.000 OA
ATOM      3  N   UNL     1       3.530   6.642  17.747  0.00  0.00    +0.000 N 
ATOM      4  H   UNL     1       3.391   7.458  17.154  0.00  0.00    +0.000 HD
ENDROOT
BRANCH   1   8
ATOM      5  C   UNL     1       0.213   9.282  22.092  0.00  0.00    +0.000 C 
ATOM      6  N   UNL     1       0.748   9.132  20.749  0.00  0.00    +0.000 N 
ATOM      7  N   UNL     1       1.547   8.030  20.512  0.00  0.00    +0.000 NA
ATOM      8  C   UNL     1       2.044   7.874  19.318  0.00  0.00    +0.000 C 
ATOM      9  C   UNL     1       1.817   8.795  18.160  0.00  0.00    +0.000 C 
ATOM     10  C   UNL     1       0.959   9.991  18.440  0.00  0.00    +0.000 C 
ATOM     11  C   UNL     1       0.416  10.114  19.829  0.00  0.00    +0.000 C 
ATOM     12  O   UNL     1      -0.305  11.079  20.108  0.00  0.00    +0.000 OA
ENDBRANCH   1   8
BRANCH   3  13
ATOM     13  C   UNL     1       4.536   5.604  17.361  0.00  0.00    +0.000 C 
ATOM     14  C   UNL     1       3.775   4.276  17.211  0.00  0.00    +0.000 C 
ATOM     15  C   UNL     1       5.107   5.981  15.981  0.00  0.00    +0.000 C 
BRANCH  13  16
ATOM     16  C   UNL     1       5.638   5.526  18.485  0.00  0.00    +0.000 C 
BRANCH  16  17
ATOM     17  C   UNL     1       7.172   5.739  18.243  0.00  0.00    +0.000 C 
ATOM     18  C   UNL     1       8.004   5.711  19.535  0.00  0.00    +0.000 C 
ATOM     19  C   UNL     1       7.676   4.551  17.378  0.00  0.00    +0.000 C 
ATOM     20  C   UNL     1       7.483   7.021  17.462  0.00  0.00    +0.000 C 
ENDBRANCH  16  17
ENDBRANCH  13  16
ENDBRANCH   3  13
TORSDOF 4
ENDMDL
MODEL 5
REMARK VINA RESULT:      -6.6      1.057      1.838
REMARK  Name = 
REMARK  10 active torsions:
REMARK  status: ('A' for Active; 'I' for Inactive)
REMARK    1  A    between atoms: C_1  and  N_2
REMARK    2  A    between atoms: C_4  and  C_5
REMARK    3  A    between atoms: N_7  and  C_8
REMARK    4  A    between atoms: C_8  and  C_9
REMARK    5  A    between atoms: C_8  and  C_10
REMARK    6  A    between atoms: C_8  and  C_11
REMARK    7  A    between atoms: C_11  and  C_12
REMARK    8  A    between atoms: C_12  and  C_13
REMARK    9  A    between atoms: C_12  and  C_14
REMARK   10  A    between atoms: C_12  and  C_15
REMARK                            x       y       z     vdW  Elec       q    Type
REMARK                         _______ _______ _______ _____ _____    ______ ____
ROOT
ATOM      1  C   UNL     1       3.049   6.097  19.132  0.00  0.00    +0.000 C 
ATOM      2  O   UNL     1       3.275   5.537  20.197  0.00  0.00    +0.000 OA
ATOM      3  N   UNL     1       3.441   5.629  17.898  0.00  0.00    +0.000 N 
ATOM      4  H   UNL     1       3.258   6.237  17.102  0.00  0.00    +0.000 HD
ENDROOT
BRANCH   1   8
ATOM      5  C   UNL     1       0.449   9.479  21.507  0.00  0.00    +0.000 C 
ATOM      6  N   UNL     1       1.072   9.050  20.265  0.00  0.00    +0.000 N 
ATOM      7  N   UNL     1       1.736   7.838  20.284  0.00  0.00    +0.000 NA
ATOM      8  C   UNL     1       2.307   7.432  19.186  0.00  0.00    +0.000 C 
ATOM      9  C   UNL     1       2.303   8.171  17.884  0.00  0.00    +0.000 C 
ATOM     10  C   UNL     1       1.590   9.489  17.888  0.00  0.00    +0.000 C 
ATOM     11  C   UNL     1       0.952   9.900  19.178  0.00  0.00    +0.000 C 
ATOM     12  O   UNL     1       0.343  10.976  19.230  0.00  0.00    +0.000 OA
ENDBRANCH   1   8
BRANCH   3  13
ATOM     13  C   UNL     1       4.306   4.420  17.727  0.00  0.00    +0.000 C 
ATOM     14  C   UNL     1       3.462   3.203  18.144  0.00  0.00    +0.000 C 
ATOM     15  C   UNL     1       4.636   4.276  16.230  0.00  0.00    +0.000 C 
BRANCH  13  16
ATOM     16  C   UNL     1       5.587   4.583  18.630  0.00  0.00    +0.000 C 
BRANCH  16  17
ATOM     17  C   UNL     1       6.900   5.316  18.187  0.00  0.00    +0.000 C 
ATOM     18  C   UNL     1       7.726   4.521  17.163  0.00  0.00    +0.000 C 
ATOM     19  C   UNL     1       6.480   6.632  17.476  0.00  0.00    +0.000 C 
ATOM     20  C   UNL     1       7.793   5.713  19.367  0.00  0.00    +0.000 C 
ENDBRANCH  16  17
ENDBRANCH  13  16
ENDBRANCH   3  13
TORSDOF 4
ENDMDL
MODEL 6
REMARK VINA RESULT:      -6.4      1.947      3.630
REMARK  Name = 
REMARK  10 active torsions:
REMARK  status: ('A' for Active; 'I' for Inactive)
REMARK    1  A    between atoms: C_1  and  N_2
REMARK    2  A    between atoms: C_4  and  C_5
REMARK    3  A    between atoms: N_7  and  C_8
REMARK    4  A    between atoms: C_8  and  C_9
REMARK    5  A    between atoms: C_8  and  C_10
REMARK    6  A    between atoms: C_8  and  C_11
REMARK    7  A    between atoms: C_11  and  C_12
REMARK    8  A    between atoms: C_12  and  C_13
REMARK    9  A    between atoms: C_12  and  C_14
REMARK   10  A    between atoms: C_12  and  C_15
REMARK                            x       y       z     vdW  Elec       q    Type
REMARK                         _______ _______ _______ _____ _____    ______ ____
ROOT
ATOM      1  C   UNL     1       2.978   7.052  18.608  0.00  0.00    +0.000 C 
ATOM      2  O   UNL     1       3.628   7.224  17.586  0.00  0.00    +0.000 OA
ATOM      3  N   UNL     1       3.035   5.924  19.396  0.00  0.00    +0.000 N 
ATOM      4  H   UNL     1       2.378   5.879  20.173  0.00  0.00    +0.000 HD
ENDROOT
BRANCH   1   8
ATOM      5  C   UNL     1       0.268   9.384  21.933  0.00  0.00    +0.000 C 
ATOM      6  N   UNL     1       0.708   9.285  20.550  0.00  0.00    +0.000 N 
ATOM      7  N   UNL     1       1.593   8.268  20.247  0.00  0.00    +0.000 NA
ATOM      8  C   UNL     1       2.007   8.159  19.016  0.00  0.00    +0.000 C 
ATOM      9  C   UNL     1       1.597   9.048  17.884  0.00  0.00    +0.000 C 
ATOM     10  C   UNL     1       0.647  10.152  18.236  0.00  0.00    +0.000 C 
ATOM     11  C   UNL     1       0.206  10.224  19.664  0.00  0.00    +0.000 C 
ATOM     12  O   UNL     1      -0.585  11.113  20.004  0.00  0.00    +0.000 OA
ENDBRANCH   1   8
BRANCH   3  13
ATOM     13  C   UNL     1       3.825   4.711  19.019  0.00  0.00    +0.000 C 
ATOM     14  C   UNL     1       3.516   4.417  17.541  0.00  0.00    +0.000 C 
ATOM     15  C   UNL     1       5.321   5.062  19.129  0.00  0.00    +0.000 C 
BRANCH  13  16
ATOM     16  C   UNL     1       3.400   3.518  19.956  0.00  0.00    +0.000 C 
BRANCH  16  17
ATOM     17  C   UNL     1       1.918   3.082  20.224  0.00  0.00    +0.000 C 
ATOM     18  C   UNL     1       1.392   2.051  19.212  0.00  0.00    +0.000 C 
ATOM     19  C   UNL     1       1.882   2.383  21.611  0.00  0.00    +0.000 C 
ATOM     20  C   UNL     1       0.949   4.267  20.298  0.00  0.00    +0.000 C 
ENDBRANCH  16  17
ENDBRANCH  13  16
ENDBRANCH   3  13
TORSDOF 4
ENDMDL
MODEL 7
REMARK VINA RESULT:      -6.4      2.286      4.011
REMARK  Name = 
REMARK  10 active torsions:
REMARK  status: ('A' for Active; 'I' for Inactive)
REMARK    1  A    between atoms: C_1  and  N_2
REMARK    2  A    between atoms: C_4  and  C_5
REMARK    3  A    between atoms: N_7  and  C_8
REMARK    4  A    between atoms: C_8  and  C_9
REMARK    5  A    between atoms: C_8  and  C_10
REMARK    6  A    between atoms: C_8  and  C_11
REMARK    7  A    between atoms: C_11  and  C_12
REMARK    8  A    between atoms: C_12  and  C_13
REMARK    9  A    between atoms: C_12  and  C_14
REMARK   10  A    between atoms: C_12  and  C_15
REMARK                            x       y       z     vdW  Elec       q    Type
REMARK                         _______ _______ _______ _____ _____    ______ ____
ROOT
ATOM      1  C   UNL     1       2.569   7.303  19.030  0.00  0.00    +0.000 C 
ATOM      2  O   UNL     1       2.922   7.513  17.877  0.00  0.00    +0.000 OA
ATOM      3  N   UNL     1       2.904   6.188  19.765  0.00  0.00    +0.000 N 
ATOM      4  H   UNL     1       2.473   6.103  20.683  0.00  0.00    +0.000 HD
ENDROOT
BRANCH   1   8
ATOM      5  C   UNL     1       0.133  11.534  18.966  0.00  0.00    +0.000 C 
ATOM      6  N   UNL     1       0.501  10.334  19.701  0.00  0.00    +0.000 N 
ATOM      7  N   UNL     1       1.317   9.428  19.051  0.00  0.00    +0.000 NA
ATOM      8  C   UNL     1       1.659   8.342  19.684  0.00  0.00    +0.000 C 
ATOM      9  C   UNL     1       1.243   7.986  21.077  0.00  0.00    +0.000 C 
ATOM     10  C   UNL     1       0.346   8.974  21.760  0.00  0.00    +0.000 C 
ATOM     11  C   UNL     1      -0.008  10.202  20.983  0.00  0.00    +0.000 C 
ATOM     12  O   UNL     1      -0.739  11.053  21.505  0.00  0.00    +0.000 OA
ENDBRANCH   1   8
BRANCH   3  13
ATOM     13  C   UNL     1       3.655   5.031  19.185  0.00  0.00    +0.000 C 
ATOM     14  C   UNL     1       3.164   4.860  17.738  0.00  0.00    +0.000 C 
ATOM     15  C   UNL     1       5.148   5.406  19.138  0.00  0.00    +0.000 C 
BRANCH  13  16
ATOM     16  C   UNL     1       3.366   3.752  20.059  0.00  0.00    +0.000 C 
BRANCH  16  17
ATOM     17  C   UNL     1       1.944   3.134  20.289  0.00  0.00    +0.000 C 
ATOM     18  C   UNL     1       1.592   2.022  19.286  0.00  0.00    +0.000 C 
ATOM     19  C   UNL     1       1.948   2.466  21.691  0.00  0.00    +0.000 C 
ATOM     20  C   UNL     1       0.829   4.185  20.300  0.00  0.00    +0.000 C 
ENDBRANCH  16  17
ENDBRANCH  13  16
ENDBRANCH   3  13
TORSDOF 4
ENDMDL
MODEL 8
REMARK VINA RESULT:      -6.4      3.942      6.780
REMARK  Name = 
REMARK  10 active torsions:
REMARK  status: ('A' for Active; 'I' for Inactive)
REMARK    1  A    between atoms: C_1  and  N_2
REMARK    2  A    between atoms: C_4  and  C_5
REMARK    3  A    between atoms: N_7  and  C_8
REMARK    4  A    between atoms: C_8  and  C_9
REMARK    5  A    between atoms: C_8  and  C_10
REMARK    6  A    between atoms: C_8  and  C_11
REMARK    7  A    between atoms: C_11  and  C_12
REMARK    8  A    between atoms: C_12  and  C_13
REMARK    9  A    between atoms: C_12  and  C_14
REMARK   10  A    between atoms: C_12  and  C_15
REMARK                            x       y       z     vdW  Elec       q    Type
REMARK                         _______ _______ _______ _____ _____    ______ ____
ROOT
ATOM      1  C   UNL     1       4.346   3.530  17.077  0.00  0.00    +0.000 C 
ATOM      2  O   UNL     1       3.163   3.667  16.796  0.00  0.00    +0.000 OA
ATOM      3  N   UNL     1       4.818   2.953  18.234  0.00  0.00    +0.000 N 
ATOM      4  H   UNL     1       5.826   2.978  18.376  0.00  0.00    +0.000 HD
ENDROOT
BRANCH   1   8
ATOM      5  C   UNL     1       6.354   3.683  12.629  0.00  0.00    +0.000 C 
ATOM      6  N   UNL     1       6.353   4.171  13.999  0.00  0.00    +0.000 N 
ATOM      7  N   UNL     1       5.396   3.649  14.849  0.00  0.00    +0.000 NA
ATOM      8  C   UNL     1       5.370   4.072  16.081  0.00  0.00    +0.000 C 
ATOM      9  C   UNL     1       6.302   5.086  16.667  0.00  0.00    +0.000 C 
ATOM     10  C   UNL     1       7.323   5.650  15.726  0.00  0.00    +0.000 C 
ATOM     11  C   UNL     1       7.306   5.123  14.326  0.00  0.00    +0.000 C 
ATOM     12  O   UNL     1       8.134   5.550  13.514  0.00  0.00    +0.000 OA
ENDBRANCH   1   8
BRANCH   3  13
ATOM     13  C   UNL     1       3.920   2.528  19.353  0.00  0.00    +0.000 C 
ATOM     14  C   UNL     1       2.967   1.464  18.782  0.00  0.00    +0.000 C 
ATOM     15  C   UNL     1       4.788   1.856  20.433  0.00  0.00    +0.000 C 
BRANCH  13  16
ATOM     16  C   UNL     1       3.141   3.791  19.884  0.00  0.00    +0.000 C 
BRANCH  16  17
ATOM     17  C   UNL     1       1.670   3.766  20.424  0.00  0.00    +0.000 C 
ATOM     18  C   UNL     1       1.112   5.164  20.737  0.00  0.00    +0.000 C 
ATOM     19  C   UNL     1       0.771   3.184  19.299  0.00  0.00    +0.000 C 
ATOM     20  C   UNL     1       1.495   2.859  21.647  0.00  0.00    +0.000 C 
ENDBRANCH  16  17
ENDBRANCH  13  16
ENDBRANCH   3  13
TORSDOF 4
ENDMDL
MODEL 9
REMARK VINA RESULT:      -6.4      3.371      7.010
REMARK  Name = 
REMARK  10 active torsions:
REMARK  status: ('A' for Active; 'I' for Inactive)
REMARK    1  A    between atoms: C_1  and  N_2
REMARK    2  A    between atoms: C_4  and  C_5
REMARK    3  A    between atoms: N_7  and  C_8
REMARK    4  A    between atoms: C_8  and  C_9
REMARK    5  A    between atoms: C_8  and  C_10
REMARK    6  A    between atoms: C_8  and  C_11
REMARK    7  A    between atoms: C_11  and  C_12
REMARK    8  A    between atoms: C_12  and  C_13
REMARK    9  A    between atoms: C_12  and  C_14
REMARK   10  A    between atoms: C_12  and  C_15
REMARK                            x       y       z     vdW  Elec       q    Type
REMARK                         _______ _______ _______ _____ _____    ______ ____
ROOT
ATOM      1  C   UNL     1       4.742   4.272  16.579  0.00  0.00    +0.000 C 
ATOM      2  O   UNL     1       4.683   3.196  17.158  0.00  0.00    +0.000 OA
ATOM      3  N   UNL     1       4.163   5.439  17.026  0.00  0.00    +0.000 N 
ATOM      4  H   UNL     1       4.221   6.243  16.403  0.00  0.00    +0.000 HD
ENDROOT
BRANCH   1   8
ATOM      5  C   UNL     1       5.168   3.086  11.863  0.00  0.00    +0.000 C 
ATOM      6  N   UNL     1       5.729   3.767  13.018  0.00  0.00    +0.000 N 
ATOM      7  N   UNL     1       5.006   3.705  14.194  0.00  0.00    +0.000 NA
ATOM      8  C   UNL     1       5.484   4.310  15.244  0.00  0.00    +0.000 C 
ATOM      9  C   UNL     1       6.769   5.076  15.291  0.00  0.00    +0.000 C 
ATOM     10  C   UNL     1       7.532   5.144  14.002  0.00  0.00    +0.000 C 
ATOM     11  C   UNL     1       6.934   4.426  12.833  0.00  0.00    +0.000 C 
ATOM     12  O   UNL     1       7.530   4.446  11.749  0.00  0.00    +0.000 OA
ENDBRANCH   1   8
BRANCH   3  13
ATOM     13  C   UNL     1       3.281   5.495  18.234  0.00  0.00    +0.000 C 
ATOM     14  C   UNL     1       4.198   5.379  19.463  0.00  0.00    +0.000 C 
ATOM     15  C   UNL     1       2.612   6.882  18.272  0.00  0.00    +0.000 C 
BRANCH  13  16
ATOM     16  C   UNL     1       2.245   4.311  18.159  0.00  0.00    +0.000 C 
BRANCH  16  17
ATOM     17  C   UNL     1       1.752   3.481  19.394  0.00  0.00    +0.000 C 
ATOM     18  C   UNL     1       1.078   4.339  20.477  0.00  0.00    +0.000 C 
ATOM     19  C   UNL     1       0.666   2.493  18.887  0.00  0.00    +0.000 C 
ATOM     20  C   UNL     1       2.861   2.634  20.029  0.00  0.00    +0.000 C 
ENDBRANCH  16  17
ENDBRANCH  13  16
ENDBRANCH   3  13
TORSDOF 4
ENDMDL
