MODEL 1
REMARK VINA RESULT:      -3.5      0.000      0.000
REMARK  Name = 
REMARK  0 active torsions:
REMARK  status: ('A' for Active; 'I' for Inactive)
REMARK                            x       y       z     vdW  Elec       q    Type
REMARK                         _______ _______ _______ _____ _____    ______ ____
ROOT
ATOM      1  C   UNL     1       7.774   5.588  28.459  0.00  0.00    +0.000 A 
ATOM      2  C   UNL     1       9.128   5.251  28.226  0.00  0.00    +0.000 A 
ATOM      3  C   UNL     1       9.112   4.148  27.404  0.00  0.00    +0.000 A 
ATOM      4  O   UNL     1       7.834   3.788  27.117  0.00  0.00    +0.000 OA
ATOM      5  C   UNL     1       7.025   4.668  27.763  0.00  0.00    +0.000 A 
ENDROOT
TORSDOF 0
ENDMDL
MODEL 2
REMARK VINA RESULT:      -3.5      0.255      1.662
REMARK  Name = 
REMARK  0 active torsions:
REMARK  status: ('A' for Active; 'I' for Inactive)
REMARK                            x       y       z     vdW  Elec       q    Type
REMARK                         _______ _______ _______ _____ _____    ______ ____
ROOT
ATOM      1  C   UNL     1       9.391   5.194  28.226  0.00  0.00    +0.000 A 
ATOM      2  C   UNL     1       8.050   5.608  28.411  0.00  0.00    +0.000 A 
ATOM      3  C   UNL     1       7.274   4.725  27.698  0.00  0.00    +0.000 A 
ATOM      4  O   UNL     1       8.053   3.795  27.087  0.00  0.00    +0.000 OA
ATOM      5  C   UNL     1       9.340   4.087  27.412  0.00  0.00    +0.000 A 
ENDROOT
TORSDOF 0
ENDMDL
MODEL 3
REMARK VINA RESULT:      -3.1      8.889      9.650
REMARK  Name = 
REMARK  0 active torsions:
REMARK  status: ('A' for Active; 'I' for Inactive)
REMARK                            x       y       z     vdW  Elec       q    Type
REMARK                         _______ _______ _______ _____ _____    ______ ____
ROOT
ATOM      1  C   UNL     1       1.430   4.264  20.071  0.00  0.00    +0.000 A 
ATOM      2  C   UNL     1       1.021   2.924  20.274  0.00  0.00    +0.000 A 
ATOM      3  C   UNL     1       1.539   2.545  21.491  0.00  0.00    +0.000 A 
ATOM      4  O   UNL     1       2.239   3.567  22.047  0.00  0.00    +0.000 OA
ATOM      5  C   UNL     1       2.169   4.609  21.178  0.00  0.00    +0.000 A 
ENDROOT
TORSDOF 0
ENDMDL
MODEL 4
REMARK VINA RESULT:      -3.1     12.567     12.954
REMARK  Name = 
REMARK  0 active torsions:
REMARK  status: ('A' for Active; 'I' for Inactive)
REMARK                            x       y       z     vdW  Elec       q    Type
REMARK                         _______ _______ _______ _____ _____    ______ ____
ROOT
ATOM      1  C   UNL     1       5.974   3.848  15.682  0.00  0.00    +0.000 A 
ATOM      2  C   UNL     1       6.032   3.972  14.273  0.00  0.00    +0.000 A 
ATOM      3  C   UNL     1       7.036   4.875  14.009  0.00  0.00    +0.000 A 
ATOM      4  O   UNL     1       7.599   5.310  15.166  0.00  0.00    +0.000 OA
ATOM      5  C   UNL     1       6.948   4.682  16.180  0.00  0.00    +0.000 A 
ENDROOT
TORSDOF 0
ENDMDL
MODEL 5
REMARK VINA RESULT:      -3.0     12.520     12.921
REMARK  Name = 
REMARK  0 active torsions:
REMARK  status: ('A' for Active; 'I' for Inactive)
REMARK                            x       y       z     vdW  Elec       q    Type
REMARK                         _______ _______ _______ _____ _____    ______ ____
ROOT
ATOM      1  C   UNL     1       5.972   3.999  14.347  0.00  0.00    +0.000 A 
ATOM      2  C   UNL     1       5.960   3.870  15.757  0.00  0.00    +0.000 A 
ATOM      3  C   UNL     1       6.966   4.683  16.225  0.00  0.00    +0.000 A 
ATOM      4  O   UNL     1       7.594   5.303  15.192  0.00  0.00    +0.000 OA
ATOM      5  C   UNL     1       6.984   4.883  14.053  0.00  0.00    +0.000 A 
ENDROOT
TORSDOF 0
ENDMDL
MODEL 6
REMARK VINA RESULT:      -3.0      9.777     10.102
REMARK  Name = 
REMARK  0 active torsions:
REMARK  status: ('A' for Active; 'I' for Inactive)
REMARK                            x       y       z     vdW  Elec       q    Type
REMARK                         _______ _______ _______ _____ _____    ______ ____
ROOT
ATOM      1  C   UNL     1       7.457   6.703  17.960  0.00  0.00    +0.000 A 
ATOM      2  C   UNL     1       7.148   5.936  16.810  0.00  0.00    +0.000 A 
ATOM      3  C   UNL     1       7.357   4.622  17.158  0.00  0.00    +0.000 A 
ATOM      4  O   UNL     1       7.773   4.534  18.449  0.00  0.00    +0.000 OA
ATOM      5  C   UNL     1       7.832   5.803  18.930  0.00  0.00    +0.000 A 
ENDROOT
TORSDOF 0
ENDMDL
MODEL 7
REMARK VINA RESULT:      -3.0     10.326     10.642
REMARK  Name = 
REMARK  0 active torsions:
REMARK  status: ('A' for Active; 'I' for Inactive)
REMARK                            x       y       z     vdW  Elec       q    Type
REMARK                         _______ _______ _______ _____ _____    ______ ____
ROOT
ATOM      1  C   UNL     1       7.601   5.988  18.476  0.00  0.00    +0.000 A 
ATOM      2  C   UNL     1       7.483   4.692  17.918  0.00  0.00    +0.000 A 
ATOM      3  C   UNL     1       7.309   4.872  16.566  0.00  0.00    +0.000 A 
ATOM      4  O   UNL     1       7.314   6.195  16.258  0.00  0.00    +0.000 OA
ATOM      5  C   UNL     1       7.491   6.868  17.425  0.00  0.00    +0.000 A 
ENDROOT
TORSDOF 0
ENDMDL
MODEL 8
REMARK VINA RESULT:      -3.0      2.713      3.679
REMARK  Name = 
REMARK  0 active torsions:
REMARK  status: ('A' for Active; 'I' for Inactive)
REMARK                            x       y       z     vdW  Elec       q    Type
REMARK                         _______ _______ _______ _____ _____    ______ ____
ROOT
ATOM      1  C   UNL     1      12.333   4.112  28.339  0.00  0.00    +0.000 A 
ATOM      2  C   UNL     1      11.209   3.266  28.182  0.00  0.00    +0.000 A 
ATOM      3  C   UNL     1      10.215   4.046  27.639  0.00  0.00    +0.000 A 
ATOM      4  O   UNL     1      10.658   5.316  27.452  0.00  0.00    +0.000 OA
ATOM      5  C   UNL     1      11.947   5.349  27.880  0.00  0.00    +0.000 A 
ENDROOT
TORSDOF 0
ENDMDL
MODEL 9
REMARK VINA RESULT:      -3.0      8.860      9.574
REMARK  Name = 
REMARK  0 active torsions:
REMARK  status: ('A' for Active; 'I' for Inactive)
REMARK                            x       y       z     vdW  Elec       q    Type
REMARK                         _______ _______ _______ _____ _____    ______ ____
ROOT
ATOM      1  C   UNL     1       2.335   2.957  19.714  0.00  0.00    +0.000 A 
ATOM      2  C   UNL     1       1.123   3.009  20.444  0.00  0.00    +0.000 A 
ATOM      3  C   UNL     1       1.453   2.747  21.754  0.00  0.00    +0.000 A 
ATOM      4  O   UNL     1       2.790   2.539  21.874  0.00  0.00    +0.000 OA
ATOM      5  C   UNL     1       3.320   2.668  20.630  0.00  0.00    +0.000 A 
ENDROOT
TORSDOF 0
ENDMDL
