MODEL 1
REMARK VINA RESULT:      -8.0      0.000      0.000
REMARK  Name = 
REMARK  13 active torsions:
REMARK  status: ('A' for Active; 'I' for Inactive)
REMARK    1  A    between atoms: C_1  and  C_2
REMARK    2  A    between atoms: C_2  and  O_3
REMARK    3  A    between atoms: O_3  and  C_4
REMARK    4  A    between atoms: C_4  and  C_6
REMARK    5  A    between atoms: C_6  and  O_7
REMARK    6  A    between atoms: O_7  and  C_8
REMARK    7  A    between atoms: C_11  and  N_12
REMARK    8  A    between atoms: C_15  and  O_16
REMARK    9  A    between atoms: O_16  and  C_17
REMARK   10  A    between atoms: C_20  and  C_21
REMARK   11  A    between atoms: C_21  and  C_22
REMARK   12  A    between atoms: C_21  and  N_23
REMARK   13  A    between atoms: C_24  and  C_25
REMARK                            x       y       z     vdW  Elec       q    Type
REMARK                         _______ _______ _______ _____ _____    ______ ____
ROOT
ATOM      1  N   UNL     1       1.871   8.300  19.776  0.00  0.00    +0.000 N 
ATOM      2  C   UNL     1       1.323   8.081  21.115  0.00  0.00    +0.000 C 
ATOM      3  C   UNL     1      -0.160   8.401  20.944  0.00  0.00    +0.000 C 
ATOM      4  C   UNL     1      -0.136   9.580  19.981  0.00  0.00    +0.000 C 
ATOM      5  C   UNL     1       0.980   9.192  19.014  0.00  0.00    +0.000 C 
ENDROOT
BRANCH   1   9
ATOM      6  C   UNL     1       4.324   5.546  17.741  0.00  0.00    +0.000 A 
ATOM      7  C   UNL     1       3.966   6.744  17.152  0.00  0.00    +0.000 A 
ATOM      8  C   UNL     1       3.179   7.649  17.851  0.00  0.00    +0.000 A 
ATOM      9  C   UNL     1       2.639   7.364  19.112  0.00  0.00    +0.000 A 
ATOM     10  C   UNL     1       2.961   6.114  19.658  0.00  0.00    +0.000 A 
ATOM     11  C   UNL     1       3.793   5.208  18.981  0.00  0.00    +0.000 A 
BRANCH   6  12
ATOM     12  O   UNL     1       5.242   4.685  17.196  0.00  0.00    +0.000 OA
BRANCH  12  13
ATOM     13  C   UNL     1       6.574   5.217  16.874  0.00  0.00    +0.000 C 
ATOM     14  C   UNL     1       7.697   4.565  17.749  0.00  0.00    +0.000 C 
ATOM     15  C   UNL     1       7.560   5.741  18.731  0.00  0.00    +0.000 C 
ATOM     16  C   UNL     1       6.986   6.569  17.584  0.00  0.00    +0.000 C 
BRANCH  13  17
ATOM     17  C   UNL     1       6.862   5.186  15.305  0.00  0.00    +0.000 C 
ATOM     18  O   UNL     1       7.842   5.675  14.744  0.00  0.00    +0.000 OA
BRANCH  17  19
ATOM     19  O   UNL     1       5.821   4.623  14.616  0.00  0.00    +0.000 OA
BRANCH  19  21
ATOM     20  C   UNL     1       5.065   3.668  12.565  0.00  0.00    +0.000 C 
ATOM     21  C   UNL     1       6.194   3.703  13.581  0.00  0.00    +0.000 C 
ENDBRANCH  19  21
ENDBRANCH  17  19
ENDBRANCH  13  17
ENDBRANCH  12  13
ENDBRANCH   6  12
ENDBRANCH   1   9
BRANCH   4  22
ATOM     22  O   UNL     1       0.225  10.786  20.656  0.00  0.00    +0.000 OA
BRANCH  22  23
ATOM     23  C   UNL     1      -0.748  11.374  21.411  0.00  0.00    +0.000 A 
ATOM     24  C   UNL     1      -1.652  12.161  20.699  0.00  0.00    +0.000 A 
ATOM     25  C   UNL     1      -2.709  12.792  21.357  0.00  0.00    +0.000 A 
ATOM     26  C   UNL     1      -2.883  12.630  22.739  0.00  0.00    +0.000 A 
ATOM     27  C   UNL     1      -1.966  11.836  23.441  0.00  0.00    +0.000 A 
ATOM     28  C   UNL     1      -0.913  11.207  22.783  0.00  0.00    +0.000 A 
BRANCH  26  29
ATOM     29  C   UNL     1      -4.069  13.257  23.444  0.00  0.00    +0.000 C 
ATOM     30  C   UNL     1      -4.412  12.506  24.733  0.00  0.00    +0.000 C 
BRANCH  29  31
ATOM     31  N   UNL     1      -5.213  13.272  22.542  0.00  0.00    +0.000 N 
ATOM     32  C   UNL     1      -6.224  14.171  22.445  0.00  0.00    +0.000 C 
ATOM     33  C   UNL     1      -6.162  15.435  23.255  0.00  0.00    +0.000 C 
ATOM     34  O   UNL     1      -7.150  13.953  21.663  0.00  0.00    +0.000 OA
ATOM     35  H   UNL     1      -5.346  12.473  21.930  0.00  0.00    +0.000 HD
ENDBRANCH  29  31
ENDBRANCH  26  29
ENDBRANCH  22  23
ENDBRANCH   4  22
TORSDOF 10
ENDMDL
MODEL 2
REMARK VINA RESULT:      -7.6      2.580      3.991
REMARK  Name = 
REMARK  13 active torsions:
REMARK  status: ('A' for Active; 'I' for Inactive)
REMARK    1  A    between atoms: C_1  and  C_2
REMARK    2  A    between atoms: C_2  and  O_3
REMARK    3  A    between atoms: O_3  and  C_4
REMARK    4  A    between atoms: C_4  and  C_6
REMARK    5  A    between atoms: C_6  and  O_7
REMARK    6  A    between atoms: O_7  and  C_8
REMARK    7  A    between atoms: C_11  and  N_12
REMARK    8  A    between atoms: C_15  and  O_16
REMARK    9  A    between atoms: O_16  and  C_17
REMARK   10  A    between atoms: C_20  and  C_21
REMARK   11  A    between atoms: C_21  and  C_22
REMARK   12  A    between atoms: C_21  and  N_23
REMARK   13  A    between atoms: C_24  and  C_25
REMARK                            x       y       z     vdW  Elec       q    Type
REMARK                         _______ _______ _______ _____ _____    ______ ____
ROOT
ATOM      1  N   UNL     1       0.417  10.534  19.636  0.00  0.00    +0.000 N 
ATOM      2  C   UNL     1       1.107  11.806  19.420  0.00  0.00    +0.000 C 
ATOM      3  C   UNL     1       0.659  12.655  20.607  0.00  0.00    +0.000 C 
ATOM      4  C   UNL     1      -0.798  12.246  20.777  0.00  0.00    +0.000 C 
ATOM      5  C   UNL     1      -0.752  10.744  20.508  0.00  0.00    +0.000 C 
ENDROOT
BRANCH   1   9
ATOM      6  C   UNL     1       2.521   6.884  19.599  0.00  0.00    +0.000 A 
ATOM      7  C   UNL     1       2.459   7.678  18.468  0.00  0.00    +0.000 A 
ATOM      8  C   UNL     1       1.784   8.889  18.510  0.00  0.00    +0.000 A 
ATOM      9  C   UNL     1       1.065   9.315  19.635  0.00  0.00    +0.000 A 
ATOM     10  C   UNL     1       1.087   8.460  20.747  0.00  0.00    +0.000 A 
ATOM     11  C   UNL     1       1.804   7.253  20.731  0.00  0.00    +0.000 A 
BRANCH   6  12
ATOM     12  O   UNL     1       3.316   5.771  19.694  0.00  0.00    +0.000 OA
BRANCH  12  13
ATOM     13  C   UNL     1       3.477   4.939  18.494  0.00  0.00    +0.000 C 
ATOM     14  C   UNL     1       2.132   4.767  17.710  0.00  0.00    +0.000 C 
ATOM     15  C   UNL     1       1.896   3.457  18.482  0.00  0.00    +0.000 C 
ATOM     16  C   UNL     1       3.404   3.372  18.704  0.00  0.00    +0.000 C 
BRANCH  13  17
ATOM     17  C   UNL     1       4.703   5.423  17.595  0.00  0.00    +0.000 C 
ATOM     18  O   UNL     1       4.717   6.421  16.874  0.00  0.00    +0.000 OA
BRANCH  17  19
ATOM     19  O   UNL     1       5.739   4.528  17.637  0.00  0.00    +0.000 OA
BRANCH  19  21
ATOM     20  C   UNL     1       5.863   3.629  15.431  0.00  0.00    +0.000 C 
ATOM     21  C   UNL     1       6.567   4.490  16.466  0.00  0.00    +0.000 C 
ENDBRANCH  19  21
ENDBRANCH  17  19
ENDBRANCH  13  17
ENDBRANCH  12  13
ENDBRANCH   6  12
ENDBRANCH   1   9
BRANCH   4  22
ATOM     22  O   UNL     1      -1.623  12.874  19.795  0.00  0.00    +0.000 OA
BRANCH  22  23
ATOM     23  C   UNL     1      -2.952  12.567  19.832  0.00  0.00    +0.000 A 
ATOM     24  C   UNL     1      -3.633  13.022  20.960  0.00  0.00    +0.000 A 
ATOM     25  C   UNL     1      -5.003  12.796  21.097  0.00  0.00    +0.000 A 
ATOM     26  C   UNL     1      -5.714  12.119  20.095  0.00  0.00    +0.000 A 
ATOM     27  C   UNL     1      -5.016  11.667  18.967  0.00  0.00    +0.000 A 
ATOM     28  C   UNL     1      -3.650  11.895  18.832  0.00  0.00    +0.000 A 
BRANCH  26  29
ATOM     29  C   UNL     1      -7.214  11.931  20.210  0.00  0.00    +0.000 C 
ATOM     30  C   UNL     1      -7.903  13.220  20.665  0.00  0.00    +0.000 C 
BRANCH  29  31
ATOM     31  N   UNL     1      -7.495  10.845  21.140  0.00  0.00    +0.000 N 
ATOM     32  C   UNL     1      -7.554   9.510  20.914  0.00  0.00    +0.000 C 
ATOM     33  C   UNL     1      -7.153   8.975  19.569  0.00  0.00    +0.000 C 
ATOM     34  O   UNL     1      -7.894   8.760  21.830  0.00  0.00    +0.000 OA
ATOM     35  H   UNL     1      -7.760  11.090  22.089  0.00  0.00    +0.000 HD
ENDBRANCH  29  31
ENDBRANCH  26  29
ENDBRANCH  22  23
ENDBRANCH   4  22
TORSDOF 10
ENDMDL
MODEL 3
REMARK VINA RESULT:      -7.6      2.485      3.590
REMARK  Name = 
REMARK  13 active torsions:
REMARK  status: ('A' for Active; 'I' for Inactive)
REMARK    1  A    between atoms: C_1  and  C_2
REMARK    2  A    between atoms: C_2  and  O_3
REMARK    3  A    between atoms: O_3  and  C_4
REMARK    4  A    between atoms: C_4  and  C_6
REMARK    5  A    between atoms: C_6  and  O_7
REMARK    6  A    between atoms: O_7  and  C_8
REMARK    7  A    between atoms: C_11  and  N_12
REMARK    8  A    between atoms: C_15  and  O_16
REMARK    9  A    between atoms: O_16  and  C_17
REMARK   10  A    between atoms: C_20  and  C_21
REMARK   11  A    between atoms: C_21  and  C_22
REMARK   12  A    between atoms: C_21  and  N_23
REMARK   13  A    between atoms: C_24  and  C_25
REMARK                            x       y       z     vdW  Elec       q    Type
REMARK                         _______ _______ _______ _____ _____    ______ ____
ROOT
ATOM      1  N   UNL     1       1.099   9.385  21.018  0.00  0.00    +0.000 N 
ATOM      2  C   UNL     1       1.119   9.253  22.475  0.00  0.00    +0.000 C 
ATOM      3  C   UNL     1      -0.334   9.507  22.870  0.00  0.00    +0.000 C 
ATOM      4  C   UNL     1      -0.754  10.606  21.904  0.00  0.00    +0.000 C 
ATOM      5  C   UNL     1      -0.069  10.183  20.607  0.00  0.00    +0.000 C 
ENDROOT
BRANCH   1   9
ATOM      6  C   UNL     1       2.548   6.377  18.450  0.00  0.00    +0.000 A 
ATOM      7  C   UNL     1       2.344   6.123  19.794  0.00  0.00    +0.000 A 
ATOM      8  C   UNL     1       1.840   7.120  20.617  0.00  0.00    +0.000 A 
ATOM      9  C   UNL     1       1.613   8.428  20.167  0.00  0.00    +0.000 A 
ATOM     10  C   UNL     1       1.892   8.677  18.816  0.00  0.00    +0.000 A 
ATOM     11  C   UNL     1       2.359   7.665  17.963  0.00  0.00    +0.000 A 
BRANCH   6  12
ATOM     12  O   UNL     1       2.865   5.401  17.540  0.00  0.00    +0.000 OA
BRANCH  12  13
ATOM     13  C   UNL     1       4.248   4.903  17.523  0.00  0.00    +0.000 C 
ATOM     14  C   UNL     1       5.289   6.041  17.794  0.00  0.00    +0.000 C 
ATOM     15  C   UNL     1       5.427   6.222  16.273  0.00  0.00    +0.000 C 
ATOM     16  C   UNL     1       4.940   4.784  16.105  0.00  0.00    +0.000 C 
BRANCH  13  17
ATOM     17  C   UNL     1       4.425   3.616  18.449  0.00  0.00    +0.000 C 
ATOM     18  O   UNL     1       5.152   3.537  19.440  0.00  0.00    +0.000 OA
BRANCH  17  19
ATOM     19  O   UNL     1       3.735   2.542  17.952  0.00  0.00    +0.000 OA
BRANCH  19  21
ATOM     20  C   UNL     1       1.495   2.417  18.760  0.00  0.00    +0.000 C 
ATOM     21  C   UNL     1       2.900   1.857  18.896  0.00  0.00    +0.000 C 
ENDBRANCH  19  21
ENDBRANCH  17  19
ENDBRANCH  13  17
ENDBRANCH  12  13
ENDBRANCH   6  12
ENDBRANCH   1   9
BRANCH   4  22
ATOM     22  O   UNL     1      -0.239  11.873  22.316  0.00  0.00    +0.000 OA
BRANCH  22  23
ATOM     23  C   UNL     1      -1.096  12.932  22.236  0.00  0.00    +0.000 A 
ATOM     24  C   UNL     1      -1.214  13.685  23.403  0.00  0.00    +0.000 A 
ATOM     25  C   UNL     1      -2.038  14.811  23.436  0.00  0.00    +0.000 A 
ATOM     26  C   UNL     1      -2.745  15.207  22.292  0.00  0.00    +0.000 A 
ATOM     27  C   UNL     1      -2.616  14.441  21.125  0.00  0.00    +0.000 A 
ATOM     28  C   UNL     1      -1.793  13.318  21.094  0.00  0.00    +0.000 A 
BRANCH  26  29
ATOM     29  C   UNL     1      -3.586  16.468  22.305  0.00  0.00    +0.000 C 
ATOM     30  C   UNL     1      -2.911  17.596  21.520  0.00  0.00    +0.000 C 
BRANCH  29  31
ATOM     31  N   UNL     1      -3.823  16.875  23.683  0.00  0.00    +0.000 N 
ATOM     32  C   UNL     1      -4.952  16.782  24.428  0.00  0.00    +0.000 C 
ATOM     33  C   UNL     1      -6.137  16.043  23.876  0.00  0.00    +0.000 C 
ATOM     34  O   UNL     1      -4.967  17.268  25.560  0.00  0.00    +0.000 OA
ATOM     35  H   UNL     1      -3.079  17.370  24.166  0.00  0.00    +0.000 HD
ENDBRANCH  29  31
ENDBRANCH  26  29
ENDBRANCH  22  23
ENDBRANCH   4  22
TORSDOF 10
ENDMDL
MODEL 4
REMARK VINA RESULT:      -7.6      0.975      1.721
REMARK  Name = 
REMARK  13 active torsions:
REMARK  status: ('A' for Active; 'I' for Inactive)
REMARK    1  A    between atoms: C_1  and  C_2
REMARK    2  A    between atoms: C_2  and  O_3
REMARK    3  A    between atoms: O_3  and  C_4
REMARK    4  A    between atoms: C_4  and  C_6
REMARK    5  A    between atoms: C_6  and  O_7
REMARK    6  A    between atoms: O_7  and  C_8
REMARK    7  A    between atoms: C_11  and  N_12
REMARK    8  A    between atoms: C_15  and  O_16
REMARK    9  A    between atoms: O_16  and  C_17
REMARK   10  A    between atoms: C_20  and  C_21
REMARK   11  A    between atoms: C_21  and  C_22
REMARK   12  A    between atoms: C_21  and  N_23
REMARK   13  A    between atoms: C_24  and  C_25
REMARK                            x       y       z     vdW  Elec       q    Type
REMARK                         _______ _______ _______ _____ _____    ______ ____
ROOT
ATOM      1  N   UNL     1       1.519   8.556  19.296  0.00  0.00    +0.000 N 
ATOM      2  C   UNL     1       0.955   9.639  18.491  0.00  0.00    +0.000 C 
ATOM      3  C   UNL     1       1.106  10.862  19.392  0.00  0.00    +0.000 C 
ATOM      4  C   UNL     1       0.810  10.295  20.774  0.00  0.00    +0.000 C 
ATOM      5  C   UNL     1       1.491   8.929  20.721  0.00  0.00    +0.000 C 
ENDROOT
BRANCH   1   9
ATOM      6  C   UNL     1       4.391   5.820  17.878  0.00  0.00    +0.000 A 
ATOM      7  C   UNL     1       3.795   5.645  19.113  0.00  0.00    +0.000 A 
ATOM      8  C   UNL     1       2.831   6.542  19.549  0.00  0.00    +0.000 A 
ATOM      9  C   UNL     1       2.493   7.696  18.829  0.00  0.00    +0.000 A 
ATOM     10  C   UNL     1       3.161   7.887  17.611  0.00  0.00    +0.000 A 
ATOM     11  C   UNL     1       4.105   6.962  17.138  0.00  0.00    +0.000 A 
BRANCH   6  12
ATOM     12  O   UNL     1       5.210   4.886  17.298  0.00  0.00    +0.000 OA
BRANCH  12  13
ATOM     13  C   UNL     1       6.577   5.296  16.947  0.00  0.00    +0.000 C 
ATOM     14  C   UNL     1       7.654   4.570  17.822  0.00  0.00    +0.000 C 
ATOM     15  C   UNL     1       7.631   5.774  18.778  0.00  0.00    +0.000 C 
ATOM     16  C   UNL     1       7.113   6.623  17.620  0.00  0.00    +0.000 C 
BRANCH  13  17
ATOM     17  C   UNL     1       6.838   5.206  15.375  0.00  0.00    +0.000 C 
ATOM     18  O   UNL     1       7.813   5.666  14.780  0.00  0.00    +0.000 OA
BRANCH  17  19
ATOM     19  O   UNL     1       5.779   4.630  14.724  0.00  0.00    +0.000 OA
BRANCH  19  21
ATOM     20  C   UNL     1       5.108   3.703  12.631  0.00  0.00    +0.000 C 
ATOM     21  C   UNL     1       6.124   3.627  13.758  0.00  0.00    +0.000 C 
ENDBRANCH  19  21
ENDBRANCH  17  19
ENDBRANCH  13  17
ENDBRANCH  12  13
ENDBRANCH   6  12
ENDBRANCH   1   9
BRANCH   4  22
ATOM     22  O   UNL     1      -0.594  10.113  20.963  0.00  0.00    +0.000 OA
BRANCH  22  23
ATOM     23  C   UNL     1      -1.274  11.161  21.512  0.00  0.00    +0.000 A 
ATOM     24  C   UNL     1      -1.495  11.066  22.885  0.00  0.00    +0.000 A 
ATOM     25  C   UNL     1      -2.155  12.090  23.566  0.00  0.00    +0.000 A 
ATOM     26  C   UNL     1      -2.590  13.233  22.879  0.00  0.00    +0.000 A 
ATOM     27  C   UNL     1      -2.360  13.315  21.499  0.00  0.00    +0.000 A 
ATOM     28  C   UNL     1      -1.701  12.292  20.823  0.00  0.00    +0.000 A 
BRANCH  26  29
ATOM     29  C   UNL     1      -3.245  14.378  23.628  0.00  0.00    +0.000 C 
ATOM     30  C   UNL     1      -2.348  14.889  24.758  0.00  0.00    +0.000 C 
BRANCH  29  31
ATOM     31  N   UNL     1      -4.530  13.936  24.155  0.00  0.00    +0.000 N 
ATOM     32  C   UNL     1      -5.756  13.972  23.580  0.00  0.00    +0.000 C 
ATOM     33  C   UNL     1      -5.880  14.385  22.141  0.00  0.00    +0.000 C 
ATOM     34  O   UNL     1      -6.738  13.622  24.236  0.00  0.00    +0.000 OA
ATOM     35  H   UNL     1      -4.562  13.616  25.118  0.00  0.00    +0.000 HD
ENDBRANCH  29  31
ENDBRANCH  26  29
ENDBRANCH  22  23
ENDBRANCH   4  22
TORSDOF 10
ENDMDL
MODEL 5
REMARK VINA RESULT:      -7.5      1.821      2.350
REMARK  Name = 
REMARK  13 active torsions:
REMARK  status: ('A' for Active; 'I' for Inactive)
REMARK    1  A    between atoms: C_1  and  C_2
REMARK    2  A    between atoms: C_2  and  O_3
REMARK    3  A    between atoms: O_3  and  C_4
REMARK    4  A    between atoms: C_4  and  C_6
REMARK    5  A    between atoms: C_6  and  O_7
REMARK    6  A    between atoms: O_7  and  C_8
REMARK    7  A    between atoms: C_11  and  N_12
REMARK    8  A    between atoms: C_15  and  O_16
REMARK    9  A    between atoms: O_16  and  C_17
REMARK   10  A    between atoms: C_20  and  C_21
REMARK   11  A    between atoms: C_21  and  C_22
REMARK   12  A    between atoms: C_21  and  N_23
REMARK   13  A    between atoms: C_24  and  C_25
REMARK                            x       y       z     vdW  Elec       q    Type
REMARK                         _______ _______ _______ _____ _____    ______ ____
ROOT
ATOM      1  N   UNL     1       1.556   8.377  18.875  0.00  0.00    +0.000 N 
ATOM      2  C   UNL     1       1.158   9.461  17.976  0.00  0.00    +0.000 C 
ATOM      3  C   UNL     1       1.369  10.714  18.822  0.00  0.00    +0.000 C 
ATOM      4  C   UNL     1       0.927  10.259  20.206  0.00  0.00    +0.000 C 
ATOM      5  C   UNL     1       1.470   8.834  20.273  0.00  0.00    +0.000 C 
ENDROOT
BRANCH   1   9
ATOM      6  C   UNL     1       4.451   5.504  17.820  0.00  0.00    +0.000 A 
ATOM      7  C   UNL     1       4.286   6.653  17.068  0.00  0.00    +0.000 A 
ATOM      8  C   UNL     1       3.346   7.599  17.449  0.00  0.00    +0.000 A 
ATOM      9  C   UNL     1       2.469   7.402  18.524  0.00  0.00    +0.000 A 
ATOM     10  C   UNL     1       2.610   6.199  19.229  0.00  0.00    +0.000 A 
ATOM     11  C   UNL     1       3.588   5.254  18.881  0.00  0.00    +0.000 A 
BRANCH   6  12
ATOM     12  O   UNL     1       5.475   4.614  17.620  0.00  0.00    +0.000 OA
BRANCH  12  13
ATOM     13  C   UNL     1       6.777   5.151  17.200  0.00  0.00    +0.000 C 
ATOM     14  C   UNL     1       7.942   4.665  18.126  0.00  0.00    +0.000 C 
ATOM     15  C   UNL     1       7.773   5.954  18.948  0.00  0.00    +0.000 C 
ATOM     16  C   UNL     1       7.145   6.601  17.716  0.00  0.00    +0.000 C 
BRANCH  13  17
ATOM     17  C   UNL     1       7.038   4.924  15.642  0.00  0.00    +0.000 C 
ATOM     18  O   UNL     1       7.737   5.633  14.918  0.00  0.00    +0.000 OA
BRANCH  17  19
ATOM     19  O   UNL     1       6.298   3.878  15.158  0.00  0.00    +0.000 OA
BRANCH  19  21
ATOM     20  C   UNL     1       6.034   3.516  12.815  0.00  0.00    +0.000 C 
ATOM     21  C   UNL     1       5.448   4.189  14.044  0.00  0.00    +0.000 C 
ENDBRANCH  19  21
ENDBRANCH  17  19
ENDBRANCH  13  17
ENDBRANCH  12  13
ENDBRANCH   6  12
ENDBRANCH   1   9
BRANCH   4  22
ATOM     22  O   UNL     1      -0.497  10.224  20.302  0.00  0.00    +0.000 OA
BRANCH  22  23
ATOM     23  C   UNL     1      -1.075  11.148  21.123  0.00  0.00    +0.000 A 
ATOM     24  C   UNL     1      -1.729  12.192  20.470  0.00  0.00    +0.000 A 
ATOM     25  C   UNL     1      -2.383  13.183  21.201  0.00  0.00    +0.000 A 
ATOM     26  C   UNL     1      -2.402  13.134  22.603  0.00  0.00    +0.000 A 
ATOM     27  C   UNL     1      -1.741  12.079  23.246  0.00  0.00    +0.000 A 
ATOM     28  C   UNL     1      -1.090  11.091  22.514  0.00  0.00    +0.000 A 
BRANCH  26  29
ATOM     29  C   UNL     1      -3.170  14.172  23.399  0.00  0.00    +0.000 C 
ATOM     30  C   UNL     1      -3.592  15.349  22.517  0.00  0.00    +0.000 C 
BRANCH  29  31
ATOM     31  N   UNL     1      -2.347  14.634  24.509  0.00  0.00    +0.000 N 
ATOM     32  C   UNL     1      -1.168  15.301  24.489  0.00  0.00    +0.000 C 
ATOM     33  C   UNL     1      -0.625  15.794  23.178  0.00  0.00    +0.000 C 
ATOM     34  O   UNL     1      -0.587  15.527  25.552  0.00  0.00    +0.000 OA
ATOM     35  H   UNL     1      -2.631  14.374  25.449  0.00  0.00    +0.000 HD
ENDBRANCH  29  31
ENDBRANCH  26  29
ENDBRANCH  22  23
ENDBRANCH   4  22
TORSDOF 10
ENDMDL
MODEL 6
REMARK VINA RESULT:      -7.4      1.370      1.618
REMARK  Name = 
REMARK  13 active torsions:
REMARK  status: ('A' for Active; 'I' for Inactive)
REMARK    1  A    between atoms: C_1  and  C_2
REMARK    2  A    between atoms: C_2  and  O_3
REMARK    3  A    between atoms: O_3  and  C_4
REMARK    4  A    between atoms: C_4  and  C_6
REMARK    5  A    between atoms: C_6  and  O_7
REMARK    6  A    between atoms: O_7  and  C_8
REMARK    7  A    between atoms: C_11  and  N_12
REMARK    8  A    between atoms: C_15  and  O_16
REMARK    9  A    between atoms: O_16  and  C_17
REMARK   10  A    between atoms: C_20  and  C_21
REMARK   11  A    between atoms: C_21  and  C_22
REMARK   12  A    between atoms: C_21  and  N_23
REMARK   13  A    between atoms: C_24  and  C_25
REMARK                            x       y       z     vdW  Elec       q    Type
REMARK                         _______ _______ _______ _____ _____    ______ ____
ROOT
ATOM      1  N   UNL     1       1.958   8.220  19.900  0.00  0.00    +0.000 N 
ATOM      2  C   UNL     1       1.352   7.882  21.188  0.00  0.00    +0.000 C 
ATOM      3  C   UNL     1      -0.089   8.363  21.035  0.00  0.00    +0.000 C 
ATOM      4  C   UNL     1       0.073   9.649  20.237  0.00  0.00    +0.000 C 
ATOM      5  C   UNL     1       1.178   9.285  19.248  0.00  0.00    +0.000 C 
ENDROOT
BRANCH   1   9
ATOM      6  C   UNL     1       4.197   5.541  17.542  0.00  0.00    +0.000 A 
ATOM      7  C   UNL     1       3.812   6.772  17.043  0.00  0.00    +0.000 A 
ATOM      8  C   UNL     1       3.099   7.651  17.847  0.00  0.00    +0.000 A 
ATOM      9  C   UNL     1       2.656   7.309  19.132  0.00  0.00    +0.000 A 
ATOM     10  C   UNL     1       3.001   6.029  19.589  0.00  0.00    +0.000 A 
ATOM     11  C   UNL     1       3.761   5.149  18.803  0.00  0.00    +0.000 A 
BRANCH   6  12
ATOM     12  O   UNL     1       5.055   4.698  16.884  0.00  0.00    +0.000 OA
BRANCH  12  13
ATOM     13  C   UNL     1       6.428   5.166  16.645  0.00  0.00    +0.000 C 
ATOM     14  C   UNL     1       7.437   4.595  17.698  0.00  0.00    +0.000 C 
ATOM     15  C   UNL     1       7.236   5.876  18.525  0.00  0.00    +0.000 C 
ATOM     16  C   UNL     1       6.807   6.582  17.241  0.00  0.00    +0.000 C 
BRANCH  13  17
ATOM     17  C   UNL     1       6.871   4.953  15.127  0.00  0.00    +0.000 C 
ATOM     18  O   UNL     1       7.772   5.561  14.549  0.00  0.00    +0.000 OA
BRANCH  17  19
ATOM     19  O   UNL     1       6.052   4.062  14.486  0.00  0.00    +0.000 OA
BRANCH  19  21
ATOM     20  C   UNL     1       5.120   3.415  12.388  0.00  0.00    +0.000 C 
ATOM     21  C   UNL     1       6.399   3.778  13.123  0.00  0.00    +0.000 C 
ENDBRANCH  19  21
ENDBRANCH  17  19
ENDBRANCH  13  17
ENDBRANCH  12  13
ENDBRANCH   6  12
ENDBRANCH   1   9
BRANCH   4  22
ATOM     22  O   UNL     1       0.524  10.716  21.073  0.00  0.00    +0.000 OA
BRANCH  22  23
ATOM     23  C   UNL     1      -0.391  11.683  21.371  0.00  0.00    +0.000 A 
ATOM     24  C   UNL     1      -0.710  12.540  20.319  0.00  0.00    +0.000 A 
ATOM     25  C   UNL     1      -1.656  13.551  20.493  0.00  0.00    +0.000 A 
ATOM     26  C   UNL     1      -2.307  13.708  21.725  0.00  0.00    +0.000 A 
ATOM     27  C   UNL     1      -1.977  12.839  22.774  0.00  0.00    +0.000 A 
ATOM     28  C   UNL     1      -1.034  11.831  22.597  0.00  0.00    +0.000 A 
BRANCH  26  29
ATOM     29  C   UNL     1      -3.385  14.761  21.897  0.00  0.00    +0.000 C 
ATOM     30  C   UNL     1      -3.281  15.844  20.820  0.00  0.00    +0.000 C 
BRANCH  29  31
ATOM     31  N   UNL     1      -3.277  15.349  23.225  0.00  0.00    +0.000 N 
ATOM     32  C   UNL     1      -4.250  15.626  24.127  0.00  0.00    +0.000 C 
ATOM     33  C   UNL     1      -5.655  15.170  23.854  0.00  0.00    +0.000 C 
ATOM     34  O   UNL     1      -3.954  16.207  25.172  0.00  0.00    +0.000 OA
ATOM     35  H   UNL     1      -2.364  15.677  23.526  0.00  0.00    +0.000 HD
ENDBRANCH  29  31
ENDBRANCH  26  29
ENDBRANCH  22  23
ENDBRANCH   4  22
TORSDOF 10
ENDMDL
MODEL 7
REMARK VINA RESULT:      -7.4      1.409      1.711
REMARK  Name = 
REMARK  13 active torsions:
REMARK  status: ('A' for Active; 'I' for Inactive)
REMARK    1  A    between atoms: C_1  and  C_2
REMARK    2  A    between atoms: C_2  and  O_3
REMARK    3  A    between atoms: O_3  and  C_4
REMARK    4  A    between atoms: C_4  and  C_6
REMARK    5  A    between atoms: C_6  and  O_7
REMARK    6  A    between atoms: O_7  and  C_8
REMARK    7  A    between atoms: C_11  and  N_12
REMARK    8  A    between atoms: C_15  and  O_16
REMARK    9  A    between atoms: O_16  and  C_17
REMARK   10  A    between atoms: C_20  and  C_21
REMARK   11  A    between atoms: C_21  and  C_22
REMARK   12  A    between atoms: C_21  and  N_23
REMARK   13  A    between atoms: C_24  and  C_25
REMARK                            x       y       z     vdW  Elec       q    Type
REMARK                         _______ _______ _______ _____ _____    ______ ____
ROOT
ATOM      1  N   UNL     1       1.734   8.860  18.669  0.00  0.00    +0.000 N 
ATOM      2  C   UNL     1       1.794  10.125  17.938  0.00  0.00    +0.000 C 
ATOM      3  C   UNL     1       1.856  11.170  19.048  0.00  0.00    +0.000 C 
ATOM      4  C   UNL     1       0.922  10.591  20.102  0.00  0.00    +0.000 C 
ATOM      5  C   UNL     1       1.237   9.098  20.035  0.00  0.00    +0.000 C 
ENDROOT
BRANCH   1   9
ATOM      6  C   UNL     1       4.453   5.734  17.903  0.00  0.00    +0.000 A 
ATOM      7  C   UNL     1       4.240   6.732  16.970  0.00  0.00    +0.000 A 
ATOM      8  C   UNL     1       3.361   7.768  17.254  0.00  0.00    +0.000 A 
ATOM      9  C   UNL     1       2.588   7.803  18.423  0.00  0.00    +0.000 A 
ATOM     10  C   UNL     1       2.772   6.743  19.322  0.00  0.00    +0.000 A 
ATOM     11  C   UNL     1       3.692   5.714  19.066  0.00  0.00    +0.000 A 
BRANCH   6  12
ATOM     12  O   UNL     1       5.434   4.784  17.777  0.00  0.00    +0.000 OA
BRANCH  12  13
ATOM     13  C   UNL     1       6.771   5.231  17.364  0.00  0.00    +0.000 C 
ATOM     14  C   UNL     1       7.899   4.644  18.278  0.00  0.00    +0.000 C 
ATOM     15  C   UNL     1       7.826   5.927  19.124  0.00  0.00    +0.000 C 
ATOM     16  C   UNL     1       7.246   6.640  17.905  0.00  0.00    +0.000 C 
BRANCH  13  17
ATOM     17  C   UNL     1       7.013   5.013  15.802  0.00  0.00    +0.000 C 
ATOM     18  O   UNL     1       7.695   5.733  15.072  0.00  0.00    +0.000 OA
BRANCH  17  19
ATOM     19  O   UNL     1       6.277   3.962  15.323  0.00  0.00    +0.000 OA
BRANCH  19  21
ATOM     20  C   UNL     1       6.147   3.584  12.972  0.00  0.00    +0.000 C 
ATOM     21  C   UNL     1       5.479   4.246  14.165  0.00  0.00    +0.000 C 
ENDBRANCH  19  21
ENDBRANCH  17  19
ENDBRANCH  13  17
ENDBRANCH  12  13
ENDBRANCH   6  12
ENDBRANCH   1   9
BRANCH   4  22
ATOM     22  O   UNL     1      -0.445  10.799  19.744  0.00  0.00    +0.000 OA
BRANCH  22  23
ATOM     23  C   UNL     1      -1.188  11.557  20.601  0.00  0.00    +0.000 A 
ATOM     24  C   UNL     1      -2.214  12.289  20.004  0.00  0.00    +0.000 A 
ATOM     25  C   UNL     1      -3.062  13.080  20.781  0.00  0.00    +0.000 A 
ATOM     26  C   UNL     1      -2.901  13.136  22.173  0.00  0.00    +0.000 A 
ATOM     27  C   UNL     1      -1.867  12.395  22.759  0.00  0.00    +0.000 A 
ATOM     28  C   UNL     1      -1.023  11.606  21.982  0.00  0.00    +0.000 A 
BRANCH  26  29
ATOM     29  C   UNL     1      -3.864  13.939  23.026  0.00  0.00    +0.000 C 
ATOM     30  C   UNL     1      -5.270  13.336  22.996  0.00  0.00    +0.000 C 
BRANCH  29  31
ATOM     31  N   UNL     1      -3.889  15.318  22.557  0.00  0.00    +0.000 N 
ATOM     32  C   UNL     1      -4.077  16.464  23.256  0.00  0.00    +0.000 C 
ATOM     33  C   UNL     1      -4.143  16.406  24.756  0.00  0.00    +0.000 C 
ATOM     34  O   UNL     1      -4.147  17.534  22.650  0.00  0.00    +0.000 OA
ATOM     35  H   UNL     1      -3.831  15.480  21.556  0.00  0.00    +0.000 HD
ENDBRANCH  29  31
ENDBRANCH  26  29
ENDBRANCH  22  23
ENDBRANCH   4  22
TORSDOF 10
ENDMDL
MODEL 8
REMARK VINA RESULT:      -7.4      1.220      1.498
REMARK  Name = 
REMARK  13 active torsions:
REMARK  status: ('A' for Active; 'I' for Inactive)
REMARK    1  A    between atoms: C_1  and  C_2
REMARK    2  A    between atoms: C_2  and  O_3
REMARK    3  A    between atoms: O_3  and  C_4
REMARK    4  A    between atoms: C_4  and  C_6
REMARK    5  A    between atoms: C_6  and  O_7
REMARK    6  A    between atoms: O_7  and  C_8
REMARK    7  A    between atoms: C_11  and  N_12
REMARK    8  A    between atoms: C_15  and  O_16
REMARK    9  A    between atoms: O_16  and  C_17
REMARK   10  A    between atoms: C_20  and  C_21
REMARK   11  A    between atoms: C_21  and  C_22
REMARK   12  A    between atoms: C_21  and  N_23
REMARK   13  A    between atoms: C_24  and  C_25
REMARK                            x       y       z     vdW  Elec       q    Type
REMARK                         _______ _______ _______ _____ _____    ______ ____
ROOT
ATOM      1  N   UNL     1       1.250   8.951  19.347  0.00  0.00    +0.000 N 
ATOM      2  C   UNL     1       0.984  10.111  18.497  0.00  0.00    +0.000 C 
ATOM      3  C   UNL     1       1.192  11.293  19.441  0.00  0.00    +0.000 C 
ATOM      4  C   UNL     1       0.616  10.776  20.752  0.00  0.00    +0.000 C 
ATOM      5  C   UNL     1       1.076   9.320  20.762  0.00  0.00    +0.000 C 
ENDROOT
BRANCH   1   9
ATOM      6  C   UNL     1       4.061   5.997  18.288  0.00  0.00    +0.000 A 
ATOM      7  C   UNL     1       3.822   7.077  17.459  0.00  0.00    +0.000 A 
ATOM      8  C   UNL     1       2.912   8.053  17.840  0.00  0.00    +0.000 A 
ATOM      9  C   UNL     1       2.135   7.949  19.001  0.00  0.00    +0.000 A 
ATOM     10  C   UNL     1       2.348   6.811  19.791  0.00  0.00    +0.000 A 
ATOM     11  C   UNL     1       3.298   5.839  19.440  0.00  0.00    +0.000 A 
BRANCH   6  12
ATOM     12  O   UNL     1       5.070   5.093  18.075  0.00  0.00    +0.000 OA
BRANCH  12  13
ATOM     13  C   UNL     1       6.269   5.559  17.364  0.00  0.00    +0.000 C 
ATOM     14  C   UNL     1       7.565   4.824  17.846  0.00  0.00    +0.000 C 
ATOM     15  C   UNL     1       7.805   5.980  18.832  0.00  0.00    +0.000 C 
ATOM     16  C   UNL     1       6.959   6.868  17.923  0.00  0.00    +0.000 C 
BRANCH  13  17
ATOM     17  C   UNL     1       6.060   5.552  15.782  0.00  0.00    +0.000 C 
ATOM     18  O   UNL     1       5.673   6.503  15.103  0.00  0.00    +0.000 OA
BRANCH  17  19
ATOM     19  O   UNL     1       6.271   4.306  15.255  0.00  0.00    +0.000 OA
BRANCH  19  21
ATOM     20  C   UNL     1       6.326   3.678  12.954  0.00  0.00    +0.000 C 
ATOM     21  C   UNL     1       5.428   3.956  14.147  0.00  0.00    +0.000 C 
ENDBRANCH  19  21
ENDBRANCH  17  19
ENDBRANCH  13  17
ENDBRANCH  12  13
ENDBRANCH   6  12
ENDBRANCH   1   9
BRANCH   4  22
ATOM     22  O   UNL     1      -0.812  10.817  20.736  0.00  0.00    +0.000 OA
BRANCH  22  23
ATOM     23  C   UNL     1      -1.404  11.706  21.585  0.00  0.00    +0.000 A 
ATOM     24  C   UNL     1      -1.721  12.941  21.021  0.00  0.00    +0.000 A 
ATOM     25  C   UNL     1      -2.357  13.923  21.782  0.00  0.00    +0.000 A 
ATOM     26  C   UNL     1      -2.698  13.673  23.120  0.00  0.00    +0.000 A 
ATOM     27  C   UNL     1      -2.374  12.427  23.673  0.00  0.00    +0.000 A 
ATOM     28  C   UNL     1      -1.740  11.449  22.911  0.00  0.00    +0.000 A 
BRANCH  26  29
ATOM     29  C   UNL     1      -3.450  14.712  23.928  0.00  0.00    +0.000 C 
ATOM     30  C   UNL     1      -2.749  14.995  25.259  0.00  0.00    +0.000 C 
BRANCH  29  31
ATOM     31  N   UNL     1      -4.813  14.250  24.156  0.00  0.00    +0.000 N 
ATOM     32  C   UNL     1      -5.985  14.774  23.721  0.00  0.00    +0.000 C 
ATOM     33  C   UNL     1      -5.961  15.916  22.745  0.00  0.00    +0.000 C 
ATOM     34  O   UNL     1      -7.045  14.274  24.100  0.00  0.00    +0.000 OA
ATOM     35  H   UNL     1      -4.949  13.467  24.788  0.00  0.00    +0.000 HD
ENDBRANCH  29  31
ENDBRANCH  26  29
ENDBRANCH  22  23
ENDBRANCH   4  22
TORSDOF 10
ENDMDL
MODEL 9
REMARK VINA RESULT:      -7.4      1.129      1.223
REMARK  Name = 
REMARK  13 active torsions:
REMARK  status: ('A' for Active; 'I' for Inactive)
REMARK    1  A    between atoms: C_1  and  C_2
REMARK    2  A    between atoms: C_2  and  O_3
REMARK    3  A    between atoms: O_3  and  C_4
REMARK    4  A    between atoms: C_4  and  C_6
REMARK    5  A    between atoms: C_6  and  O_7
REMARK    6  A    between atoms: O_7  and  C_8
REMARK    7  A    between atoms: C_11  and  N_12
REMARK    8  A    between atoms: C_15  and  O_16
REMARK    9  A    between atoms: O_16  and  C_17
REMARK   10  A    between atoms: C_20  and  C_21
REMARK   11  A    between atoms: C_21  and  C_22
REMARK   12  A    between atoms: C_21  and  N_23
REMARK   13  A    between atoms: C_24  and  C_25
REMARK                            x       y       z     vdW  Elec       q    Type
REMARK                         _______ _______ _______ _____ _____    ______ ____
ROOT
ATOM      1  N   UNL     1       1.670   8.426  20.137  0.00  0.00    +0.000 N 
ATOM      2  C   UNL     1       1.139   8.255  21.490  0.00  0.00    +0.000 C 
ATOM      3  C   UNL     1      -0.342   8.586  21.329  0.00  0.00    +0.000 C 
ATOM      4  C   UNL     1      -0.320   9.734  20.329  0.00  0.00    +0.000 C 
ATOM      5  C   UNL     1       0.779   9.304  19.360  0.00  0.00    +0.000 C 
ENDROOT
BRANCH   1   9
ATOM      6  C   UNL     1       4.065   5.584  18.153  0.00  0.00    +0.000 A 
ATOM      7  C   UNL     1       3.688   6.756  17.524  0.00  0.00    +0.000 A 
ATOM      8  C   UNL     1       2.922   7.691  18.205  0.00  0.00    +0.000 A 
ATOM      9  C   UNL     1       2.419   7.462  19.493  0.00  0.00    +0.000 A 
ATOM     10  C   UNL     1       2.759   6.237  20.084  0.00  0.00    +0.000 A 
ATOM     11  C   UNL     1       3.571   5.302  19.422  0.00  0.00    +0.000 A 
BRANCH   6  12
ATOM     12  O   UNL     1       4.967   4.700  17.620  0.00  0.00    +0.000 OA
BRANCH  12  13
ATOM     13  C   UNL     1       6.183   5.249  17.004  0.00  0.00    +0.000 C 
ATOM     14  C   UNL     1       7.482   4.569  17.553  0.00  0.00    +0.000 C 
ATOM     15  C   UNL     1       7.594   5.706  18.583  0.00  0.00    +0.000 C 
ATOM     16  C   UNL     1       6.763   6.576  17.643  0.00  0.00    +0.000 C 
BRANCH  13  17
ATOM     17  C   UNL     1       6.080   5.279  15.412  0.00  0.00    +0.000 C 
ATOM     18  O   UNL     1       5.800   6.263  14.727  0.00  0.00    +0.000 OA
BRANCH  17  19
ATOM     19  O   UNL     1       6.246   4.029  14.876  0.00  0.00    +0.000 OA
BRANCH  19  21
ATOM     20  C   UNL     1       5.355   3.547  12.716  0.00  0.00    +0.000 C 
ATOM     21  C   UNL     1       6.587   3.998  13.483  0.00  0.00    +0.000 C 
ENDBRANCH  19  21
ENDBRANCH  17  19
ENDBRANCH  13  17
ENDBRANCH  12  13
ENDBRANCH   6  12
ENDBRANCH   1   9
BRANCH   4  22
ATOM     22  O   UNL     1       0.063  10.956  20.961  0.00  0.00    +0.000 OA
BRANCH  22  23
ATOM     23  C   UNL     1      -0.928  11.653  21.589  0.00  0.00    +0.000 A 
ATOM     24  C   UNL     1      -1.568  12.608  20.802  0.00  0.00    +0.000 A 
ATOM     25  C   UNL     1      -2.619  13.364  21.324  0.00  0.00    +0.000 A 
ATOM     26  C   UNL     1      -3.052  13.161  22.642  0.00  0.00    +0.000 A 
ATOM     27  C   UNL     1      -2.400  12.196  23.422  0.00  0.00    +0.000 A 
ATOM     28  C   UNL     1      -1.353  11.443  22.898  0.00  0.00    +0.000 A 
BRANCH  26  29
ATOM     29  C   UNL     1      -4.238  13.932  23.190  0.00  0.00    +0.000 C 
ATOM     30  C   UNL     1      -5.537  13.138  23.035  0.00  0.00    +0.000 C 
BRANCH  29  31
ATOM     31  N   UNL     1      -4.337  15.214  22.505  0.00  0.00    +0.000 N 
ATOM     32  C   UNL     1      -4.650  16.435  23.002  0.00  0.00    +0.000 C 
ATOM     33  C   UNL     1      -4.799  16.607  24.487  0.00  0.00    +0.000 C 
ATOM     34  O   UNL     1      -4.763  17.388  22.229  0.00  0.00    +0.000 OA
ATOM     35  H   UNL     1      -4.234  15.221  21.495  0.00  0.00    +0.000 HD
ENDBRANCH  29  31
ENDBRANCH  26  29
ENDBRANCH  22  23
ENDBRANCH   4  22
TORSDOF 10
ENDMDL
