MODEL 1
REMARK VINA RESULT:      -8.2      0.000      0.000
REMARK  Name = 
REMARK  9 active torsions:
REMARK  status: ('A' for Active; 'I' for Inactive)
REMARK    1  A    between atoms: C_1  and  C_2
REMARK    2  A    between atoms: C_2  and  C_3
REMARK    3  A    between atoms: C_2  and  C_4
REMARK    4  A    between atoms: C_2  and  C_6
REMARK    5  A    between atoms: C_4  and  O_5
REMARK    6  A    between atoms: C_6  and  N_7
REMARK    7  A    between atoms: N_7  and  C_8
REMARK    8  A    between atoms: N_7  and  C_19
REMARK    9  A    between atoms: C_8  and  C_9
REMARK                            x       y       z     vdW  Elec       q    Type
REMARK                         _______ _______ _______ _____ _____    ______ ____
ROOT
ATOM      1  N   UNL     1       3.482   5.127  19.401  0.00  0.00    +0.000 N 
ENDROOT
BRANCH   1   2
ATOM      2  C   UNL     1       4.688   5.330  18.722  0.00  0.00    +0.000 A 
ATOM      3  C   UNL     1       4.715   5.376  17.384  0.00  0.00    +0.000 A 
ATOM      4  C   UNL     1       6.023   5.344  16.686  0.00  0.00    +0.000 A 
ATOM      5  N   UNL     1       6.061   5.283  15.297  0.00  0.00    +0.000 N 
ATOM      6  C   UNL     1       4.999   4.712  14.455  0.00  0.00    +0.000 C 
ATOM      7  C   UNL     1       5.564   3.594  13.565  0.00  0.00    +0.000 C 
ATOM      8  O   UNL     1       6.673   4.055  12.782  0.00  0.00    +0.000 OA
ATOM      9  C   UNL     1       7.728   4.510  13.647  0.00  0.00    +0.000 C 
ATOM     10  C   UNL     1       7.260   5.670  14.534  0.00  0.00    +0.000 C 
ATOM     11  N   UNL     1       7.135   5.357  17.361  0.00  0.00    +0.000 NA
ATOM     12  C   UNL     1       7.101   5.348  18.731  0.00  0.00    +0.000 A 
ATOM     13  O   UNL     1       8.119   5.281  19.417  0.00  0.00    +0.000 OA
ATOM     14  N   UNL     1       5.885   5.369  19.362  0.00  0.00    +0.000 N 
ATOM     15  H   UNL     1       5.925   5.273  20.364  0.00  0.00    +0.000 HD
ENDBRANCH   1   2
BRANCH   1  16
ATOM     16  C   UNL     1       3.042   3.715  19.590  0.00  0.00    +0.000 C 
BRANCH  16  18
ATOM     17  C   UNL     1       1.370   4.193  17.595  0.00  0.00    +0.000 C 
ATOM     18  C   UNL     1       2.023   3.152  18.538  0.00  0.00    +0.000 C 
ATOM     19  C   UNL     1       0.844   2.548  19.344  0.00  0.00    +0.000 C 
BRANCH  18  20
ATOM     20  C   UNL     1       2.732   2.086  17.681  0.00  0.00    +0.000 C 
BRANCH  20  21
ATOM     21  O   UNL     1       3.522   1.184  18.448  0.00  0.00    +0.000 OA
ATOM     22  H   UNL     1       4.310   0.947  17.938  0.00  0.00    +0.000 HD
ENDBRANCH  20  21
ENDBRANCH  18  20
ENDBRANCH  16  18
ENDBRANCH   1  16
BRANCH   1  23
ATOM     23  C   UNL     1       2.817   6.153  20.257  0.00  0.00    +0.000 C 
BRANCH  23  24
ATOM     24  C   UNL     1       2.202   7.368  19.547  0.00  0.00    +0.000 A 
ATOM     25  C   UNL     1       2.454   7.619  18.186  0.00  0.00    +0.000 A 
ATOM     26  C   UNL     1       2.033   8.804  17.577  0.00  0.00    +0.000 A 
ATOM     27  C   UNL     1       1.332   9.755  18.311  0.00  0.00    +0.000 A 
ATOM     28  C   UNL     1       0.981   9.512  19.643  0.00  0.00    +0.000 A 
ATOM     29  C   UNL     1       0.218  10.471  20.331  0.00  0.00    +0.000 A 
ATOM     30  C   UNL     1      -0.233  10.238  21.628  0.00  0.00    +0.000 A 
ATOM     31  C   UNL     1       0.084   9.039  22.249  0.00  0.00    +0.000 A 
ATOM     32  C   UNL     1       0.882   8.090  21.590  0.00  0.00    +0.000 A 
ATOM     33  C   UNL     1       1.374   8.298  20.274  0.00  0.00    +0.000 A 
ENDBRANCH  23  24
ENDBRANCH   1  23
TORSDOF 7
ENDMDL
MODEL 2
REMARK VINA RESULT:      -8.0      0.917      1.232
REMARK  Name = 
REMARK  9 active torsions:
REMARK  status: ('A' for Active; 'I' for Inactive)
REMARK    1  A    between atoms: C_1  and  C_2
REMARK    2  A    between atoms: C_2  and  C_3
REMARK    3  A    between atoms: C_2  and  C_4
REMARK    4  A    between atoms: C_2  and  C_6
REMARK    5  A    between atoms: C_4  and  O_5
REMARK    6  A    between atoms: C_6  and  N_7
REMARK    7  A    between atoms: N_7  and  C_8
REMARK    8  A    between atoms: N_7  and  C_19
REMARK    9  A    between atoms: C_8  and  C_9
REMARK                            x       y       z     vdW  Elec       q    Type
REMARK                         _______ _______ _______ _____ _____    ______ ____
ROOT
ATOM      1  N   UNL     1       3.730   5.088  19.142  0.00  0.00    +0.000 N 
ENDROOT
BRANCH   1   2
ATOM      2  C   UNL     1       4.919   5.247  18.424  0.00  0.00    +0.000 A 
ATOM      3  C   UNL     1       4.904   5.294  17.086  0.00  0.00    +0.000 A 
ATOM      4  C   UNL     1       6.186   5.213  16.345  0.00  0.00    +0.000 A 
ATOM      5  N   UNL     1       6.176   5.154  14.955  0.00  0.00    +0.000 N 
ATOM      6  C   UNL     1       5.067   4.626  14.149  0.00  0.00    +0.000 C 
ATOM      7  C   UNL     1       5.559   3.489  13.239  0.00  0.00    +0.000 C 
ATOM      8  O   UNL     1       6.658   3.909  12.421  0.00  0.00    +0.000 OA
ATOM      9  C   UNL     1       7.758   4.321  13.251  0.00  0.00    +0.000 C 
ATOM     10  C   UNL     1       7.364   5.496  14.154  0.00  0.00    +0.000 C 
ATOM     11  N   UNL     1       7.320   5.183  16.984  0.00  0.00    +0.000 NA
ATOM     12  C   UNL     1       7.331   5.172  18.354  0.00  0.00    +0.000 A 
ATOM     13  O   UNL     1       8.367   5.065  19.006  0.00  0.00    +0.000 OA
ATOM     14  N   UNL     1       6.137   5.238  19.025  0.00  0.00    +0.000 N 
ATOM     15  H   UNL     1       6.207   5.139  20.024  0.00  0.00    +0.000 HD
ENDBRANCH   1   2
BRANCH   1  16
ATOM     16  C   UNL     1       3.232   3.696  19.327  0.00  0.00    +0.000 C 
BRANCH  16  18
ATOM     17  C   UNL     1       1.343   1.981  18.623  0.00  0.00    +0.000 C 
ATOM     18  C   UNL     1       1.723   3.439  18.982  0.00  0.00    +0.000 C 
ATOM     19  C   UNL     1       1.416   4.259  17.702  0.00  0.00    +0.000 C 
BRANCH  18  20
ATOM     20  C   UNL     1       0.857   3.896  20.172  0.00  0.00    +0.000 C 
BRANCH  20  21
ATOM     21  O   UNL     1       0.763   2.921  21.204  0.00  0.00    +0.000 OA
ATOM     22  H   UNL     1       1.175   3.274  22.006  0.00  0.00    +0.000 HD
ENDBRANCH  20  21
ENDBRANCH  18  20
ENDBRANCH  16  18
ENDBRANCH   1  16
BRANCH   1  23
ATOM     23  C   UNL     1       3.142   6.131  20.034  0.00  0.00    +0.000 C 
BRANCH  23  24
ATOM     24  C   UNL     1       2.461   7.330  19.359  0.00  0.00    +0.000 A 
ATOM     25  C   UNL     1       2.738   7.666  18.022  0.00  0.00    +0.000 A 
ATOM     26  C   UNL     1       2.248   8.845  17.454  0.00  0.00    +0.000 A 
ATOM     27  C   UNL     1       1.453   9.703  18.205  0.00  0.00    +0.000 A 
ATOM     28  C   UNL     1       1.077   9.369  19.510  0.00  0.00    +0.000 A 
ATOM     29  C   UNL     1       0.219  10.234  20.213  0.00  0.00    +0.000 A 
ATOM     30  C   UNL     1      -0.256   9.903  21.480  0.00  0.00    +0.000 A 
ATOM     31  C   UNL     1       0.131   8.702  22.056  0.00  0.00    +0.000 A 
ATOM     32  C   UNL     1       1.021   7.849  21.383  0.00  0.00    +0.000 A 
ATOM     33  C   UNL     1       1.540   8.158  20.098  0.00  0.00    +0.000 A 
ENDBRANCH  23  24
ENDBRANCH   1  23
TORSDOF 7
ENDMDL
MODEL 3
REMARK VINA RESULT:      -8.0      3.270      7.292
REMARK  Name = 
REMARK  9 active torsions:
REMARK  status: ('A' for Active; 'I' for Inactive)
REMARK    1  A    between atoms: C_1  and  C_2
REMARK    2  A    between atoms: C_2  and  C_3
REMARK    3  A    between atoms: C_2  and  C_4
REMARK    4  A    between atoms: C_2  and  C_6
REMARK    5  A    between atoms: C_4  and  O_5
REMARK    6  A    between atoms: C_6  and  N_7
REMARK    7  A    between atoms: N_7  and  C_8
REMARK    8  A    between atoms: N_7  and  C_19
REMARK    9  A    between atoms: C_8  and  C_9
REMARK                            x       y       z     vdW  Elec       q    Type
REMARK                         _______ _______ _______ _____ _____    ______ ____
ROOT
ATOM      1  N   UNL     1       2.775   6.452  19.385  0.00  0.00    +0.000 N 
ENDROOT
BRANCH   1   2
ATOM      2  C   UNL     1       1.976   7.522  19.802  0.00  0.00    +0.000 A 
ATOM      3  C   UNL     1       1.841   8.609  19.032  0.00  0.00    +0.000 A 
ATOM      4  C   UNL     1       1.198   9.820  19.597  0.00  0.00    +0.000 A 
ATOM      5  N   UNL     1       1.148  10.989  18.845  0.00  0.00    +0.000 N 
ATOM      6  C   UNL     1       2.105  11.345  17.788  0.00  0.00    +0.000 C 
ATOM      7  C   UNL     1       2.757  12.703  18.091  0.00  0.00    +0.000 C 
ATOM      8  O   UNL     1       1.773  13.727  18.284  0.00  0.00    +0.000 OA
ATOM      9  C   UNL     1       0.921  13.387  19.392  0.00  0.00    +0.000 C 
ATOM     10  C   UNL     1       0.186  12.064  19.142  0.00  0.00    +0.000 C 
ATOM     11  N   UNL     1       0.692   9.803  20.797  0.00  0.00    +0.000 NA
ATOM     12  C   UNL     1       0.801   8.675  21.567  0.00  0.00    +0.000 A 
ATOM     13  O   UNL     1       0.412   8.630  22.732  0.00  0.00    +0.000 OA
ATOM     14  N   UNL     1       1.406   7.566  21.033  0.00  0.00    +0.000 N 
ATOM     15  H   UNL     1       1.532   6.801  21.676  0.00  0.00    +0.000 HD
ENDBRANCH   1   2
BRANCH   1  16
ATOM     16  C   UNL     1       2.597   5.157  20.100  0.00  0.00    +0.000 C 
BRANCH  16  18
ATOM     17  C   UNL     1       1.412   4.349  17.876  0.00  0.00    +0.000 C 
ATOM     18  C   UNL     1       1.969   3.980  19.273  0.00  0.00    +0.000 C 
ATOM     19  C   UNL     1       0.739   3.483  20.076  0.00  0.00    +0.000 C 
BRANCH  18  20
ATOM     20  C   UNL     1       3.026   2.871  19.107  0.00  0.00    +0.000 C 
BRANCH  20  21
ATOM     21  O   UNL     1       2.464   1.604  18.788  0.00  0.00    +0.000 OA
ATOM     22  H   UNL     1       3.073   0.910  19.081  0.00  0.00    +0.000 HD
ENDBRANCH  20  21
ENDBRANCH  18  20
ENDBRANCH  16  18
ENDBRANCH   1  16
BRANCH   1  23
ATOM     23  C   UNL     1       3.491   6.400  18.076  0.00  0.00    +0.000 C 
BRANCH  23  24
ATOM     24  C   UNL     1       4.917   5.829  18.078  0.00  0.00    +0.000 A 
ATOM     25  C   UNL     1       5.695   5.822  19.250  0.00  0.00    +0.000 A 
ATOM     26  C   UNL     1       7.043   5.455  19.222  0.00  0.00    +0.000 A 
ATOM     27  C   UNL     1       7.636   5.066  18.026  0.00  0.00    +0.000 A 
ATOM     28  C   UNL     1       6.881   4.972  16.853  0.00  0.00    +0.000 A 
ATOM     29  C   UNL     1       7.504   4.514  15.678  0.00  0.00    +0.000 A 
ATOM     30  C   UNL     1       6.777   4.318  14.507  0.00  0.00    +0.000 A 
ATOM     31  C   UNL     1       5.415   4.584  14.503  0.00  0.00    +0.000 A 
ATOM     32  C   UNL     1       4.788   5.083  15.656  0.00  0.00    +0.000 A 
ATOM     33  C   UNL     1       5.499   5.312  16.864  0.00  0.00    +0.000 A 
ENDBRANCH  23  24
ENDBRANCH   1  23
TORSDOF 7
ENDMDL
MODEL 4
REMARK VINA RESULT:      -7.8      3.113      7.690
REMARK  Name = 
REMARK  9 active torsions:
REMARK  status: ('A' for Active; 'I' for Inactive)
REMARK    1  A    between atoms: C_1  and  C_2
REMARK    2  A    between atoms: C_2  and  C_3
REMARK    3  A    between atoms: C_2  and  C_4
REMARK    4  A    between atoms: C_2  and  C_6
REMARK    5  A    between atoms: C_4  and  O_5
REMARK    6  A    between atoms: C_6  and  N_7
REMARK    7  A    between atoms: N_7  and  C_8
REMARK    8  A    between atoms: N_7  and  C_19
REMARK    9  A    between atoms: C_8  and  C_9
REMARK                            x       y       z     vdW  Elec       q    Type
REMARK                         _______ _______ _______ _____ _____    ______ ____
ROOT
ATOM      1  N   UNL     1       2.758   5.632  19.669  0.00  0.00    +0.000 N 
ENDROOT
BRANCH   1   2
ATOM      2  C   UNL     1       2.399   6.977  19.537  0.00  0.00    +0.000 A 
ATOM      3  C   UNL     1       2.084   7.705  20.616  0.00  0.00    +0.000 A 
ATOM      4  C   UNL     1       1.472   9.043  20.432  0.00  0.00    +0.000 A 
ATOM      5  N   UNL     1       1.043   9.763  21.542  0.00  0.00    +0.000 N 
ATOM      6  C   UNL     1       0.626   9.163  22.818  0.00  0.00    +0.000 C 
ATOM      7  C   UNL     1      -0.802   9.603  23.176  0.00  0.00    +0.000 C 
ATOM      8  O   UNL     1      -0.923  11.032  23.196  0.00  0.00    +0.000 OA
ATOM      9  C   UNL     1      -0.605  11.568  21.900  0.00  0.00    +0.000 C 
ATOM     10  C   UNL     1       0.832  11.220  21.490  0.00  0.00    +0.000 C 
ATOM     11  N   UNL     1       1.319   9.544  19.241  0.00  0.00    +0.000 NA
ATOM     12  C   UNL     1       1.678   8.809  18.141  0.00  0.00    +0.000 A 
ATOM     13  O   UNL     1       1.483   9.201  16.992  0.00  0.00    +0.000 OA
ATOM     14  N   UNL     1       2.234   7.570  18.327  0.00  0.00    +0.000 N 
ATOM     15  H   UNL     1       2.394   7.047  17.481  0.00  0.00    +0.000 HD
ENDBRANCH   1   2
BRANCH   1  16
ATOM     16  C   UNL     1       2.157   4.879  20.806  0.00  0.00    +0.000 C 
BRANCH  16  18
ATOM     17  C   UNL     1       1.225   2.586  21.741  0.00  0.00    +0.000 C 
ATOM     18  C   UNL     1       1.917   3.345  20.582  0.00  0.00    +0.000 C 
ATOM     19  C   UNL     1       3.317   2.692  20.455  0.00  0.00    +0.000 C 
BRANCH  18  20
ATOM     20  C   UNL     1       1.082   3.156  19.300  0.00  0.00    +0.000 C 
BRANCH  20  21
ATOM     21  O   UNL     1       1.226   1.864  18.723  0.00  0.00    +0.000 OA
ATOM     22  H   UNL     1       1.289   1.209  19.435  0.00  0.00    +0.000 HD
ENDBRANCH  20  21
ENDBRANCH  18  20
ENDBRANCH  16  18
ENDBRANCH   1  16
BRANCH   1  23
ATOM     23  C   UNL     1       3.373   4.817  18.580  0.00  0.00    +0.000 C 
BRANCH  23  24
ATOM     24  C   UNL     1       4.884   4.970  18.355  0.00  0.00    +0.000 A 
ATOM     25  C   UNL     1       5.746   5.307  19.414  0.00  0.00    +0.000 A 
ATOM     26  C   UNL     1       7.092   5.606  19.187  0.00  0.00    +0.000 A 
ATOM     27  C   UNL     1       7.610   5.553  17.898  0.00  0.00    +0.000 A 
ATOM     28  C   UNL     1       6.815   5.138  16.825  0.00  0.00    +0.000 A 
ATOM     29  C   UNL     1       7.394   5.037  15.548  0.00  0.00    +0.000 A 
ATOM     30  C   UNL     1       6.670   4.543  14.466  0.00  0.00    +0.000 A 
ATOM     31  C   UNL     1       5.353   4.150  14.655  0.00  0.00    +0.000 A 
ATOM     32  C   UNL     1       4.749   4.285  15.916  0.00  0.00    +0.000 A 
ATOM     33  C   UNL     1       5.449   4.800  17.039  0.00  0.00    +0.000 A 
ENDBRANCH  23  24
ENDBRANCH   1  23
TORSDOF 7
ENDMDL
MODEL 5
REMARK VINA RESULT:      -7.8      3.137      7.682
REMARK  Name = 
REMARK  9 active torsions:
REMARK  status: ('A' for Active; 'I' for Inactive)
REMARK    1  A    between atoms: C_1  and  C_2
REMARK    2  A    between atoms: C_2  and  C_3
REMARK    3  A    between atoms: C_2  and  C_4
REMARK    4  A    between atoms: C_2  and  C_6
REMARK    5  A    between atoms: C_4  and  O_5
REMARK    6  A    between atoms: C_6  and  N_7
REMARK    7  A    between atoms: N_7  and  C_8
REMARK    8  A    between atoms: N_7  and  C_19
REMARK    9  A    between atoms: C_8  and  C_9
REMARK                            x       y       z     vdW  Elec       q    Type
REMARK                         _______ _______ _______ _____ _____    ______ ____
ROOT
ATOM      1  N   UNL     1       2.778   5.653  19.635  0.00  0.00    +0.000 N 
ENDROOT
BRANCH   1   2
ATOM      2  C   UNL     1       2.403   6.994  19.515  0.00  0.00    +0.000 A 
ATOM      3  C   UNL     1       2.087   7.711  20.601  0.00  0.00    +0.000 A 
ATOM      4  C   UNL     1       1.459   9.043  20.431  0.00  0.00    +0.000 A 
ATOM      5  N   UNL     1       1.029   9.750  21.548  0.00  0.00    +0.000 N 
ATOM      6  C   UNL     1       0.627   9.137  22.822  0.00  0.00    +0.000 C 
ATOM      7  C   UNL     1      -0.804   9.558  23.192  0.00  0.00    +0.000 C 
ATOM      8  O   UNL     1      -0.941  10.985  23.222  0.00  0.00    +0.000 OA
ATOM      9  C   UNL     1      -0.637  11.534  21.928  0.00  0.00    +0.000 C 
ATOM     10  C   UNL     1       0.801  11.205  21.508  0.00  0.00    +0.000 C 
ATOM     11  N   UNL     1       1.293   9.551  19.243  0.00  0.00    +0.000 NA
ATOM     12  C   UNL     1       1.653   8.828  18.136  0.00  0.00    +0.000 A 
ATOM     13  O   UNL     1       1.447   9.226  16.991  0.00  0.00    +0.000 OA
ATOM     14  N   UNL     1       2.224   7.594  18.310  0.00  0.00    +0.000 N 
ATOM     15  H   UNL     1       2.385   7.078  17.460  0.00  0.00    +0.000 HD
ENDBRANCH   1   2
BRANCH   1  16
ATOM     16  C   UNL     1       2.202   4.888  20.777  0.00  0.00    +0.000 C 
BRANCH  16  18
ATOM     17  C   UNL     1       0.977   3.013  19.369  0.00  0.00    +0.000 C 
ATOM     18  C   UNL     1       1.934   3.361  20.535  0.00  0.00    +0.000 C 
ATOM     19  C   UNL     1       1.224   2.830  21.807  0.00  0.00    +0.000 C 
BRANCH  18  20
ATOM     20  C   UNL     1       3.282   2.653  20.297  0.00  0.00    +0.000 C 
BRANCH  20  21
ATOM     21  O   UNL     1       3.839   2.096  21.481  0.00  0.00    +0.000 OA
ATOM     22  H   UNL     1       4.648   1.615  21.249  0.00  0.00    +0.000 HD
ENDBRANCH  20  21
ENDBRANCH  18  20
ENDBRANCH  16  18
ENDBRANCH   1  16
BRANCH   1  23
ATOM     23  C   UNL     1       3.385   4.849  18.532  0.00  0.00    +0.000 C 
BRANCH  23  24
ATOM     24  C   UNL     1       4.898   4.989  18.311  0.00  0.00    +0.000 A 
ATOM     25  C   UNL     1       5.759   5.327  19.370  0.00  0.00    +0.000 A 
ATOM     26  C   UNL     1       7.108   5.613  19.145  0.00  0.00    +0.000 A 
ATOM     27  C   UNL     1       7.629   5.547  17.857  0.00  0.00    +0.000 A 
ATOM     28  C   UNL     1       6.834   5.130  16.786  0.00  0.00    +0.000 A 
ATOM     29  C   UNL     1       7.416   5.015  15.511  0.00  0.00    +0.000 A 
ATOM     30  C   UNL     1       6.691   4.519  14.430  0.00  0.00    +0.000 A 
ATOM     31  C   UNL     1       5.371   4.137  14.619  0.00  0.00    +0.000 A 
ATOM     32  C   UNL     1       4.764   4.287  15.876  0.00  0.00    +0.000 A 
ATOM     33  C   UNL     1       5.464   4.804  16.998  0.00  0.00    +0.000 A 
ENDBRANCH  23  24
ENDBRANCH   1  23
TORSDOF 7
ENDMDL
MODEL 6
REMARK VINA RESULT:      -7.7      3.326      7.317
REMARK  Name = 
REMARK  9 active torsions:
REMARK  status: ('A' for Active; 'I' for Inactive)
REMARK    1  A    between atoms: C_1  and  C_2
REMARK    2  A    between atoms: C_2  and  C_3
REMARK    3  A    between atoms: C_2  and  C_4
REMARK    4  A    between atoms: C_2  and  C_6
REMARK    5  A    between atoms: C_4  and  O_5
REMARK    6  A    between atoms: C_6  and  N_7
REMARK    7  A    between atoms: N_7  and  C_8
REMARK    8  A    between atoms: N_7  and  C_19
REMARK    9  A    between atoms: C_8  and  C_9
REMARK                            x       y       z     vdW  Elec       q    Type
REMARK                         _______ _______ _______ _____ _____    ______ ____
ROOT
ATOM      1  N   UNL     1       2.791   6.302  19.573  0.00  0.00    +0.000 N 
ENDROOT
BRANCH   1   2
ATOM      2  C   UNL     1       1.957   7.375  19.901  0.00  0.00    +0.000 A 
ATOM      3  C   UNL     1       1.857   8.431  19.085  0.00  0.00    +0.000 A 
ATOM      4  C   UNL     1       1.168   9.654  19.565  0.00  0.00    +0.000 A 
ATOM      5  N   UNL     1       1.150  10.793  18.767  0.00  0.00    +0.000 N 
ATOM      6  C   UNL     1       2.165  11.122  17.755  0.00  0.00    +0.000 C 
ATOM      7  C   UNL     1       2.783  12.499  18.045  0.00  0.00    +0.000 C 
ATOM      8  O   UNL     1       1.777  13.517  18.140  0.00  0.00    +0.000 OA
ATOM      9  C   UNL     1       0.866  13.207  19.208  0.00  0.00    +0.000 C 
ATOM     10  C   UNL     1       0.161  11.866  18.966  0.00  0.00    +0.000 C 
ATOM     11  N   UNL     1       0.593   9.675  20.732  0.00  0.00    +0.000 NA
ATOM     12  C   UNL     1       0.668   8.578  21.549  0.00  0.00    +0.000 A 
ATOM     13  O   UNL     1       0.212   8.571  22.691  0.00  0.00    +0.000 OA
ATOM     14  N   UNL     1       1.315   7.458  21.095  0.00  0.00    +0.000 N 
ATOM     15  H   UNL     1       1.411   6.719  21.772  0.00  0.00    +0.000 HD
ENDBRANCH   1   2
BRANCH   1  16
ATOM     16  C   UNL     1       2.770   5.124  20.487  0.00  0.00    +0.000 C 
BRANCH  16  18
ATOM     17  C   UNL     1       3.186   2.716  19.471  0.00  0.00    +0.000 C 
ATOM     18  C   UNL     1       2.166   3.797  19.907  0.00  0.00    +0.000 C 
ATOM     19  C   UNL     1       1.414   4.185  18.608  0.00  0.00    +0.000 C 
BRANCH  18  20
ATOM     20  C   UNL     1       1.216   3.186  20.955  0.00  0.00    +0.000 C 
BRANCH  20  21
ATOM     21  O   UNL     1       1.891   2.698  22.107  0.00  0.00    +0.000 OA
ATOM     22  H   UNL     1       2.632   3.288  22.309  0.00  0.00    +0.000 HD
ENDBRANCH  20  21
ENDBRANCH  18  20
ENDBRANCH  16  18
ENDBRANCH   1  16
BRANCH   1  23
ATOM     23  C   UNL     1       3.392   6.088  18.223  0.00  0.00    +0.000 C 
BRANCH  23  24
ATOM     24  C   UNL     1       4.866   5.659  18.171  0.00  0.00    +0.000 A 
ATOM     25  C   UNL     1       5.684   5.728  19.313  0.00  0.00    +0.000 A 
ATOM     26  C   UNL     1       7.060   5.495  19.234  0.00  0.00    +0.000 A 
ATOM     27  C   UNL     1       7.643   5.166  18.015  0.00  0.00    +0.000 A 
ATOM     28  C   UNL     1       6.858   4.999  16.870  0.00  0.00    +0.000 A 
ATOM     29  C   UNL     1       7.479   4.604  15.672  0.00  0.00    +0.000 A 
ATOM     30  C   UNL     1       6.731   4.338  14.528  0.00  0.00    +0.000 A 
ATOM     31  C   UNL     1       5.351   4.470  14.575  0.00  0.00    +0.000 A 
ATOM     32  C   UNL     1       4.722   4.905  15.752  0.00  0.00    +0.000 A 
ATOM     33  C   UNL     1       5.451   5.202  16.934  0.00  0.00    +0.000 A 
ENDBRANCH  23  24
ENDBRANCH   1  23
TORSDOF 7
ENDMDL
MODEL 7
REMARK VINA RESULT:      -7.6      0.973      1.357
REMARK  Name = 
REMARK  9 active torsions:
REMARK  status: ('A' for Active; 'I' for Inactive)
REMARK    1  A    between atoms: C_1  and  C_2
REMARK    2  A    between atoms: C_2  and  C_3
REMARK    3  A    between atoms: C_2  and  C_4
REMARK    4  A    between atoms: C_2  and  C_6
REMARK    5  A    between atoms: C_4  and  O_5
REMARK    6  A    between atoms: C_6  and  N_7
REMARK    7  A    between atoms: N_7  and  C_8
REMARK    8  A    between atoms: N_7  and  C_19
REMARK    9  A    between atoms: C_8  and  C_9
REMARK                            x       y       z     vdW  Elec       q    Type
REMARK                         _______ _______ _______ _____ _____    ______ ____
ROOT
ATOM      1  N   UNL     1       3.271   5.468  18.259  0.00  0.00    +0.000 N 
ENDROOT
BRANCH   1   2
ATOM      2  C   UNL     1       4.543   5.401  17.682  0.00  0.00    +0.000 A 
ATOM      3  C   UNL     1       4.686   5.399  16.350  0.00  0.00    +0.000 A 
ATOM      4  C   UNL     1       6.010   5.080  15.765  0.00  0.00    +0.000 A 
ATOM      5  N   UNL     1       6.146   4.971  14.385  0.00  0.00    +0.000 N 
ATOM      6  C   UNL     1       5.060   4.603  13.464  0.00  0.00    +0.000 C 
ATOM      7  C   UNL     1       5.452   3.368  12.639  0.00  0.00    +0.000 C 
ATOM      8  O   UNL     1       6.692   3.569  11.947  0.00  0.00    +0.000 OA
ATOM      9  C   UNL     1       7.745   3.824  12.892  0.00  0.00    +0.000 C 
ATOM     10  C   UNL     1       7.456   5.081  13.722  0.00  0.00    +0.000 C 
ATOM     11  N   UNL     1       7.044   4.886  16.532  0.00  0.00    +0.000 NA
ATOM     12  C   UNL     1       6.899   4.925  17.894  0.00  0.00    +0.000 A 
ATOM     13  O   UNL     1       7.824   4.673  18.664  0.00  0.00    +0.000 OA
ATOM     14  N   UNL     1       5.667   5.213  18.420  0.00  0.00    +0.000 N 
ATOM     15  H   UNL     1       5.606   5.142  19.423  0.00  0.00    +0.000 HD
ENDBRANCH   1   2
BRANCH   1  16
ATOM     16  C   UNL     1       2.334   4.347  17.964  0.00  0.00    +0.000 C 
BRANCH  16  18
ATOM     17  C   UNL     1       3.348   3.223  20.135  0.00  0.00    +0.000 C 
ATOM     18  C   UNL     1       2.444   3.081  18.885  0.00  0.00    +0.000 C 
ATOM     19  C   UNL     1       3.112   1.972  18.033  0.00  0.00    +0.000 C 
BRANCH  18  20
ATOM     20  C   UNL     1       1.030   2.675  19.342  0.00  0.00    +0.000 C 
BRANCH  20  21
ATOM     21  O   UNL     1       0.342   1.872  18.390  0.00  0.00    +0.000 OA
ATOM     22  H   UNL     1       0.378   0.948  18.677  0.00  0.00    +0.000 HD
ENDBRANCH  20  21
ENDBRANCH  18  20
ENDBRANCH  16  18
ENDBRANCH   1  16
BRANCH   1  23
ATOM     23  C   UNL     1       2.918   6.347  19.413  0.00  0.00    +0.000 C 
BRANCH  23  24
ATOM     24  C   UNL     1       2.251   7.693  19.093  0.00  0.00    +0.000 A 
ATOM     25  C   UNL     1       2.434   8.316  17.846  0.00  0.00    +0.000 A 
ATOM     26  C   UNL     1       1.965   9.611  17.607  0.00  0.00    +0.000 A 
ATOM     27  C   UNL     1       1.286  10.302  18.604  0.00  0.00    +0.000 A 
ATOM     28  C   UNL     1       1.003   9.692  19.830  0.00  0.00    +0.000 A 
ATOM     29  C   UNL     1       0.258  10.402  20.788  0.00  0.00    +0.000 A 
ATOM     30  C   UNL     1      -0.126   9.807  21.987  0.00  0.00    +0.000 A 
ATOM     31  C   UNL     1       0.238   8.492  22.238  0.00  0.00    +0.000 A 
ATOM     32  C   UNL     1       1.019   7.785  21.309  0.00  0.00    +0.000 A 
ATOM     33  C   UNL     1       1.444   8.362  20.084  0.00  0.00    +0.000 A 
ENDBRANCH  23  24
ENDBRANCH   1  23
TORSDOF 7
ENDMDL
MODEL 8
REMARK VINA RESULT:      -7.5      1.065      1.401
REMARK  Name = 
REMARK  9 active torsions:
REMARK  status: ('A' for Active; 'I' for Inactive)
REMARK    1  A    between atoms: C_1  and  C_2
REMARK    2  A    between atoms: C_2  and  C_3
REMARK    3  A    between atoms: C_2  and  C_4
REMARK    4  A    between atoms: C_2  and  C_6
REMARK    5  A    between atoms: C_4  and  O_5
REMARK    6  A    between atoms: C_6  and  N_7
REMARK    7  A    between atoms: N_7  and  C_8
REMARK    8  A    between atoms: N_7  and  C_19
REMARK    9  A    between atoms: C_8  and  C_9
REMARK                            x       y       z     vdW  Elec       q    Type
REMARK                         _______ _______ _______ _____ _____    ______ ____
ROOT
ATOM      1  N   UNL     1       3.278   5.421  18.697  0.00  0.00    +0.000 N 
ENDROOT
BRANCH   1   2
ATOM      2  C   UNL     1       4.531   5.431  18.076  0.00  0.00    +0.000 A 
ATOM      3  C   UNL     1       4.628   5.432  16.740  0.00  0.00    +0.000 A 
ATOM      4  C   UNL     1       5.949   5.194  16.110  0.00  0.00    +0.000 A 
ATOM      5  N   UNL     1       6.043   5.087  14.726  0.00  0.00    +0.000 N 
ATOM      6  C   UNL     1       4.951   4.649  13.845  0.00  0.00    +0.000 C 
ATOM      7  C   UNL     1       5.390   3.437  13.009  0.00  0.00    +0.000 C 
ATOM      8  O   UNL     1       6.590   3.712  12.274  0.00  0.00    +0.000 OA
ATOM      9  C   UNL     1       7.658   4.036  13.181  0.00  0.00    +0.000 C 
ATOM     10  C   UNL     1       7.320   5.277  14.018  0.00  0.00    +0.000 C 
ATOM     11  N   UNL     1       7.019   5.068  16.841  0.00  0.00    +0.000 NA
ATOM     12  C   UNL     1       6.919   5.104  18.207  0.00  0.00    +0.000 A 
ATOM     13  O   UNL     1       7.883   4.912  18.945  0.00  0.00    +0.000 OA
ATOM     14  N   UNL     1       5.690   5.317  18.775  0.00  0.00    +0.000 N 
ATOM     15  H   UNL     1       5.669   5.245  19.779  0.00  0.00    +0.000 HD
ENDBRANCH   1   2
BRANCH   1  16
ATOM     16  C   UNL     1       2.471   4.175  18.572  0.00  0.00    +0.000 C 
BRANCH  16  18
ATOM     17  C   UNL     1       4.049   2.580  19.975  0.00  0.00    +0.000 C 
ATOM     18  C   UNL     1       2.620   3.124  19.728  0.00  0.00    +0.000 C 
ATOM     19  C   UNL     1       1.787   1.885  19.309  0.00  0.00    +0.000 C 
BRANCH  18  20
ATOM     20  C   UNL     1       2.096   3.748  21.036  0.00  0.00    +0.000 C 
BRANCH  20  21
ATOM     21  O   UNL     1       2.451   3.002  22.194  0.00  0.00    +0.000 OA
ATOM     22  H   UNL     1       3.339   3.267  22.475  0.00  0.00    +0.000 HD
ENDBRANCH  20  21
ENDBRANCH  18  20
ENDBRANCH  16  18
ENDBRANCH   1  16
BRANCH   1  23
ATOM     23  C   UNL     1       2.861   6.383  19.759  0.00  0.00    +0.000 C 
BRANCH  23  24
ATOM     24  C   UNL     1       2.191   7.687  19.301  0.00  0.00    +0.000 A 
ATOM     25  C   UNL     1       2.365   8.174  17.993  0.00  0.00    +0.000 A 
ATOM     26  C   UNL     1       1.894   9.435  17.620  0.00  0.00    +0.000 A 
ATOM     27  C   UNL     1       1.220  10.229  18.542  0.00  0.00    +0.000 A 
ATOM     28  C   UNL     1       0.946   9.754  19.828  0.00  0.00    +0.000 A 
ATOM     29  C   UNL     1       0.207  10.562  20.709  0.00  0.00    +0.000 A 
ATOM     30  C   UNL     1      -0.169  10.099  21.968  0.00  0.00    +0.000 A 
ATOM     31  C   UNL     1       0.198   8.819  22.356  0.00  0.00    +0.000 A 
ATOM     32  C   UNL     1       0.973   8.016  21.503  0.00  0.00    +0.000 A 
ATOM     33  C   UNL     1       1.390   8.459  20.220  0.00  0.00    +0.000 A 
ENDBRANCH  23  24
ENDBRANCH   1  23
TORSDOF 7
ENDMDL
MODEL 9
REMARK VINA RESULT:      -7.4      0.811      1.086
REMARK  Name = 
REMARK  9 active torsions:
REMARK  status: ('A' for Active; 'I' for Inactive)
REMARK    1  A    between atoms: C_1  and  C_2
REMARK    2  A    between atoms: C_2  and  C_3
REMARK    3  A    between atoms: C_2  and  C_4
REMARK    4  A    between atoms: C_2  and  C_6
REMARK    5  A    between atoms: C_4  and  O_5
REMARK    6  A    between atoms: C_6  and  N_7
REMARK    7  A    between atoms: N_7  and  C_8
REMARK    8  A    between atoms: N_7  and  C_19
REMARK    9  A    between atoms: C_8  and  C_9
REMARK                            x       y       z     vdW  Elec       q    Type
REMARK                         _______ _______ _______ _____ _____    ______ ____
ROOT
ATOM      1  N   UNL     1       3.131   5.536  18.723  0.00  0.00    +0.000 N 
ENDROOT
BRANCH   1   2
ATOM      2  C   UNL     1       4.404   5.553  18.144  0.00  0.00    +0.000 A 
ATOM      3  C   UNL     1       4.545   5.546  16.813  0.00  0.00    +0.000 A 
ATOM      4  C   UNL     1       5.888   5.316  16.229  0.00  0.00    +0.000 A 
ATOM      5  N   UNL     1       6.030   5.199  14.850  0.00  0.00    +0.000 N 
ATOM      6  C   UNL     1       4.972   4.743  13.936  0.00  0.00    +0.000 C 
ATOM      7  C   UNL     1       5.451   3.528  13.126  0.00  0.00    +0.000 C 
ATOM      8  O   UNL     1       6.672   3.810  12.428  0.00  0.00    +0.000 OA
ATOM      9  C   UNL     1       7.705   4.152  13.368  0.00  0.00    +0.000 C 
ATOM     10  C   UNL     1       7.327   5.396  14.182  0.00  0.00    +0.000 C 
ATOM     11  N   UNL     1       6.934   5.207  16.996  0.00  0.00    +0.000 NA
ATOM     12  C   UNL     1       6.789   5.253  18.358  0.00  0.00    +0.000 A 
ATOM     13  O   UNL     1       7.730   5.077  19.129  0.00  0.00    +0.000 OA
ATOM     14  N   UNL     1       5.540   5.457  18.883  0.00  0.00    +0.000 N 
ATOM     15  H   UNL     1       5.486   5.394  19.886  0.00  0.00    +0.000 HD
ENDBRANCH   1   2
BRANCH   1  16
ATOM     16  C   UNL     1       2.316   4.303  18.529  0.00  0.00    +0.000 C 
BRANCH  16  18
ATOM     17  C   UNL     1       1.216   2.321  19.894  0.00  0.00    +0.000 C 
ATOM     18  C   UNL     1       2.473   3.181  19.614  0.00  0.00    +0.000 C 
ATOM     19  C   UNL     1       2.772   3.900  20.954  0.00  0.00    +0.000 C 
BRANCH  18  20
ATOM     20  C   UNL     1       3.627   2.247  19.199  0.00  0.00    +0.000 C 
BRANCH  20  21
ATOM     21  O   UNL     1       4.884   2.634  19.742  0.00  0.00    +0.000 OA
ATOM     22  H   UNL     1       5.386   3.108  19.063  0.00  0.00    +0.000 HD
ENDBRANCH  20  21
ENDBRANCH  18  20
ENDBRANCH  16  18
ENDBRANCH   1  16
BRANCH   1  23
ATOM     23  C   UNL     1       2.688   6.465  19.804  0.00  0.00    +0.000 C 
BRANCH  23  24
ATOM     24  C   UNL     1       2.052   7.794  19.371  0.00  0.00    +0.000 A 
ATOM     25  C   UNL     1       2.189   8.271  18.055  0.00  0.00    +0.000 A 
ATOM     26  C   UNL     1       1.754   9.549  17.697  0.00  0.00    +0.000 A 
ATOM     27  C   UNL     1       1.153  10.372  18.644  0.00  0.00    +0.000 A 
ATOM     28  C   UNL     1       0.915   9.910  19.942  0.00  0.00    +0.000 A 
ATOM     29  C   UNL     1       0.247  10.750  20.851  0.00  0.00    +0.000 A 
ATOM     30  C   UNL     1      -0.093  10.305  22.126  0.00  0.00    +0.000 A 
ATOM     31  C   UNL     1       0.238   9.011  22.503  0.00  0.00    +0.000 A 
ATOM     32  C   UNL     1       0.943   8.177  21.621  0.00  0.00    +0.000 A 
ATOM     33  C   UNL     1       1.323   8.599  20.320  0.00  0.00    +0.000 A 
ENDBRANCH  23  24
ENDBRANCH   1  23
TORSDOF 7
ENDMDL
