MODEL 1
REMARK VINA RESULT:      -7.9      0.000      0.000
REMARK  Name = 
REMARK  4 active torsions:
REMARK  status: ('A' for Active; 'I' for Inactive)
REMARK    1  A    between atoms: C_1  and  N_2
REMARK    2  A    between atoms: N_5  and  C_6
REMARK    3  A    between atoms: C_9  and  N_10
REMARK    4  A    between atoms: N_19  and  C_20
REMARK                            x       y       z     vdW  Elec       q    Type
REMARK                         _______ _______ _______ _____ _____    ______ ____
ROOT
ATOM      1  N   UNL     1       1.324   6.945  21.058  0.00  0.00    +0.000 N 
ATOM      2  C   UNL     1       1.853   5.777  20.503  0.00  0.00    +0.000 A 
ATOM      3  N   UNL     1       1.281   4.625  20.889  0.00  0.00    +0.000 NA
ATOM      4  C   UNL     1       1.692   3.506  20.256  0.00  0.00    +0.000 A 
ATOM      5  C   UNL     1       2.647   3.484  19.261  0.00  0.00    +0.000 A 
ATOM      6  C   UNL     1       3.044   2.282  18.553  0.00  0.00    +0.000 A 
ATOM      7  C   UNL     1       3.919   2.386  17.548  0.00  0.00    +0.000 A 
ATOM      8  C   UNL     1       4.525   3.686  17.161  0.00  0.00    +0.000 A 
ATOM      9  O   UNL     1       5.267   3.707  16.181  0.00  0.00    +0.000 OA
ATOM     10  N   UNL     1       4.220   4.782  17.959  0.00  0.00    +0.000 N 
ATOM     11  C   UNL     1       3.216   4.706  18.969  0.00  0.00    +0.000 A 
ATOM     12  N   UNL     1       2.833   5.831  19.590  0.00  0.00    +0.000 NA
ATOM     13  H   UNL     1       0.522   6.698  21.619  0.00  0.00    +0.000 HD
ENDROOT
BRANCH   1  17
ATOM     14  C   UNL     1       1.203  10.885  19.421  0.00  0.00    +0.000 A 
ATOM     15  C   UNL     1       0.908  10.630  20.767  0.00  0.00    +0.000 A 
ATOM     16  C   UNL     1       0.965   9.333  21.307  0.00  0.00    +0.000 A 
ATOM     17  C   UNL     1       1.311   8.239  20.511  0.00  0.00    +0.000 A 
ATOM     18  C   UNL     1       1.671   8.507  19.192  0.00  0.00    +0.000 A 
ATOM     19  C   UNL     1       1.599   9.791  18.655  0.00  0.00    +0.000 A 
BRANCH  14  24
ATOM     20  C   UNL     1       1.394  16.386  19.019  0.00  0.00    +0.000 C 
ATOM     21  N   UNL     1       1.243  15.020  18.533  0.00  0.00    +0.000 NA
ATOM     22  C   UNL     1       0.104  14.346  19.198  0.00  0.00    +0.000 C 
ATOM     23  C   UNL     1      -0.096  12.888  18.716  0.00  0.00    +0.000 C 
ATOM     24  N   UNL     1       1.156  12.142  18.867  0.00  0.00    +0.000 N 
ATOM     25  C   UNL     1       2.339  12.784  18.270  0.00  0.00    +0.000 C 
ATOM     26  C   UNL     1       2.473  14.235  18.781  0.00  0.00    +0.000 C 
ENDBRANCH  14  24
ENDBRANCH   1  17
BRANCH  10  27
ATOM     27  C   UNL     1       4.869   6.056  17.707  0.00  0.00    +0.000 C 
ATOM     28  C   UNL     1       5.423   6.421  16.347  0.00  0.00    +0.000 C 
ATOM     29  C   UNL     1       4.202   7.113  16.853  0.00  0.00    +0.000 C 
ENDBRANCH  10  27
TORSDOF 3
ENDMDL
MODEL 2
REMARK VINA RESULT:      -7.5      3.254      8.777
REMARK  Name = 
REMARK  4 active torsions:
REMARK  status: ('A' for Active; 'I' for Inactive)
REMARK    1  A    between atoms: C_1  and  N_2
REMARK    2  A    between atoms: N_5  and  C_6
REMARK    3  A    between atoms: C_9  and  N_10
REMARK    4  A    between atoms: N_19  and  C_20
REMARK                            x       y       z     vdW  Elec       q    Type
REMARK                         _______ _______ _______ _____ _____    ______ ____
ROOT
ATOM      1  N   UNL     1      -0.345  10.217  20.172  0.00  0.00    +0.000 N 
ATOM      2  C   UNL     1      -0.193  11.523  20.647  0.00  0.00    +0.000 A 
ATOM      3  N   UNL     1      -1.115  11.944  21.528  0.00  0.00    +0.000 NA
ATOM      4  C   UNL     1      -0.900  13.150  22.094  0.00  0.00    +0.000 A 
ATOM      5  C   UNL     1       0.187  13.953  21.820  0.00  0.00    +0.000 A 
ATOM      6  C   UNL     1       0.434  15.224  22.473  0.00  0.00    +0.000 A 
ATOM      7  C   UNL     1       1.562  15.884  22.194  0.00  0.00    +0.000 A 
ATOM      8  C   UNL     1       2.550  15.374  21.208  0.00  0.00    +0.000 A 
ATOM      9  O   UNL     1       3.595  16.005  21.060  0.00  0.00    +0.000 OA
ATOM     10  N   UNL     1       2.202  14.226  20.507  0.00  0.00    +0.000 N 
ATOM     11  C   UNL     1       1.052  13.462  20.865  0.00  0.00    +0.000 A 
ATOM     12  N   UNL     1       0.856  12.271  20.279  0.00  0.00    +0.000 NA
ATOM     13  H   UNL     1      -1.118   9.787  20.660  0.00  0.00    +0.000 HD
ENDROOT
BRANCH   1  17
ATOM     14  C   UNL     1       2.624   7.527  18.702  0.00  0.00    +0.000 A 
ATOM     15  C   UNL     1       2.088   8.548  17.907  0.00  0.00    +0.000 A 
ATOM     16  C   UNL     1       1.123   9.444  18.400  0.00  0.00    +0.000 A 
ATOM     17  C   UNL     1       0.649   9.339  19.709  0.00  0.00    +0.000 A 
ATOM     18  C   UNL     1       1.236   8.367  20.516  0.00  0.00    +0.000 A 
ATOM     19  C   UNL     1       2.182   7.471  20.022  0.00  0.00    +0.000 A 
BRANCH  14  24
ATOM     20  C   UNL     1       7.498   5.021  18.049  0.00  0.00    +0.000 C 
ATOM     21  N   UNL     1       6.073   5.237  17.833  0.00  0.00    +0.000 NA
ATOM     22  C   UNL     1       5.824   6.577  17.254  0.00  0.00    +0.000 C 
ATOM     23  C   UNL     1       4.321   6.856  17.008  0.00  0.00    +0.000 C 
ATOM     24  N   UNL     1       3.569   6.639  18.247  0.00  0.00    +0.000 N 
ATOM     25  C   UNL     1       3.811   5.342  18.902  0.00  0.00    +0.000 C 
ATOM     26  C   UNL     1       5.325   5.121  19.105  0.00  0.00    +0.000 C 
ENDBRANCH  14  24
ENDBRANCH   1  17
BRANCH  10  27
ATOM     27  C   UNL     1       3.068  13.741  19.449  0.00  0.00    +0.000 C 
ATOM     28  C   UNL     1       2.521  13.173  18.158  0.00  0.00    +0.000 C 
ATOM     29  C   UNL     1       3.204  14.500  18.146  0.00  0.00    +0.000 C 
ENDBRANCH  10  27
TORSDOF 3
ENDMDL
MODEL 3
REMARK VINA RESULT:      -7.5      4.742      6.487
REMARK  Name = 
REMARK  4 active torsions:
REMARK  status: ('A' for Active; 'I' for Inactive)
REMARK    1  A    between atoms: C_1  and  N_2
REMARK    2  A    between atoms: N_5  and  C_6
REMARK    3  A    between atoms: C_9  and  N_10
REMARK    4  A    between atoms: N_19  and  C_20
REMARK                            x       y       z     vdW  Elec       q    Type
REMARK                         _______ _______ _______ _____ _____    ______ ____
ROOT
ATOM      1  N   UNL     1       6.859   5.430  17.822  0.00  0.00    +0.000 N 
ATOM      2  C   UNL     1       5.650   4.936  18.320  0.00  0.00    +0.000 A 
ATOM      3  N   UNL     1       5.583   3.608  18.503  0.00  0.00    +0.000 NA
ATOM      4  C   UNL     1       4.473   3.138  19.111  0.00  0.00    +0.000 A 
ATOM      5  C   UNL     1       3.430   3.932  19.541  0.00  0.00    +0.000 A 
ATOM      6  C   UNL     1       2.265   3.422  20.239  0.00  0.00    +0.000 A 
ATOM      7  C   UNL     1       1.351   4.288  20.685  0.00  0.00    +0.000 A 
ATOM      8  C   UNL     1       1.472   5.751  20.455  0.00  0.00    +0.000 A 
ATOM      9  O   UNL     1       0.624   6.486  20.958  0.00  0.00    +0.000 OA
ATOM     10  N   UNL     1       2.530   6.175  19.661  0.00  0.00    +0.000 N 
ATOM     11  C   UNL     1       3.563   5.276  19.262  0.00  0.00    +0.000 A 
ATOM     12  N   UNL     1       4.651   5.767  18.650  0.00  0.00    +0.000 NA
ATOM     13  H   UNL     1       7.515   4.665  17.757  0.00  0.00    +0.000 HD
ENDROOT
BRANCH   1  17
ATOM     14  C   UNL     1       8.542   9.297  18.479  0.00  0.00    +0.000 A 
ATOM     15  C   UNL     1       8.872   8.197  19.282  0.00  0.00    +0.000 A 
ATOM     16  C   UNL     1       8.329   6.920  19.052  0.00  0.00    +0.000 A 
ATOM     17  C   UNL     1       7.422   6.703  18.012  0.00  0.00    +0.000 A 
ATOM     18  C   UNL     1       7.152   7.783  17.174  0.00  0.00    +0.000 A 
ATOM     19  C   UNL     1       7.680   9.051  17.413  0.00  0.00    +0.000 A 
BRANCH  14  24
ATOM     20  C   UNL     1      12.048  13.555  18.290  0.00  0.00    +0.000 C 
ATOM     21  N   UNL     1      10.813  12.861  18.636  0.00  0.00    +0.000 NA
ATOM     22  C   UNL     1      11.091  11.687  19.494  0.00  0.00    +0.000 C 
ATOM     23  C   UNL     1       9.809  10.913  19.886  0.00  0.00    +0.000 C 
ATOM     24  N   UNL     1       9.059  10.554  18.680  0.00  0.00    +0.000 N 
ATOM     25  C   UNL     1       8.793  11.671  17.757  0.00  0.00    +0.000 C 
ATOM     26  C   UNL     1      10.107  12.406  17.417  0.00  0.00    +0.000 C 
ENDBRANCH  14  24
ENDBRANCH   1  17
BRANCH  10  27
ATOM     27  C   UNL     1       2.640   7.577  19.300  0.00  0.00    +0.000 C 
ATOM     28  C   UNL     1       2.978   8.022  17.895  0.00  0.00    +0.000 C 
ATOM     29  C   UNL     1       1.599   8.238  18.422  0.00  0.00    +0.000 C 
ENDBRANCH  10  27
TORSDOF 3
ENDMDL
MODEL 4
REMARK VINA RESULT:      -7.5      0.584      1.070
REMARK  Name = 
REMARK  4 active torsions:
REMARK  status: ('A' for Active; 'I' for Inactive)
REMARK    1  A    between atoms: C_1  and  N_2
REMARK    2  A    between atoms: N_5  and  C_6
REMARK    3  A    between atoms: C_9  and  N_10
REMARK    4  A    between atoms: N_19  and  C_20
REMARK                            x       y       z     vdW  Elec       q    Type
REMARK                         _______ _______ _______ _____ _____    ______ ____
ROOT
ATOM      1  N   UNL     1       1.565   6.766  21.271  0.00  0.00    +0.000 N 
ATOM      2  C   UNL     1       2.116   5.641  20.649  0.00  0.00    +0.000 A 
ATOM      3  N   UNL     1       1.664   4.450  21.072  0.00  0.00    +0.000 NA
ATOM      4  C   UNL     1       2.086   3.367  20.387  0.00  0.00    +0.000 A 
ATOM      5  C   UNL     1       2.938   3.420  19.303  0.00  0.00    +0.000 A 
ATOM      6  C   UNL     1       3.345   2.254  18.542  0.00  0.00    +0.000 A 
ATOM      7  C   UNL     1       4.109   2.425  17.459  0.00  0.00    +0.000 A 
ATOM      8  C   UNL     1       4.583   3.768  17.034  0.00  0.00    +0.000 A 
ATOM      9  O   UNL     1       5.223   3.848  15.987  0.00  0.00    +0.000 OA
ATOM     10  N   UNL     1       4.285   4.833  17.874  0.00  0.00    +0.000 N 
ATOM     11  C   UNL     1       3.392   4.679  18.975  0.00  0.00    +0.000 A 
ATOM     12  N   UNL     1       2.996   5.771  19.647  0.00  0.00    +0.000 NA
ATOM     13  H   UNL     1       0.840   6.459  21.904  0.00  0.00    +0.000 HD
ENDROOT
BRANCH   1  17
ATOM     14  C   UNL     1       1.172  10.693  19.646  0.00  0.00    +0.000 A 
ATOM     15  C   UNL     1       1.469   9.584  18.844  0.00  0.00    +0.000 A 
ATOM     16  C   UNL     1       1.581   8.288  19.380  0.00  0.00    +0.000 A 
ATOM     17  C   UNL     1       1.410   8.060  20.747  0.00  0.00    +0.000 A 
ATOM     18  C   UNL     1       1.047   9.155  21.528  0.00  0.00    +0.000 A 
ATOM     19  C   UNL     1       0.951  10.440  20.998  0.00  0.00    +0.000 A 
BRANCH  14  24
ATOM     20  C   UNL     1      -0.075  16.063  19.383  0.00  0.00    +0.000 C 
ATOM     21  N   UNL     1       0.459  14.795  18.901  0.00  0.00    +0.000 NA
ATOM     22  C   UNL     1      -0.603  13.765  18.840  0.00  0.00    +0.000 C 
ATOM     23  C   UNL     1      -0.084  12.396  18.335  0.00  0.00    +0.000 C 
ATOM     24  N   UNL     1       1.057  11.970  19.149  0.00  0.00    +0.000 N 
ATOM     25  C   UNL     1       2.128  12.970  19.293  0.00  0.00    +0.000 C 
ATOM     26  C   UNL     1       1.543  14.311  19.785  0.00  0.00    +0.000 C 
ENDBRANCH  14  24
ENDBRANCH   1  17
BRANCH  10  27
ATOM     27  C   UNL     1       4.818   6.151  17.578  0.00  0.00    +0.000 C 
ATOM     28  C   UNL     1       5.078   6.614  16.162  0.00  0.00    +0.000 C 
ATOM     29  C   UNL     1       3.952   7.214  16.936  0.00  0.00    +0.000 C 
ENDBRANCH  10  27
TORSDOF 3
ENDMDL
MODEL 5
REMARK VINA RESULT:      -7.4      3.192      8.389
REMARK  Name = 
REMARK  4 active torsions:
REMARK  status: ('A' for Active; 'I' for Inactive)
REMARK    1  A    between atoms: C_1  and  N_2
REMARK    2  A    between atoms: N_5  and  C_6
REMARK    3  A    between atoms: C_9  and  N_10
REMARK    4  A    between atoms: N_19  and  C_20
REMARK                            x       y       z     vdW  Elec       q    Type
REMARK                         _______ _______ _______ _____ _____    ______ ____
ROOT
ATOM      1  N   UNL     1       0.333   7.848  21.710  0.00  0.00    +0.000 N 
ATOM      2  C   UNL     1      -0.197   9.131  21.872  0.00  0.00    +0.000 A 
ATOM      3  N   UNL     1      -0.502   9.493  23.128  0.00  0.00    +0.000 NA
ATOM      4  C   UNL     1      -0.884  10.774  23.311  0.00  0.00    +0.000 A 
ATOM      5  C   UNL     1      -0.979  11.706  22.299  0.00  0.00    +0.000 A 
ATOM      6  C   UNL     1      -1.342  13.094  22.515  0.00  0.00    +0.000 A 
ATOM      7  C   UNL     1      -1.324  13.934  21.475  0.00  0.00    +0.000 A 
ATOM      8  C   UNL     1      -0.980  13.481  20.102  0.00  0.00    +0.000 A 
ATOM      9  O   UNL     1      -0.919  14.330  19.214  0.00  0.00    +0.000 OA
ATOM     10  N   UNL     1      -0.779  12.118  19.923  0.00  0.00    +0.000 N 
ATOM     11  C   UNL     1      -0.699  11.230  21.036  0.00  0.00    +0.000 A 
ATOM     12  N   UNL     1      -0.326   9.958  20.826  0.00  0.00    +0.000 NA
ATOM     13  H   UNL     1       0.463   7.438  22.624  0.00  0.00    +0.000 HD
ENDROOT
BRANCH   1  17
ATOM     14  C   UNL     1       2.908   6.468  18.598  0.00  0.00    +0.000 A 
ATOM     15  C   UNL     1       2.488   7.802  18.678  0.00  0.00    +0.000 A 
ATOM     16  C   UNL     1       1.654   8.258  19.715  0.00  0.00    +0.000 A 
ATOM     17  C   UNL     1       1.199   7.385  20.705  0.00  0.00    +0.000 A 
ATOM     18  C   UNL     1       1.675   6.076  20.660  0.00  0.00    +0.000 A 
ATOM     19  C   UNL     1       2.490   5.624  19.624  0.00  0.00    +0.000 A 
BRANCH  14  24
ATOM     20  C   UNL     1       7.356   4.386  16.082  0.00  0.00    +0.000 C 
ATOM     21  N   UNL     1       5.994   4.898  16.170  0.00  0.00    +0.000 NA
ATOM     22  C   UNL     1       5.986   6.293  16.667  0.00  0.00    +0.000 C 
ATOM     23  C   UNL     1       4.558   6.881  16.781  0.00  0.00    +0.000 C 
ATOM     24  N   UNL     1       3.723   5.997  17.597  0.00  0.00    +0.000 N 
ATOM     25  C   UNL     1       3.728   4.583  17.186  0.00  0.00    +0.000 C 
ATOM     26  C   UNL     1       5.177   4.063  17.079  0.00  0.00    +0.000 C 
ENDBRANCH  14  24
ENDBRANCH   1  17
BRANCH  10  27
ATOM     27  C   UNL     1      -0.556  11.596  18.587  0.00  0.00    +0.000 C 
ATOM     28  C   UNL     1      -1.167  10.293  18.121  0.00  0.00    +0.000 C 
ATOM     29  C   UNL     1      -1.669  11.583  17.561  0.00  0.00    +0.000 C 
ENDBRANCH  10  27
TORSDOF 3
ENDMDL
MODEL 6
REMARK VINA RESULT:      -7.3      1.572      2.354
REMARK  Name = 
REMARK  4 active torsions:
REMARK  status: ('A' for Active; 'I' for Inactive)
REMARK    1  A    between atoms: C_1  and  N_2
REMARK    2  A    between atoms: N_5  and  C_6
REMARK    3  A    between atoms: C_9  and  N_10
REMARK    4  A    between atoms: N_19  and  C_20
REMARK                            x       y       z     vdW  Elec       q    Type
REMARK                         _______ _______ _______ _____ _____    ______ ____
ROOT
ATOM      1  N   UNL     1       2.287   6.060  19.225  0.00  0.00    +0.000 N 
ATOM      2  C   UNL     1       3.168   5.296  18.456  0.00  0.00    +0.000 A 
ATOM      3  N   UNL     1       2.864   3.995  18.324  0.00  0.00    +0.000 NA
ATOM      4  C   UNL     1       3.630   3.280  17.474  0.00  0.00    +0.000 A 
ATOM      5  C   UNL     1       4.684   3.802  16.754  0.00  0.00    +0.000 A 
ATOM      6  C   UNL     1       5.469   3.036  15.804  0.00  0.00    +0.000 A 
ATOM      7  C   UNL     1       6.416   3.660  15.099  0.00  0.00    +0.000 A 
ATOM      8  C   UNL     1       6.715   5.105  15.284  0.00  0.00    +0.000 A 
ATOM      9  O   UNL     1       7.553   5.619  14.547  0.00  0.00    +0.000 OA
ATOM     10  N   UNL     1       6.034   5.759  16.303  0.00  0.00    +0.000 N 
ATOM     11  C   UNL     1       4.956   5.132  16.995  0.00  0.00    +0.000 A 
ATOM     12  N   UNL     1       4.216   5.863  17.843  0.00  0.00    +0.000 NA
ATOM     13  H   UNL     1       1.506   5.477  19.492  0.00  0.00    +0.000 HD
ENDROOT
BRANCH   1  17
ATOM     14  C   UNL     1       1.387  10.224  18.957  0.00  0.00    +0.000 A 
ATOM     15  C   UNL     1       1.228   9.505  20.148  0.00  0.00    +0.000 A 
ATOM     16  C   UNL     1       1.542   8.137  20.238  0.00  0.00    +0.000 A 
ATOM     17  C   UNL     1       2.017   7.436  19.128  0.00  0.00    +0.000 A 
ATOM     18  C   UNL     1       2.239   8.171  17.965  0.00  0.00    +0.000 A 
ATOM     19  C   UNL     1       1.913   9.522  17.875  0.00  0.00    +0.000 A 
BRANCH  14  24
ATOM     20  C   UNL     1       0.314  15.442  20.398  0.00  0.00    +0.000 C 
ATOM     21  N   UNL     1       0.524  14.331  19.477  0.00  0.00    +0.000 NA
ATOM     22  C   UNL     1      -0.472  13.260  19.707  0.00  0.00    +0.000 C 
ATOM     23  C   UNL     1      -0.288  12.055  18.753  0.00  0.00    +0.000 C 
ATOM     24  N   UNL     1       1.089  11.560  18.841  0.00  0.00    +0.000 N 
ATOM     25  C   UNL     1       2.131  12.587  18.672  0.00  0.00    +0.000 C 
ATOM     26  C   UNL     1       1.882  13.763  19.640  0.00  0.00    +0.000 C 
ENDBRANCH  14  24
ENDBRANCH   1  17
BRANCH  10  27
ATOM     27  C   UNL     1       6.363   7.139  16.615  0.00  0.00    +0.000 C 
ATOM     28  C   UNL     1       6.368   7.663  18.033  0.00  0.00    +0.000 C 
ATOM     29  C   UNL     1       7.662   7.491  17.308  0.00  0.00    +0.000 C 
ENDBRANCH  10  27
TORSDOF 3
ENDMDL
MODEL 7
REMARK VINA RESULT:      -7.3      3.111      8.259
REMARK  Name = 
REMARK  4 active torsions:
REMARK  status: ('A' for Active; 'I' for Inactive)
REMARK    1  A    between atoms: C_1  and  N_2
REMARK    2  A    between atoms: N_5  and  C_6
REMARK    3  A    between atoms: C_9  and  N_10
REMARK    4  A    between atoms: N_19  and  C_20
REMARK                            x       y       z     vdW  Elec       q    Type
REMARK                         _______ _______ _______ _____ _____    ______ ____
ROOT
ATOM      1  N   UNL     1       0.445   7.609  21.645  0.00  0.00    +0.000 N 
ATOM      2  C   UNL     1      -0.119   8.882  21.762  0.00  0.00    +0.000 A 
ATOM      3  N   UNL     1      -0.523   9.241  22.991  0.00  0.00    +0.000 NA
ATOM      4  C   UNL     1      -0.941  10.515  23.140  0.00  0.00    +0.000 A 
ATOM      5  C   UNL     1      -0.977  11.443  22.121  0.00  0.00    +0.000 A 
ATOM      6  C   UNL     1      -1.380  12.825  22.305  0.00  0.00    +0.000 A 
ATOM      7  C   UNL     1      -1.301  13.662  21.267  0.00  0.00    +0.000 A 
ATOM      8  C   UNL     1      -0.848  13.214  19.924  0.00  0.00    +0.000 A 
ATOM      9  O   UNL     1      -0.736  14.061  19.041  0.00  0.00    +0.000 OA
ATOM     10  N   UNL     1      -0.608  11.854  19.765  0.00  0.00    +0.000 N 
ATOM     11  C   UNL     1      -0.595  10.970  20.884  0.00  0.00    +0.000 A 
ATOM     12  N   UNL     1      -0.185   9.705  20.706  0.00  0.00    +0.000 NA
ATOM     13  H   UNL     1       0.514   7.203  22.567  0.00  0.00    +0.000 HD
ENDROOT
BRANCH   1  17
ATOM     14  C   UNL     1       3.371   6.223  18.863  0.00  0.00    +0.000 A 
ATOM     15  C   UNL     1       2.846   5.395  19.864  0.00  0.00    +0.000 A 
ATOM     16  C   UNL     1       1.869   5.849  20.767  0.00  0.00    +0.000 A 
ATOM     17  C   UNL     1       1.391   7.160  20.708  0.00  0.00    +0.000 A 
ATOM     18  C   UNL     1       1.865   7.958  19.669  0.00  0.00    +0.000 A 
ATOM     19  C   UNL     1       2.844   7.510  18.783  0.00  0.00    +0.000 A 
BRANCH  14  24
ATOM     20  C   UNL     1       5.632   4.382  14.178  0.00  0.00    +0.000 C 
ATOM     21  N   UNL     1       5.625   4.854  15.557  0.00  0.00    +0.000 NA
ATOM     22  C   UNL     1       4.823   3.954  16.417  0.00  0.00    +0.000 C 
ATOM     23  C   UNL     1       4.782   4.415  17.895  0.00  0.00    +0.000 C 
ATOM     24  N   UNL     1       4.325   5.805  17.967  0.00  0.00    +0.000 N 
ATOM     25  C   UNL     1       5.051   6.745  17.094  0.00  0.00    +0.000 C 
ATOM     26  C   UNL     1       5.065   6.221  15.643  0.00  0.00    +0.000 C 
ENDBRANCH  14  24
ENDBRANCH   1  17
BRANCH  10  27
ATOM     27  C   UNL     1      -0.277  11.333  18.451  0.00  0.00    +0.000 C 
ATOM     28  C   UNL     1      -0.726   9.963  17.993  0.00  0.00    +0.000 C 
ATOM     29  C   UNL     1      -1.341  11.180  17.385  0.00  0.00    +0.000 C 
ENDBRANCH  10  27
TORSDOF 3
ENDMDL
MODEL 8
REMARK VINA RESULT:      -7.2      3.201      8.774
REMARK  Name = 
REMARK  4 active torsions:
REMARK  status: ('A' for Active; 'I' for Inactive)
REMARK    1  A    between atoms: C_1  and  N_2
REMARK    2  A    between atoms: N_5  and  C_6
REMARK    3  A    between atoms: C_9  and  N_10
REMARK    4  A    between atoms: N_19  and  C_20
REMARK                            x       y       z     vdW  Elec       q    Type
REMARK                         _______ _______ _______ _____ _____    ______ ____
ROOT
ATOM      1  N   UNL     1      -0.298  10.076  19.961  0.00  0.00    +0.000 N 
ATOM      2  C   UNL     1      -0.190  11.368  20.483  0.00  0.00    +0.000 A 
ATOM      3  N   UNL     1      -1.144  11.738  21.351  0.00  0.00    +0.000 NA
ATOM      4  C   UNL     1      -0.974  12.929  21.963  0.00  0.00    +0.000 A 
ATOM      5  C   UNL     1       0.101  13.765  21.746  0.00  0.00    +0.000 A 
ATOM      6  C   UNL     1       0.300  15.019  22.447  0.00  0.00    +0.000 A 
ATOM      7  C   UNL     1       1.418  15.714  22.220  0.00  0.00    +0.000 A 
ATOM      8  C   UNL     1       2.445  15.260  21.246  0.00  0.00    +0.000 A 
ATOM      9  O   UNL     1       3.478  15.920  21.148  0.00  0.00    +0.000 OA
ATOM     10  N   UNL     1       2.143  14.129  20.499  0.00  0.00    +0.000 N 
ATOM     11  C   UNL     1       1.002  13.327  20.799  0.00  0.00    +0.000 A 
ATOM     12  N   UNL     1       0.850  12.152  20.169  0.00  0.00    +0.000 NA
ATOM     13  H   UNL     1      -1.073   9.612  20.413  0.00  0.00    +0.000 HD
ENDROOT
BRANCH   1  17
ATOM     14  C   UNL     1       2.773   7.505  18.486  0.00  0.00    +0.000 A 
ATOM     15  C   UNL     1       2.226   8.532  17.707  0.00  0.00    +0.000 A 
ATOM     16  C   UNL     1       1.227   9.389  18.201  0.00  0.00    +0.000 A 
ATOM     17  C   UNL     1       0.729   9.237  19.497  0.00  0.00    +0.000 A 
ATOM     18  C   UNL     1       1.325   8.259  20.291  0.00  0.00    +0.000 A 
ATOM     19  C   UNL     1       2.305   7.402  19.794  0.00  0.00    +0.000 A 
BRANCH  14  24
ATOM     20  C   UNL     1       5.509   4.066  15.148  0.00  0.00    +0.000 C 
ATOM     21  N   UNL     1       5.281   4.846  16.358  0.00  0.00    +0.000 NA
ATOM     22  C   UNL     1       4.037   4.417  17.036  0.00  0.00    +0.000 C 
ATOM     23  C   UNL     1       3.749   5.220  18.328  0.00  0.00    +0.000 C 
ATOM     24  N   UNL     1       3.751   6.654  18.029  0.00  0.00    +0.000 N 
ATOM     25  C   UNL     1       4.941   7.138  17.308  0.00  0.00    +0.000 C 
ATOM     26  C   UNL     1       5.178   6.289  16.041  0.00  0.00    +0.000 C 
ENDBRANCH  14  24
ENDBRANCH   1  17
BRANCH  10  27
ATOM     27  C   UNL     1       3.049  13.700  19.449  0.00  0.00    +0.000 C 
ATOM     28  C   UNL     1       2.550  13.118  18.144  0.00  0.00    +0.000 C 
ATOM     29  C   UNL     1       3.165  14.478  18.156  0.00  0.00    +0.000 C 
ENDBRANCH  10  27
TORSDOF 3
ENDMDL
MODEL 9
REMARK VINA RESULT:      -7.2      5.863     10.274
REMARK  Name = 
REMARK  4 active torsions:
REMARK  status: ('A' for Active; 'I' for Inactive)
REMARK    1  A    between atoms: C_1  and  N_2
REMARK    2  A    between atoms: N_5  and  C_6
REMARK    3  A    between atoms: C_9  and  N_10
REMARK    4  A    between atoms: N_19  and  C_20
REMARK                            x       y       z     vdW  Elec       q    Type
REMARK                         _______ _______ _______ _____ _____    ______ ____
ROOT
ATOM      1  N   UNL     1      -3.849  12.296  18.206  0.00  0.00    +0.000 N 
ATOM      2  C   UNL     1      -4.835  12.559  19.160  0.00  0.00    +0.000 A 
ATOM      3  N   UNL     1      -6.086  12.706  18.695  0.00  0.00    +0.000 NA
ATOM      4  C   UNL     1      -7.063  12.823  19.618  0.00  0.00    +0.000 A 
ATOM      5  C   UNL     1      -6.849  12.803  20.980  0.00  0.00    +0.000 A 
ATOM      6  C   UNL     1      -7.913  12.879  21.963  0.00  0.00    +0.000 A 
ATOM      7  C   UNL     1      -7.603  12.768  23.258  0.00  0.00    +0.000 A 
ATOM      8  C   UNL     1      -6.200  12.607  23.722  0.00  0.00    +0.000 A 
ATOM      9  O   UNL     1      -6.006  12.442  24.925  0.00  0.00    +0.000 OA
ATOM     10  N   UNL     1      -5.207  12.682  22.753  0.00  0.00    +0.000 N 
ATOM     11  C   UNL     1      -5.529  12.702  21.364  0.00  0.00    +0.000 A 
ATOM     12  N   UNL     1      -4.538  12.595  20.467  0.00  0.00    +0.000 NA
ATOM     13  H   UNL     1      -4.294  12.188  17.306  0.00  0.00    +0.000 HD
ENDROOT
BRANCH   1  17
ATOM     14  C   UNL     1      -0.217  10.117  18.735  0.00  0.00    +0.000 A 
ATOM     15  C   UNL     1      -1.177   9.742  17.786  0.00  0.00    +0.000 A 
ATOM     16  C   UNL     1      -2.364  10.472  17.602  0.00  0.00    +0.000 A 
ATOM     17  C   UNL     1      -2.639  11.602  18.376  0.00  0.00    +0.000 A 
ATOM     18  C   UNL     1      -1.650  12.010  19.269  0.00  0.00    +0.000 A 
ATOM     19  C   UNL     1      -0.481  11.277  19.459  0.00  0.00    +0.000 A 
BRANCH  14  24
ATOM     20  C   UNL     1       3.303   5.882  19.097  0.00  0.00    +0.000 C 
ATOM     21  N   UNL     1       2.893   7.280  19.144  0.00  0.00    +0.000 NA
ATOM     22  C   UNL     1       1.848   7.488  20.172  0.00  0.00    +0.000 C 
ATOM     23  C   UNL     1       1.376   8.961  20.259  0.00  0.00    +0.000 C 
ATOM     24  N   UNL     1       0.953   9.423  18.935  0.00  0.00    +0.000 N 
ATOM     25  C   UNL     1       1.929   9.198  17.855  0.00  0.00    +0.000 C 
ATOM     26  C   UNL     1       2.366   7.718  17.832  0.00  0.00    +0.000 C 
ENDBRANCH  14  24
ENDBRANCH   1  17
BRANCH  10  27
ATOM     27  C   UNL     1      -3.812  12.651  23.152  0.00  0.00    +0.000 C 
ATOM     28  C   UNL     1      -2.800  13.642  22.620  0.00  0.00    +0.000 C 
ATOM     29  C   UNL     1      -3.234  13.728  24.046  0.00  0.00    +0.000 C 
ENDBRANCH  10  27
TORSDOF 3
ENDMDL
