MODEL 1
REMARK VINA RESULT:      -8.1      0.000      0.000
REMARK  Name = 
REMARK  5 active torsions:
REMARK  status: ('A' for Active; 'I' for Inactive)
REMARK    1  A    between atoms: C_1  and  C_2
REMARK    2  A    between atoms: C_5  and  N_6
REMARK    3  A    between atoms: C_7  and  C_9
REMARK    4  A    between atoms: C_19  and  C_20
REMARK    5  A    between atoms: N_22  and  C_23
REMARK                            x       y       z     vdW  Elec       q    Type
REMARK                         _______ _______ _______ _____ _____    ______ ____
ROOT
ATOM      1  C   UNL     1      -1.839  11.658  23.526  0.00  0.00    +0.000 C 
ATOM      2  C   UNL     1      -0.959  10.907  22.573  0.00  0.00    +0.000 A 
ATOM      3  C   UNL     1      -0.038   9.989  23.056  0.00  0.00    +0.000 A 
ATOM      4  C   UNL     1       0.783   9.287  22.174  0.00  0.00    +0.000 A 
ATOM      5  C   UNL     1       0.675   9.416  20.777  0.00  0.00    +0.000 A 
ATOM      6  C   UNL     1      -0.273  10.330  20.290  0.00  0.00    +0.000 A 
ATOM      7  C   UNL     1      -1.053  11.095  21.188  0.00  0.00    +0.000 A 
ENDROOT
BRANCH   5   8
ATOM      8  N   UNL     1       1.514   8.649  19.905  0.00  0.00    +0.000 N 
ATOM      9  C   UNL     1       1.804   7.302  20.117  0.00  0.00    +0.000 C 
ATOM     10  O   UNL     1       1.256   6.665  21.022  0.00  0.00    +0.000 OA
ATOM     11  H   UNL     1       1.848   9.085  19.049  0.00  0.00    +0.000 HD
BRANCH   9  12
ATOM     12  C   UNL     1       2.702   6.621  19.200  0.00  0.00    +0.000 A 
ATOM     13  S   UNL     1       3.178   7.564  17.841  0.00  0.00    +0.000 S 
ATOM     14  C   UNL     1       4.273   6.392  17.283  0.00  0.00    +0.000 A 
ATOM     15  C   UNL     1       5.122   6.538  16.171  0.00  0.00    +0.000 A 
ATOM     16  C   UNL     1       5.977   5.494  15.841  0.00  0.00    +0.000 A 
ATOM     17  C   UNL     1       5.977   4.329  16.589  0.00  0.00    +0.000 A 
ATOM     18  C   UNL     1       5.119   4.185  17.692  0.00  0.00    +0.000 A 
ATOM     19  C   UNL     1       4.243   5.240  18.066  0.00  0.00    +0.000 A 
ATOM     20  C   UNL     1       3.299   5.377  19.162  0.00  0.00    +0.000 A 
ATOM     21 CL   UNL     1       3.045   4.114  20.301  0.00  0.00    +0.000 Cl
ENDBRANCH   9  12
ENDBRANCH   5   8
BRANCH   6  22
ATOM     22  C   UNL     1      -0.608  10.478  18.845  0.00  0.00    +0.000 C 
ATOM     23  O   UNL     1       0.222  11.000  18.107  0.00  0.00    +0.000 OA
ATOM     24  N   UNL     1      -1.896  10.098  18.493  0.00  0.00    +0.000 N 
ATOM     25  H   UNL     1      -2.540   9.925  19.258  0.00  0.00    +0.000 HD
BRANCH  24  26
ATOM     26  C   UNL     1      -2.470  10.239  17.209  0.00  0.00    +0.000 A 
ATOM     27  C   UNL     1      -3.562  11.072  16.954  0.00  0.00    +0.000 A 
ATOM     28  C   UNL     1      -4.173  11.085  15.697  0.00  0.00    +0.000 A 
ATOM     29  C   UNL     1      -3.679  10.276  14.680  0.00  0.00    +0.000 A 
ATOM     30 CL   UNL     1      -4.478  10.234  13.158  0.00  0.00    +0.000 Cl
ATOM     31  C   UNL     1      -2.548   9.493  14.897  0.00  0.00    +0.000 A 
ATOM     32  C   UNL     1      -1.935   9.485  16.157  0.00  0.00    +0.000 A 
ENDBRANCH  24  26
ENDBRANCH   6  22
TORSDOF 4
ENDMDL
MODEL 2
REMARK VINA RESULT:      -7.8      1.744      2.569
REMARK  Name = 
REMARK  5 active torsions:
REMARK  status: ('A' for Active; 'I' for Inactive)
REMARK    1  A    between atoms: C_1  and  C_2
REMARK    2  A    between atoms: C_5  and  N_6
REMARK    3  A    between atoms: C_7  and  C_9
REMARK    4  A    between atoms: C_19  and  C_20
REMARK    5  A    between atoms: N_22  and  C_23
REMARK                            x       y       z     vdW  Elec       q    Type
REMARK                         _______ _______ _______ _____ _____    ______ ____
ROOT
ATOM      1  C   UNL     1      -3.214  13.829  23.142  0.00  0.00    +0.000 C 
ATOM      2  C   UNL     1      -2.255  12.929  22.423  0.00  0.00    +0.000 A 
ATOM      3  C   UNL     1      -1.371  12.140  23.145  0.00  0.00    +0.000 A 
ATOM      4  C   UNL     1      -0.476  11.300  22.482  0.00  0.00    +0.000 A 
ATOM      5  C   UNL     1      -0.470  11.158  21.082  0.00  0.00    +0.000 A 
ATOM      6  C   UNL     1      -1.381  11.942  20.354  0.00  0.00    +0.000 A 
ATOM      7  C   UNL     1      -2.236  12.847  21.025  0.00  0.00    +0.000 A 
ENDROOT
BRANCH   5   8
ATOM      8  N   UNL     1       0.441  10.257  20.442  0.00  0.00    +0.000 N 
ATOM      9  C   UNL     1       0.470   8.888  20.706  0.00  0.00    +0.000 C 
ATOM     10  O   UNL     1      -0.375   8.359  21.434  0.00  0.00    +0.000 OA
ATOM     11  H   UNL     1       1.040  10.619  19.704  0.00  0.00    +0.000 HD
BRANCH   9  12
ATOM     12  C   UNL     1       1.463   8.062  20.038  0.00  0.00    +0.000 A 
ATOM     13  S   UNL     1       1.848   6.605  20.869  0.00  0.00    +0.000 S 
ATOM     14  C   UNL     1       2.840   6.034  19.614  0.00  0.00    +0.000 A 
ATOM     15  C   UNL     1       3.476   4.778  19.590  0.00  0.00    +0.000 A 
ATOM     16  C   UNL     1       4.249   4.442  18.486  0.00  0.00    +0.000 A 
ATOM     17  C   UNL     1       4.398   5.337  17.440  0.00  0.00    +0.000 A 
ATOM     18  C   UNL     1       3.770   6.593  17.476  0.00  0.00    +0.000 A 
ATOM     19  C   UNL     1       2.959   6.962  18.583  0.00  0.00    +0.000 A 
ATOM     20  C   UNL     1       2.175   8.154  18.859  0.00  0.00    +0.000 A 
ATOM     21 CL   UNL     1       2.123   9.477  17.763  0.00  0.00    +0.000 Cl
ENDBRANCH   9  12
ENDBRANCH   5   8
BRANCH   6  22
ATOM     22  C   UNL     1      -1.597  11.805  18.886  0.00  0.00    +0.000 C 
ATOM     23  O   UNL     1      -1.126  12.663  18.147  0.00  0.00    +0.000 OA
ATOM     24  N   UNL     1      -2.418  10.752  18.503  0.00  0.00    +0.000 N 
ATOM     25  H   UNL     1      -2.931  10.288  19.245  0.00  0.00    +0.000 HD
BRANCH  24  26
ATOM     26  C   UNL     1      -2.844  10.484  17.183  0.00  0.00    +0.000 A 
ATOM     27  C   UNL     1      -2.151   9.629  16.322  0.00  0.00    +0.000 A 
ATOM     28  C   UNL     1      -2.540   9.490  14.987  0.00  0.00    +0.000 A 
ATOM     29  C   UNL     1      -3.641  10.194  14.511  0.00  0.00    +0.000 A 
ATOM     30 CL   UNL     1      -4.072  10.085  12.849  0.00  0.00    +0.000 Cl
ATOM     31  C   UNL     1      -4.385  10.995  15.374  0.00  0.00    +0.000 A 
ATOM     32  C   UNL     1      -3.995  11.130  16.713  0.00  0.00    +0.000 A 
ENDBRANCH  24  26
ENDBRANCH   6  22
TORSDOF 4
ENDMDL
MODEL 3
REMARK VINA RESULT:      -7.8      1.780      2.262
REMARK  Name = 
REMARK  5 active torsions:
REMARK  status: ('A' for Active; 'I' for Inactive)
REMARK    1  A    between atoms: C_1  and  C_2
REMARK    2  A    between atoms: C_5  and  N_6
REMARK    3  A    between atoms: C_7  and  C_9
REMARK    4  A    between atoms: C_19  and  C_20
REMARK    5  A    between atoms: N_22  and  C_23
REMARK                            x       y       z     vdW  Elec       q    Type
REMARK                         _______ _______ _______ _____ _____    ______ ____
ROOT
ATOM      1  C   UNL     1      -2.039  13.109  23.278  0.00  0.00    +0.000 C 
ATOM      2  C   UNL     1      -1.454  11.902  22.609  0.00  0.00    +0.000 A 
ATOM      3  C   UNL     1      -1.002  10.836  23.374  0.00  0.00    +0.000 A 
ATOM      4  C   UNL     1      -0.458   9.710  22.758  0.00  0.00    +0.000 A 
ATOM      5  C   UNL     1      -0.403   9.567  21.359  0.00  0.00    +0.000 A 
ATOM      6  C   UNL     1      -0.881  10.638  20.586  0.00  0.00    +0.000 A 
ATOM      7  C   UNL     1      -1.365  11.809  21.215  0.00  0.00    +0.000 A 
ENDROOT
BRANCH   5   8
ATOM      8  N   UNL     1       0.131   8.378  20.765  0.00  0.00    +0.000 N 
ATOM      9  C   UNL     1       1.498   8.133  20.647  0.00  0.00    +0.000 C 
ATOM     10  O   UNL     1       2.330   8.892  21.153  0.00  0.00    +0.000 OA
ATOM     11  H   UNL     1      -0.517   7.643  20.491  0.00  0.00    +0.000 HD
BRANCH   9  12
ATOM     12  C   UNL     1       1.942   6.915  19.988  0.00  0.00    +0.000 A 
ATOM     13  S   UNL     1       1.560   5.468  20.839  0.00  0.00    +0.000 S 
ATOM     14  C   UNL     1       2.124   4.466  19.590  0.00  0.00    +0.000 A 
ATOM     15  C   UNL     1       2.051   3.060  19.582  0.00  0.00    +0.000 A 
ATOM     16  C   UNL     1       2.544   2.372  18.481  0.00  0.00    +0.000 A 
ATOM     17  C   UNL     1       3.108   3.063  17.421  0.00  0.00    +0.000 A 
ATOM     18  C   UNL     1       3.188   4.465  17.441  0.00  0.00    +0.000 A 
ATOM     19  C   UNL     1       2.679   5.201  18.545  0.00  0.00    +0.000 A 
ATOM     20  C   UNL     1       2.594   6.627  18.806  0.00  0.00    +0.000 A 
ATOM     21 CL   UNL     1       3.196   7.789  17.691  0.00  0.00    +0.000 Cl
ENDBRANCH   9  12
ENDBRANCH   5   8
BRANCH   6  22
ATOM     22  C   UNL     1      -1.024  10.586  19.104  0.00  0.00    +0.000 C 
ATOM     23  O   UNL     1      -0.018  10.731  18.417  0.00  0.00    +0.000 OA
ATOM     24  N   UNL     1      -2.329  10.482  18.637  0.00  0.00    +0.000 N 
ATOM     25  H   UNL     1      -3.065  10.627  19.321  0.00  0.00    +0.000 HD
BRANCH  24  26
ATOM     26  C   UNL     1      -2.718  10.514  17.279  0.00  0.00    +0.000 A 
ATOM     27  C   UNL     1      -3.730  11.349  16.800  0.00  0.00    +0.000 A 
ATOM     28  C   UNL     1      -4.165  11.257  15.475  0.00  0.00    +0.000 A 
ATOM     29  C   UNL     1      -3.571  10.341  14.615  0.00  0.00    +0.000 A 
ATOM     30 CL   UNL     1      -4.159  10.173  13.007  0.00  0.00    +0.000 Cl
ATOM     31  C   UNL     1      -2.513   9.551  15.057  0.00  0.00    +0.000 A 
ATOM     32  C   UNL     1      -2.076   9.647  16.385  0.00  0.00    +0.000 A 
ENDBRANCH  24  26
ENDBRANCH   6  22
TORSDOF 4
ENDMDL
MODEL 4
REMARK VINA RESULT:      -7.7      1.275      1.615
REMARK  Name = 
REMARK  5 active torsions:
REMARK  status: ('A' for Active; 'I' for Inactive)
REMARK    1  A    between atoms: C_1  and  C_2
REMARK    2  A    between atoms: C_5  and  N_6
REMARK    3  A    between atoms: C_7  and  C_9
REMARK    4  A    between atoms: C_19  and  C_20
REMARK    5  A    between atoms: N_22  and  C_23
REMARK                            x       y       z     vdW  Elec       q    Type
REMARK                         _______ _______ _______ _____ _____    ______ ____
ROOT
ATOM      1  C   UNL     1      -2.089  12.032  23.471  0.00  0.00    +0.000 C 
ATOM      2  C   UNL     1      -1.190  11.202  22.607  0.00  0.00    +0.000 A 
ATOM      3  C   UNL     1      -0.294  10.316  23.188  0.00  0.00    +0.000 A 
ATOM      4  C   UNL     1       0.546   9.541  22.388  0.00  0.00    +0.000 A 
ATOM      5  C   UNL     1       0.481   9.562  20.983  0.00  0.00    +0.000 A 
ATOM      6  C   UNL     1      -0.441  10.444  20.397  0.00  0.00    +0.000 A 
ATOM      7  C   UNL     1      -1.240  11.282  21.209  0.00  0.00    +0.000 A 
ENDROOT
BRANCH   5   8
ATOM      8  N   UNL     1       1.337   8.722  20.199  0.00  0.00    +0.000 N 
ATOM      9  C   UNL     1       1.465   7.351  20.415  0.00  0.00    +0.000 C 
ATOM     10  O   UNL     1       0.753   6.764  21.236  0.00  0.00    +0.000 OA
ATOM     11  H   UNL     1       1.811   9.130  19.397  0.00  0.00    +0.000 HD
BRANCH   9  12
ATOM     12  C   UNL     1       2.394   6.591  19.595  0.00  0.00    +0.000 A 
ATOM     13  S   UNL     1       2.721   5.004  20.177  0.00  0.00    +0.000 S 
ATOM     14  C   UNL     1       3.647   4.588  18.815  0.00  0.00    +0.000 A 
ATOM     15  C   UNL     1       4.213   3.322  18.576  0.00  0.00    +0.000 A 
ATOM     16  C   UNL     1       4.938   3.124  17.408  0.00  0.00    +0.000 A 
ATOM     17  C   UNL     1       5.109   4.163  16.508  0.00  0.00    +0.000 A 
ATOM     18  C   UNL     1       4.551   5.428  16.759  0.00  0.00    +0.000 A 
ATOM     19  C   UNL     1       3.790   5.659  17.937  0.00  0.00    +0.000 A 
ATOM     20  C   UNL     1       3.080   6.830  18.421  0.00  0.00    +0.000 A 
ATOM     21 CL   UNL     1       3.071   8.310  17.545  0.00  0.00    +0.000 Cl
ENDBRANCH   9  12
ENDBRANCH   5   8
BRANCH   6  22
ATOM     22  C   UNL     1      -0.731  10.483  18.936  0.00  0.00    +0.000 C 
ATOM     23  O   UNL     1       0.181  10.776  18.170  0.00  0.00    +0.000 OA
ATOM     24  N   UNL     1      -2.061  10.281  18.589  0.00  0.00    +0.000 N 
ATOM     25  H   UNL     1      -2.733  10.302  19.349  0.00  0.00    +0.000 HD
BRANCH  24  26
ATOM     26  C   UNL     1      -2.589  10.370  17.282  0.00  0.00    +0.000 A 
ATOM     27  C   UNL     1      -3.718  11.131  16.970  0.00  0.00    +0.000 A 
ATOM     28  C   UNL     1      -4.277  11.090  15.689  0.00  0.00    +0.000 A 
ATOM     29  C   UNL     1      -3.693  10.300  14.706  0.00  0.00    +0.000 A 
ATOM     30 CL   UNL     1      -4.426  10.189  13.153  0.00  0.00    +0.000 Cl
ATOM     31  C   UNL     1      -2.527   9.590  14.980  0.00  0.00    +0.000 A 
ATOM     32  C   UNL     1      -1.967   9.636  16.263  0.00  0.00    +0.000 A 
ENDBRANCH  24  26
ENDBRANCH   6  22
TORSDOF 4
ENDMDL
MODEL 5
REMARK VINA RESULT:      -7.4      2.825      4.175
REMARK  Name = 
REMARK  5 active torsions:
REMARK  status: ('A' for Active; 'I' for Inactive)
REMARK    1  A    between atoms: C_1  and  C_2
REMARK    2  A    between atoms: C_5  and  N_6
REMARK    3  A    between atoms: C_7  and  C_9
REMARK    4  A    between atoms: C_19  and  C_20
REMARK    5  A    between atoms: N_22  and  C_23
REMARK                            x       y       z     vdW  Elec       q    Type
REMARK                         _______ _______ _______ _____ _____    ______ ____
ROOT
ATOM      1  C   UNL     1      -3.613  16.045  23.556  0.00  0.00    +0.000 C 
ATOM      2  C   UNL     1      -2.900  14.844  23.011  0.00  0.00    +0.000 A 
ATOM      3  C   UNL     1      -1.825  14.304  23.702  0.00  0.00    +0.000 A 
ATOM      4  C   UNL     1      -1.158  13.187  23.201  0.00  0.00    +0.000 A 
ATOM      5  C   UNL     1      -1.573  12.521  22.032  0.00  0.00    +0.000 A 
ATOM      6  C   UNL     1      -2.675  13.057  21.346  0.00  0.00    +0.000 A 
ATOM      7  C   UNL     1      -3.304  14.233  21.817  0.00  0.00    +0.000 A 
ENDROOT
BRANCH   5   8
ATOM      8  N   UNL     1      -0.882  11.354  21.571  0.00  0.00    +0.000 N 
ATOM      9  C   UNL     1       0.310  11.409  20.850  0.00  0.00    +0.000 C 
ATOM     10  O   UNL     1       0.895  12.480  20.663  0.00  0.00    +0.000 OA
ATOM     11  H   UNL     1      -1.234  10.442  21.852  0.00  0.00    +0.000 HD
BRANCH   9  12
ATOM     12  C   UNL     1       0.912  10.170  20.387  0.00  0.00    +0.000 A 
ATOM     13  S   UNL     1       0.868   8.887  21.534  0.00  0.00    +0.000 S 
ATOM     14  C   UNL     1       1.502   7.753  20.440  0.00  0.00    +0.000 A 
ATOM     15  C   UNL     1       1.684   6.383  20.707  0.00  0.00    +0.000 A 
ATOM     16  C   UNL     1       2.203   5.572  19.706  0.00  0.00    +0.000 A 
ATOM     17  C   UNL     1       2.546   6.111  18.478  0.00  0.00    +0.000 A 
ATOM     18  C   UNL     1       2.372   7.481  18.223  0.00  0.00    +0.000 A 
ATOM     19  C   UNL     1       1.829   8.336  19.218  0.00  0.00    +0.000 A 
ATOM     20  C   UNL     1       1.509   9.754  19.214  0.00  0.00    +0.000 A 
ATOM     21 CL   UNL     1       1.799  10.742  17.837  0.00  0.00    +0.000 Cl
ENDBRANCH   9  12
ENDBRANCH   5   8
BRANCH   6  22
ATOM     22  C   UNL     1      -3.323  12.393  20.180  0.00  0.00    +0.000 C 
ATOM     23  O   UNL     1      -4.472  11.985  20.308  0.00  0.00    +0.000 OA
ATOM     24  N   UNL     1      -2.503  12.205  19.074  0.00  0.00    +0.000 N 
ATOM     25  H   UNL     1      -1.512  12.369  19.215  0.00  0.00    +0.000 HD
BRANCH  24  26
ATOM     26  C   UNL     1      -2.865  11.516  17.895  0.00  0.00    +0.000 A 
ATOM     27  C   UNL     1      -2.027  10.586  17.273  0.00  0.00    +0.000 A 
ATOM     28  C   UNL     1      -2.375  10.021  16.043  0.00  0.00    +0.000 A 
ATOM     29  C   UNL     1      -3.576  10.371  15.437  0.00  0.00    +0.000 A 
ATOM     30 CL   UNL     1      -3.967   9.736  13.886  0.00  0.00    +0.000 Cl
ATOM     31  C   UNL     1      -4.455  11.241  16.077  0.00  0.00    +0.000 A 
ATOM     32  C   UNL     1      -4.106  11.803  17.312  0.00  0.00    +0.000 A 
ENDBRANCH  24  26
ENDBRANCH   6  22
TORSDOF 4
ENDMDL
MODEL 6
REMARK VINA RESULT:      -7.3      3.982      6.241
REMARK  Name = 
REMARK  5 active torsions:
REMARK  status: ('A' for Active; 'I' for Inactive)
REMARK    1  A    between atoms: C_1  and  C_2
REMARK    2  A    between atoms: C_5  and  N_6
REMARK    3  A    between atoms: C_7  and  C_9
REMARK    4  A    between atoms: C_19  and  C_20
REMARK    5  A    between atoms: N_22  and  C_23
REMARK                            x       y       z     vdW  Elec       q    Type
REMARK                         _______ _______ _______ _____ _____    ______ ____
ROOT
ATOM      1  C   UNL     1       1.081   2.590  22.805  0.00  0.00    +0.000 C 
ATOM      2  C   UNL     1       1.859   2.866  21.554  0.00  0.00    +0.000 A 
ATOM      3  C   UNL     1       2.668   1.879  21.009  0.00  0.00    +0.000 A 
ATOM      4  C   UNL     1       3.394   2.130  19.845  0.00  0.00    +0.000 A 
ATOM      5  C   UNL     1       3.293   3.343  19.138  0.00  0.00    +0.000 A 
ATOM      6  C   UNL     1       2.457   4.332  19.680  0.00  0.00    +0.000 A 
ATOM      7  C   UNL     1       1.779   4.102  20.900  0.00  0.00    +0.000 A 
ENDROOT
BRANCH   5   8
ATOM      8  N   UNL     1       4.028   3.546  17.926  0.00  0.00    +0.000 N 
ATOM      9  C   UNL     1       5.301   4.114  17.892  0.00  0.00    +0.000 C 
ATOM     10  O   UNL     1       5.913   4.373  18.932  0.00  0.00    +0.000 OA
ATOM     11  H   UNL     1       3.637   3.187  17.058  0.00  0.00    +0.000 HD
BRANCH   9  12
ATOM     12  C   UNL     1       5.947   4.320  16.607  0.00  0.00    +0.000 A 
ATOM     13  S   UNL     1       5.471   3.204  15.385  0.00  0.00    +0.000 S 
ATOM     14  C   UNL     1       6.352   4.001  14.172  0.00  0.00    +0.000 A 
ATOM     15  C   UNL     1       6.364   3.646  12.811  0.00  0.00    +0.000 A 
ATOM     16  C   UNL     1       7.125   4.402  11.929  0.00  0.00    +0.000 A 
ATOM     17  C   UNL     1       7.868   5.475  12.391  0.00  0.00    +0.000 A 
ATOM     18  C   UNL     1       7.861   5.818  13.754  0.00  0.00    +0.000 A 
ATOM     19  C   UNL     1       7.080   5.075  14.680  0.00  0.00    +0.000 A 
ATOM     20  C   UNL     1       6.859   5.229  16.107  0.00  0.00    +0.000 A 
ATOM     21 CL   UNL     1       7.623   6.474  17.013  0.00  0.00    +0.000 Cl
ENDBRANCH   9  12
ENDBRANCH   5   8
BRANCH   6  22
ATOM     22  C   UNL     1       2.132   5.610  18.985  0.00  0.00    +0.000 C 
ATOM     23  O   UNL     1       2.094   5.610  17.759  0.00  0.00    +0.000 OA
ATOM     24  N   UNL     1       2.005   6.719  19.810  0.00  0.00    +0.000 N 
ATOM     25  H   UNL     1       2.313   6.604  20.771  0.00  0.00    +0.000 HD
BRANCH  24  26
ATOM     26  C   UNL     1       1.798   8.046  19.373  0.00  0.00    +0.000 A 
ATOM     27  C   UNL     1       2.334   8.545  18.183  0.00  0.00    +0.000 A 
ATOM     28  C   UNL     1       2.206   9.897  17.853  0.00  0.00    +0.000 A 
ATOM     29  C   UNL     1       1.521  10.755  18.705  0.00  0.00    +0.000 A 
ATOM     30 CL   UNL     1       1.432  12.433  18.337  0.00  0.00    +0.000 Cl
ATOM     31  C   UNL     1       0.920  10.260  19.860  0.00  0.00    +0.000 A 
ATOM     32  C   UNL     1       1.046   8.904  20.187  0.00  0.00    +0.000 A 
ENDBRANCH  24  26
ENDBRANCH   6  22
TORSDOF 4
ENDMDL
MODEL 7
REMARK VINA RESULT:      -7.3      0.480      1.000
REMARK  Name = 
REMARK  5 active torsions:
REMARK  status: ('A' for Active; 'I' for Inactive)
REMARK    1  A    between atoms: C_1  and  C_2
REMARK    2  A    between atoms: C_5  and  N_6
REMARK    3  A    between atoms: C_7  and  C_9
REMARK    4  A    between atoms: C_19  and  C_20
REMARK    5  A    between atoms: N_22  and  C_23
REMARK                            x       y       z     vdW  Elec       q    Type
REMARK                         _______ _______ _______ _____ _____    ______ ____
ROOT
ATOM      1  C   UNL     1      -1.477  11.367  23.319  0.00  0.00    +0.000 C 
ATOM      2  C   UNL     1      -0.610  10.626  22.347  0.00  0.00    +0.000 A 
ATOM      3  C   UNL     1       0.410   9.808  22.811  0.00  0.00    +0.000 A 
ATOM      4  C   UNL     1       1.219   9.115  21.911  0.00  0.00    +0.000 A 
ATOM      5  C   UNL     1       1.005   9.151  20.521  0.00  0.00    +0.000 A 
ATOM      6  C   UNL     1      -0.043   9.961  20.055  0.00  0.00    +0.000 A 
ATOM      7  C   UNL     1      -0.815  10.721  20.964  0.00  0.00    +0.000 A 
ENDROOT
BRANCH   5   8
ATOM      8  N   UNL     1       1.837   8.394  19.633  0.00  0.00    +0.000 N 
ATOM      9  C   UNL     1       2.144   7.050  19.837  0.00  0.00    +0.000 C 
ATOM     10  O   UNL     1       1.618   6.405  20.748  0.00  0.00    +0.000 OA
ATOM     11  H   UNL     1       2.151   8.836  18.772  0.00  0.00    +0.000 HD
BRANCH   9  12
ATOM     12  C   UNL     1       3.034   6.381  18.903  0.00  0.00    +0.000 A 
ATOM     13  S   UNL     1       3.440   7.315  17.515  0.00  0.00    +0.000 S 
ATOM     14  C   UNL     1       4.552   6.166  16.942  0.00  0.00    +0.000 A 
ATOM     15  C   UNL     1       5.362   6.319  15.801  0.00  0.00    +0.000 A 
ATOM     16  C   UNL     1       6.237   5.296  15.462  0.00  0.00    +0.000 A 
ATOM     17  C   UNL     1       6.296   4.144  16.228  0.00  0.00    +0.000 A 
ATOM     18  C   UNL     1       5.477   3.993  17.359  0.00  0.00    +0.000 A 
ATOM     19  C   UNL     1       4.581   5.027  17.744  0.00  0.00    +0.000 A 
ATOM     20  C   UNL     1       3.667   5.154  18.866  0.00  0.00    +0.000 A 
ATOM     21 CL   UNL     1       3.487   3.904  20.032  0.00  0.00    +0.000 Cl
ENDBRANCH   9  12
ENDBRANCH   5   8
BRANCH   6  22
ATOM     22  C   UNL     1      -0.488   9.997  18.633  0.00  0.00    +0.000 C 
ATOM     23  O   UNL     1       0.333  10.300  17.774  0.00  0.00    +0.000 OA
ATOM     24  N   UNL     1      -1.845   9.780  18.431  0.00  0.00    +0.000 N 
ATOM     25  H   UNL     1      -2.432   9.794  19.259  0.00  0.00    +0.000 HD
BRANCH  24  26
ATOM     26  C   UNL     1      -2.512   9.862  17.188  0.00  0.00    +0.000 A 
ATOM     27  C   UNL     1      -2.079   9.179  16.049  0.00  0.00    +0.000 A 
ATOM     28  C   UNL     1      -2.697   9.388  14.813  0.00  0.00    +0.000 A 
ATOM     29  C   UNL     1      -3.768  10.269  14.715  0.00  0.00    +0.000 A 
ATOM     30 CL   UNL     1      -4.477  10.585  13.180  0.00  0.00    +0.000 Cl
ATOM     31  C   UNL     1      -4.257  10.904  15.854  0.00  0.00    +0.000 A 
ATOM     32  C   UNL     1      -3.638  10.690  17.093  0.00  0.00    +0.000 A 
ENDBRANCH  24  26
ENDBRANCH   6  22
TORSDOF 4
ENDMDL
MODEL 8
REMARK VINA RESULT:      -7.3      7.213      8.640
REMARK  Name = 
REMARK  5 active torsions:
REMARK  status: ('A' for Active; 'I' for Inactive)
REMARK    1  A    between atoms: C_1  and  C_2
REMARK    2  A    between atoms: C_5  and  N_6
REMARK    3  A    between atoms: C_7  and  C_9
REMARK    4  A    between atoms: C_19  and  C_20
REMARK    5  A    between atoms: N_22  and  C_23
REMARK                            x       y       z     vdW  Elec       q    Type
REMARK                         _______ _______ _______ _____ _____    ______ ____
ROOT
ATOM      1  C   UNL     1      -1.556  18.478  17.799  0.00  0.00    +0.000 C 
ATOM      2  C   UNL     1      -0.218  17.803  17.817  0.00  0.00    +0.000 A 
ATOM      3  C   UNL     1       0.877  18.416  17.225  0.00  0.00    +0.000 A 
ATOM      4  C   UNL     1       2.124  17.793  17.239  0.00  0.00    +0.000 A 
ATOM      5  C   UNL     1       2.350  16.571  17.899  0.00  0.00    +0.000 A 
ATOM      6  C   UNL     1       1.246  15.963  18.517  0.00  0.00    +0.000 A 
ATOM      7  C   UNL     1      -0.033  16.561  18.438  0.00  0.00    +0.000 A 
ENDROOT
BRANCH   5   8
ATOM      8  N   UNL     1       3.656  15.983  17.921  0.00  0.00    +0.000 N 
ATOM      9  C   UNL     1       4.734  16.543  18.605  0.00  0.00    +0.000 C 
ATOM     10  O   UNL     1       4.587  17.533  19.329  0.00  0.00    +0.000 OA
ATOM     11  H   UNL     1       3.783  15.073  17.484  0.00  0.00    +0.000 HD
BRANCH   9  12
ATOM     12  C   UNL     1       6.032  15.893  18.530  0.00  0.00    +0.000 A 
ATOM     13  S   UNL     1       5.976  14.252  18.013  0.00  0.00    +0.000 S 
ATOM     14  C   UNL     1       7.667  14.108  17.954  0.00  0.00    +0.000 A 
ATOM     15  C   UNL     1       8.370  12.970  17.516  0.00  0.00    +0.000 A 
ATOM     16  C   UNL     1       9.758  13.003  17.511  0.00  0.00    +0.000 A 
ATOM     17  C   UNL     1      10.431  14.132  17.947  0.00  0.00    +0.000 A 
ATOM     18  C   UNL     1       9.723  15.260  18.394  0.00  0.00    +0.000 A 
ATOM     19  C   UNL     1       8.303  15.266  18.396  0.00  0.00    +0.000 A 
ATOM     20  C   UNL     1       7.335  16.287  18.759  0.00  0.00    +0.000 A 
ATOM     21 CL   UNL     1       7.823  17.831  19.338  0.00  0.00    +0.000 Cl
ENDBRANCH   9  12
ENDBRANCH   5   8
BRANCH   6  22
ATOM     22  C   UNL     1       1.346  14.747  19.373  0.00  0.00    +0.000 C 
ATOM     23  O   UNL     1       2.325  14.629  20.103  0.00  0.00    +0.000 OA
ATOM     24  N   UNL     1       0.350  13.800  19.177  0.00  0.00    +0.000 N 
ATOM     25  H   UNL     1      -0.243  13.931  18.364  0.00  0.00    +0.000 HD
BRANCH  24  26
ATOM     26  C   UNL     1       0.290  12.533  19.799  0.00  0.00    +0.000 A 
ATOM     27  C   UNL     1      -0.140  12.354  21.116  0.00  0.00    +0.000 A 
ATOM     28  C   UNL     1      -0.064  11.100  21.729  0.00  0.00    +0.000 A 
ATOM     29  C   UNL     1       0.425  10.011  21.017  0.00  0.00    +0.000 A 
ATOM     30 CL   UNL     1       0.591   8.486  21.795  0.00  0.00    +0.000 Cl
ATOM     31  C   UNL     1       0.791  10.157  19.681  0.00  0.00    +0.000 A 
ATOM     32  C   UNL     1       0.711  11.414  19.068  0.00  0.00    +0.000 A 
ENDBRANCH  24  26
ENDBRANCH   6  22
TORSDOF 4
ENDMDL
MODEL 9
REMARK VINA RESULT:      -7.3      4.208      5.446
REMARK  Name = 
REMARK  5 active torsions:
REMARK  status: ('A' for Active; 'I' for Inactive)
REMARK    1  A    between atoms: C_1  and  C_2
REMARK    2  A    between atoms: C_5  and  N_6
REMARK    3  A    between atoms: C_7  and  C_9
REMARK    4  A    between atoms: C_19  and  C_20
REMARK    5  A    between atoms: N_22  and  C_23
REMARK                            x       y       z     vdW  Elec       q    Type
REMARK                         _______ _______ _______ _____ _____    ______ ____
ROOT
ATOM      1  C   UNL     1      -1.698  13.605  23.297  0.00  0.00    +0.000 C 
ATOM      2  C   UNL     1      -0.954  12.611  22.457  0.00  0.00    +0.000 A 
ATOM      3  C   UNL     1      -1.376  11.290  22.409  0.00  0.00    +0.000 A 
ATOM      4  C   UNL     1      -0.688  10.361  21.629  0.00  0.00    +0.000 A 
ATOM      5  C   UNL     1       0.402  10.718  20.814  0.00  0.00    +0.000 A 
ATOM      6  C   UNL     1       0.815  12.060  20.849  0.00  0.00    +0.000 A 
ATOM      7  C   UNL     1       0.162  12.984  21.696  0.00  0.00    +0.000 A 
ENDROOT
BRANCH   5   8
ATOM      8  N   UNL     1       1.058   9.739  20.000  0.00  0.00    +0.000 N 
ATOM      9  C   UNL     1       1.473   8.499  20.484  0.00  0.00    +0.000 C 
ATOM     10  O   UNL     1       1.193   8.134  21.630  0.00  0.00    +0.000 OA
ATOM     11  H   UNL     1       1.154   9.925  19.005  0.00  0.00    +0.000 HD
BRANCH   9  12
ATOM     12  C   UNL     1       2.171   7.590  19.590  0.00  0.00    +0.000 A 
ATOM     13  S   UNL     1       2.749   8.323  18.143  0.00  0.00    +0.000 S 
ATOM     14  C   UNL     1       3.563   6.920  17.639  0.00  0.00    +0.000 A 
ATOM     15  C   UNL     1       4.364   6.816  16.487  0.00  0.00    +0.000 A 
ATOM     16  C   UNL     1       4.980   5.603  16.209  0.00  0.00    +0.000 A 
ATOM     17  C   UNL     1       4.792   4.516  17.046  0.00  0.00    +0.000 A 
ATOM     18  C   UNL     1       3.982   4.624  18.189  0.00  0.00    +0.000 A 
ATOM     19  C   UNL     1       3.350   5.855  18.512  0.00  0.00    +0.000 A 
ATOM     20  C   UNL     1       2.510   6.253  19.628  0.00  0.00    +0.000 A 
ATOM     21 CL   UNL     1       2.075   5.149  20.872  0.00  0.00    +0.000 Cl
ENDBRANCH   9  12
ENDBRANCH   5   8
BRANCH   6  22
ATOM     22  C   UNL     1       1.855  12.626  19.944  0.00  0.00    +0.000 C 
ATOM     23  O   UNL     1       2.033  12.089  18.856  0.00  0.00    +0.000 OA
ATOM     24  N   UNL     1       2.606  13.664  20.480  0.00  0.00    +0.000 N 
ATOM     25  H   UNL     1       2.506  13.824  21.478  0.00  0.00    +0.000 HD
BRANCH  24  26
ATOM     26  C   UNL     1       3.706  14.289  19.851  0.00  0.00    +0.000 A 
ATOM     27  C   UNL     1       3.789  14.464  18.468  0.00  0.00    +0.000 A 
ATOM     28  C   UNL     1       4.950  14.975  17.880  0.00  0.00    +0.000 A 
ATOM     29  C   UNL     1       6.029  15.334  18.681  0.00  0.00    +0.000 A 
ATOM     30 CL   UNL     1       7.485  15.889  17.952  0.00  0.00    +0.000 Cl
ATOM     31  C   UNL     1       5.936  15.233  20.066  0.00  0.00    +0.000 A 
ATOM     32  C   UNL     1       4.770  14.723  20.653  0.00  0.00    +0.000 A 
ENDBRANCH  24  26
ENDBRANCH   6  22
TORSDOF 4
ENDMDL
