MODEL 1
REMARK VINA RESULT:      -7.3      0.000      0.000
REMARK  Name = 
REMARK  6 active torsions:
REMARK  status: ('A' for Active; 'I' for Inactive)
REMARK    1  A    between atoms: C_1  and  C_2
REMARK    2  A    between atoms: C_2  and  N_3
REMARK    3  A    between atoms: C_4  and  C_6
REMARK    4  A    between atoms: C_6  and  N_7
REMARK    5  A    between atoms: N_10  and  C_11
REMARK    6  A    between atoms: C_11  and  C_12
REMARK                            x       y       z     vdW  Elec       q    Type
REMARK                         _______ _______ _______ _____ _____    ______ ____
ROOT
ATOM      1  N   UNL     1       5.409   4.970  16.995  0.00  0.00    +0.000 N 
ATOM      2  C   UNL     1       5.179   6.357  17.107  0.00  0.00    +0.000 A 
ATOM      3  O   UNL     1       6.007   7.235  16.925  0.00  0.00    +0.000 OA
ATOM      4  N   UNL     1       3.828   6.506  17.488  0.00  0.00    +0.000 N 
ATOM      5  C   UNL     1       3.249   5.235  17.612  0.00  0.00    +0.000 A 
ATOM      6  C   UNL     1       1.963   4.871  17.952  0.00  0.00    +0.000 A 
ATOM      7  C   UNL     1       1.674   3.503  17.996  0.00  0.00    +0.000 A 
ATOM      8  C   UNL     1       2.665   2.543  17.707  0.00  0.00    +0.000 A 
ATOM      9  C   UNL     1       3.966   2.930  17.366  0.00  0.00    +0.000 A 
ATOM     10  C   UNL     1       4.231   4.283  17.321  0.00  0.00    +0.000 A 
ENDROOT
BRANCH   4  11
ATOM     11  C   UNL     1       3.144   7.760  17.694  0.00  0.00    +0.000 C 
ATOM     12  C   UNL     1       2.330   7.783  18.981  0.00  0.00    +0.000 C 
ENDBRANCH   4  11
BRANCH   1  13
ATOM     13  C   UNL     1       6.645   4.367  16.560  0.00  0.00    +0.000 C 
BRANCH  13  15
ATOM     14  N   UNL     1       6.257   3.629  14.254  0.00  0.00    +0.000 N 
ATOM     15  C   UNL     1       6.884   4.553  15.065  0.00  0.00    +0.000 C 
ATOM     16  O   UNL     1       7.639   5.422  14.634  0.00  0.00    +0.000 OA
ATOM     17  H   UNL     1       5.753   2.859  14.690  0.00  0.00    +0.000 HD
BRANCH  14  19
ATOM     18  C   UNL     1       5.078   3.306  12.122  0.00  0.00    +0.000 C 
ATOM     19  C   UNL     1       6.378   3.671  12.812  0.00  0.00    +0.000 C 
ENDBRANCH  14  19
ENDBRANCH  13  15
ENDBRANCH   1  13
TORSDOF 4
ENDMDL
MODEL 2
REMARK VINA RESULT:      -7.0      2.875      4.455
REMARK  Name = 
REMARK  6 active torsions:
REMARK  status: ('A' for Active; 'I' for Inactive)
REMARK    1  A    between atoms: C_1  and  C_2
REMARK    2  A    between atoms: C_2  and  N_3
REMARK    3  A    between atoms: C_4  and  C_6
REMARK    4  A    between atoms: C_6  and  N_7
REMARK    5  A    between atoms: N_10  and  C_11
REMARK    6  A    between atoms: C_11  and  C_12
REMARK                            x       y       z     vdW  Elec       q    Type
REMARK                         _______ _______ _______ _____ _____    ______ ____
ROOT
ATOM      1  N   UNL     1       4.569   4.715  18.393  0.00  0.00    +0.000 N 
ATOM      2  C   UNL     1       4.201   3.849  19.445  0.00  0.00    +0.000 A 
ATOM      3  O   UNL     1       4.680   2.748  19.663  0.00  0.00    +0.000 OA
ATOM      4  N   UNL     1       3.172   4.502  20.155  0.00  0.00    +0.000 N 
ATOM      5  C   UNL     1       2.913   5.738  19.545  0.00  0.00    +0.000 A 
ATOM      6  C   UNL     1       2.009   6.725  19.878  0.00  0.00    +0.000 A 
ATOM      7  C   UNL     1       1.977   7.866  19.070  0.00  0.00    +0.000 A 
ATOM      8  C   UNL     1       2.836   7.991  17.959  0.00  0.00    +0.000 A 
ATOM      9  C   UNL     1       3.746   6.978  17.633  0.00  0.00    +0.000 A 
ATOM     10  C   UNL     1       3.768   5.864  18.446  0.00  0.00    +0.000 A 
ENDROOT
BRANCH   4  11
ATOM     11  C   UNL     1       2.507   3.995  21.331  0.00  0.00    +0.000 C 
ATOM     12  C   UNL     1       1.290   3.142  21.000  0.00  0.00    +0.000 C 
ENDBRANCH   4  11
BRANCH   1  13
ATOM     13  C   UNL     1       5.637   4.472  17.456  0.00  0.00    +0.000 C 
BRANCH  13  15
ATOM     14  N   UNL     1       6.979   6.447  18.016  0.00  0.00    +0.000 N 
ATOM     15  C   UNL     1       6.962   5.070  17.920  0.00  0.00    +0.000 C 
ATOM     16  O   UNL     1       7.953   4.370  18.121  0.00  0.00    +0.000 OA
ATOM     17  H   UNL     1       6.161   6.968  17.708  0.00  0.00    +0.000 HD
BRANCH  14  19
ATOM     18  C   UNL     1       8.183   8.588  17.916  0.00  0.00    +0.000 C 
ATOM     19  C   UNL     1       8.157   7.168  18.449  0.00  0.00    +0.000 C 
ENDBRANCH  14  19
ENDBRANCH  13  15
ENDBRANCH   1  13
TORSDOF 4
ENDMDL
MODEL 3
REMARK VINA RESULT:      -6.8      2.619      4.357
REMARK  Name = 
REMARK  6 active torsions:
REMARK  status: ('A' for Active; 'I' for Inactive)
REMARK    1  A    between atoms: C_1  and  C_2
REMARK    2  A    between atoms: C_2  and  N_3
REMARK    3  A    between atoms: C_4  and  C_6
REMARK    4  A    between atoms: C_6  and  N_7
REMARK    5  A    between atoms: N_10  and  C_11
REMARK    6  A    between atoms: C_11  and  C_12
REMARK                            x       y       z     vdW  Elec       q    Type
REMARK                         _______ _______ _______ _____ _____    ______ ____
ROOT
ATOM      1  N   UNL     1       3.550   4.086  18.113  0.00  0.00    +0.000 N 
ATOM      2  C   UNL     1       3.437   3.115  19.130  0.00  0.00    +0.000 A 
ATOM      3  O   UNL     1       3.769   1.944  19.039  0.00  0.00    +0.000 OA
ATOM      4  N   UNL     1       2.852   3.767  20.237  0.00  0.00    +0.000 N 
ATOM      5  C   UNL     1       2.607   5.105  19.898  0.00  0.00    +0.000 A 
ATOM      6  C   UNL     1       2.060   6.128  20.645  0.00  0.00    +0.000 A 
ATOM      7  C   UNL     1       1.937   7.377  20.029  0.00  0.00    +0.000 A 
ATOM      8  C   UNL     1       2.356   7.573  18.697  0.00  0.00    +0.000 A 
ATOM      9  C   UNL     1       2.906   6.523  17.953  0.00  0.00    +0.000 A 
ATOM     10  C   UNL     1       3.026   5.300  18.579  0.00  0.00    +0.000 A 
ENDROOT
BRANCH   4  11
ATOM     11  C   UNL     1       2.570   3.163  21.517  0.00  0.00    +0.000 C 
ATOM     12  C   UNL     1       1.146   2.635  21.621  0.00  0.00    +0.000 C 
ENDBRANCH   4  11
BRANCH   1  13
ATOM     13  C   UNL     1       4.160   3.869  16.825  0.00  0.00    +0.000 C 
BRANCH  13  15
ATOM     14  N   UNL     1       6.377   4.207  17.817  0.00  0.00    +0.000 N 
ATOM     15  C   UNL     1       5.559   4.473  16.738  0.00  0.00    +0.000 C 
ATOM     16  O   UNL     1       5.893   5.199  15.804  0.00  0.00    +0.000 OA
ATOM     17  H   UNL     1       5.988   3.707  18.614  0.00  0.00    +0.000 HD
BRANCH  14  19
ATOM     18  C   UNL     1       7.843   5.953  18.734  0.00  0.00    +0.000 C 
ATOM     19  C   UNL     1       7.736   4.701  17.886  0.00  0.00    +0.000 C 
ENDBRANCH  14  19
ENDBRANCH  13  15
ENDBRANCH   1  13
TORSDOF 4
ENDMDL
MODEL 4
REMARK VINA RESULT:      -6.8      2.314      4.113
REMARK  Name = 
REMARK  6 active torsions:
REMARK  status: ('A' for Active; 'I' for Inactive)
REMARK    1  A    between atoms: C_1  and  C_2
REMARK    2  A    between atoms: C_2  and  N_3
REMARK    3  A    between atoms: C_4  and  C_6
REMARK    4  A    between atoms: C_6  and  N_7
REMARK    5  A    between atoms: N_10  and  C_11
REMARK    6  A    between atoms: C_11  and  C_12
REMARK                            x       y       z     vdW  Elec       q    Type
REMARK                         _______ _______ _______ _____ _____    ______ ____
ROOT
ATOM      1  N   UNL     1       4.177   3.967  17.182  0.00  0.00    +0.000 N 
ATOM      2  C   UNL     1       3.549   2.952  17.936  0.00  0.00    +0.000 A 
ATOM      3  O   UNL     1       3.716   1.752  17.795  0.00  0.00    +0.000 OA
ATOM      4  N   UNL     1       2.693   3.608  18.846  0.00  0.00    +0.000 N 
ATOM      5  C   UNL     1       2.792   4.992  18.646  0.00  0.00    +0.000 A 
ATOM      6  C   UNL     1       2.160   6.034  19.293  0.00  0.00    +0.000 A 
ATOM      7  C   UNL     1       2.461   7.331  18.868  0.00  0.00    +0.000 A 
ATOM      8  C   UNL     1       3.373   7.555  17.816  0.00  0.00    +0.000 A 
ATOM      9  C   UNL     1       4.004   6.486  17.168  0.00  0.00    +0.000 A 
ATOM     10  C   UNL     1       3.699   5.214  17.606  0.00  0.00    +0.000 A 
ENDROOT
BRANCH   4  11
ATOM     11  C   UNL     1       1.866   2.963  19.838  0.00  0.00    +0.000 C 
ATOM     12  C   UNL     1       2.551   2.849  21.194  0.00  0.00    +0.000 C 
ENDBRANCH   4  11
BRANCH   1  13
ATOM     13  C   UNL     1       5.187   3.747  16.177  0.00  0.00    +0.000 C 
BRANCH  13  15
ATOM     14  N   UNL     1       6.799   4.303  17.939  0.00  0.00    +0.000 N 
ATOM     15  C   UNL     1       6.541   4.321  16.583  0.00  0.00    +0.000 C 
ATOM     16  O   UNL     1       7.304   4.823  15.760  0.00  0.00    +0.000 OA
ATOM     17  H   UNL     1       6.066   3.991  18.572  0.00  0.00    +0.000 HD
BRANCH  14  19
ATOM     18  C   UNL     1       7.922   6.246  18.942  0.00  0.00    +0.000 C 
ATOM     19  C   UNL     1       8.042   4.805  18.487  0.00  0.00    +0.000 C 
ENDBRANCH  14  19
ENDBRANCH  13  15
ENDBRANCH   1  13
TORSDOF 4
ENDMDL
MODEL 5
REMARK VINA RESULT:      -6.7      1.969      2.902
REMARK  Name = 
REMARK  6 active torsions:
REMARK  status: ('A' for Active; 'I' for Inactive)
REMARK    1  A    between atoms: C_1  and  C_2
REMARK    2  A    between atoms: C_2  and  N_3
REMARK    3  A    between atoms: C_4  and  C_6
REMARK    4  A    between atoms: C_6  and  N_7
REMARK    5  A    between atoms: N_10  and  C_11
REMARK    6  A    between atoms: C_11  and  C_12
REMARK                            x       y       z     vdW  Elec       q    Type
REMARK                         _______ _______ _______ _____ _____    ______ ____
ROOT
ATOM      1  N   UNL     1       3.760   4.584  17.310  0.00  0.00    +0.000 N 
ATOM      2  C   UNL     1       3.741   5.945  17.681  0.00  0.00    +0.000 A 
ATOM      3  O   UNL     1       4.454   6.821  17.219  0.00  0.00    +0.000 OA
ATOM      4  N   UNL     1       2.763   6.066  18.691  0.00  0.00    +0.000 N 
ATOM      5  C   UNL     1       2.203   4.804  18.935  0.00  0.00    +0.000 A 
ATOM      6  C   UNL     1       1.214   4.422  19.818  0.00  0.00    +0.000 A 
ATOM      7  C   UNL     1       0.860   3.070  19.839  0.00  0.00    +0.000 A 
ATOM      8  C   UNL     1       1.495   2.141  18.990  0.00  0.00    +0.000 A 
ATOM      9  C   UNL     1       2.499   2.544  18.102  0.00  0.00    +0.000 A 
ATOM     10  C   UNL     1       2.830   3.883  18.090  0.00  0.00    +0.000 A 
ENDROOT
BRANCH   4  11
ATOM     11  C   UNL     1       2.381   7.291  19.352  0.00  0.00    +0.000 C 
ATOM     12  C   UNL     1       1.942   8.376  18.377  0.00  0.00    +0.000 C 
ENDBRANCH   4  11
BRANCH   1  13
ATOM     13  C   UNL     1       4.571   4.024  16.257  0.00  0.00    +0.000 C 
BRANCH  13  15
ATOM     14  N   UNL     1       6.483   4.377  17.750  0.00  0.00    +0.000 N 
ATOM     15  C   UNL     1       6.053   4.336  16.440  0.00  0.00    +0.000 C 
ATOM     16  O   UNL     1       6.781   4.600  15.485  0.00  0.00    +0.000 OA
ATOM     17  H   UNL     1       5.795   4.277  18.494  0.00  0.00    +0.000 HD
BRANCH  14  19
ATOM     18  C   UNL     1       7.987   5.830  19.043  0.00  0.00    +0.000 C 
ATOM     19  C   UNL     1       7.862   4.654  18.094  0.00  0.00    +0.000 C 
ENDBRANCH  14  19
ENDBRANCH  13  15
ENDBRANCH   1  13
TORSDOF 4
ENDMDL
MODEL 6
REMARK VINA RESULT:      -6.7      0.867      1.037
REMARK  Name = 
REMARK  6 active torsions:
REMARK  status: ('A' for Active; 'I' for Inactive)
REMARK    1  A    between atoms: C_1  and  C_2
REMARK    2  A    between atoms: C_2  and  N_3
REMARK    3  A    between atoms: C_4  and  C_6
REMARK    4  A    between atoms: C_6  and  N_7
REMARK    5  A    between atoms: N_10  and  C_11
REMARK    6  A    between atoms: C_11  and  C_12
REMARK                            x       y       z     vdW  Elec       q    Type
REMARK                         _______ _______ _______ _____ _____    ______ ____
ROOT
ATOM      1  N   UNL     1       4.892   4.817  17.259  0.00  0.00    +0.000 N 
ATOM      2  C   UNL     1       4.615   6.137  17.671  0.00  0.00    +0.000 A 
ATOM      3  O   UNL     1       5.360   7.096  17.544  0.00  0.00    +0.000 OA
ATOM      4  N   UNL     1       3.336   6.107  18.266  0.00  0.00    +0.000 N 
ATOM      5  C   UNL     1       2.847   4.793  18.224  0.00  0.00    +0.000 A 
ATOM      6  C   UNL     1       1.650   4.272  18.671  0.00  0.00    +0.000 A 
ATOM      7  C   UNL     1       1.440   2.902  18.491  0.00  0.00    +0.000 A 
ATOM      8  C   UNL     1       2.419   2.092  17.879  0.00  0.00    +0.000 A 
ATOM      9  C   UNL     1       3.629   2.636  17.434  0.00  0.00    +0.000 A 
ATOM     10  C   UNL     1       3.816   3.991  17.614  0.00  0.00    +0.000 A 
ENDROOT
BRANCH   4  11
ATOM     11  C   UNL     1       2.632   7.244  18.810  0.00  0.00    +0.000 C 
ATOM     12  C   UNL     1       2.250   8.265  17.747  0.00  0.00    +0.000 C 
ENDBRANCH   4  11
BRANCH   1  13
ATOM     13  C   UNL     1       6.072   4.404  16.540  0.00  0.00    +0.000 C 
BRANCH  13  15
ATOM     14  N   UNL     1       6.008   3.518  14.254  0.00  0.00    +0.000 N 
ATOM     15  C   UNL     1       5.950   4.651  15.039  0.00  0.00    +0.000 C 
ATOM     16  O   UNL     1       5.879   5.788  14.575  0.00  0.00    +0.000 OA
ATOM     17  H   UNL     1       6.199   2.623  14.701  0.00  0.00    +0.000 HD
BRANCH  14  19
ATOM     18  C   UNL     1       7.226   3.920  12.157  0.00  0.00    +0.000 C 
ATOM     19  C   UNL     1       5.901   3.581  12.812  0.00  0.00    +0.000 C 
ENDBRANCH  14  19
ENDBRANCH  13  15
ENDBRANCH   1  13
TORSDOF 4
ENDMDL
MODEL 7
REMARK VINA RESULT:      -6.7      2.309      4.351
REMARK  Name = 
REMARK  6 active torsions:
REMARK  status: ('A' for Active; 'I' for Inactive)
REMARK    1  A    between atoms: C_1  and  C_2
REMARK    2  A    between atoms: C_2  and  N_3
REMARK    3  A    between atoms: C_4  and  C_6
REMARK    4  A    between atoms: C_6  and  N_7
REMARK    5  A    between atoms: N_10  and  C_11
REMARK    6  A    between atoms: C_11  and  C_12
REMARK                            x       y       z     vdW  Elec       q    Type
REMARK                         _______ _______ _______ _____ _____    ______ ____
ROOT
ATOM      1  N   UNL     1       4.234   5.449  17.224  0.00  0.00    +0.000 N 
ATOM      2  C   UNL     1       4.343   4.051  17.380  0.00  0.00    +0.000 A 
ATOM      3  O   UNL     1       4.969   3.299  16.651  0.00  0.00    +0.000 OA
ATOM      4  N   UNL     1       3.574   3.717  18.515  0.00  0.00    +0.000 N 
ATOM      5  C   UNL     1       3.003   4.886  19.036  0.00  0.00    +0.000 A 
ATOM      6  C   UNL     1       2.186   5.067  20.133  0.00  0.00    +0.000 A 
ATOM      7  C   UNL     1       1.764   6.371  20.411  0.00  0.00    +0.000 A 
ATOM      8  C   UNL     1       2.160   7.450  19.595  0.00  0.00    +0.000 A 
ATOM      9  C   UNL     1       2.987   7.249  18.484  0.00  0.00    +0.000 A 
ATOM     10  C   UNL     1       3.399   5.957  18.230  0.00  0.00    +0.000 A 
ENDROOT
BRANCH   4  11
ATOM     11  C   UNL     1       3.418   2.392  19.066  0.00  0.00    +0.000 C 
ATOM     12  C   UNL     1       4.455   2.071  20.135  0.00  0.00    +0.000 C 
ENDBRANCH   4  11
BRANCH   1  13
ATOM     13  C   UNL     1       4.919   6.228  16.223  0.00  0.00    +0.000 C 
BRANCH  13  15
ATOM     14  N   UNL     1       6.650   7.373  17.530  0.00  0.00    +0.000 N 
ATOM     15  C   UNL     1       6.395   6.428  16.557  0.00  0.00    +0.000 C 
ATOM     16  O   UNL     1       7.283   5.837  15.945  0.00  0.00    +0.000 OA
ATOM     17  H   UNL     1       5.872   7.916  17.899  0.00  0.00    +0.000 HD
BRANCH  14  19
ATOM     18  C   UNL     1       8.250   9.171  18.030  0.00  0.00    +0.000 C 
ATOM     19  C   UNL     1       7.996   7.677  17.966  0.00  0.00    +0.000 C 
ENDBRANCH  14  19
ENDBRANCH  13  15
ENDBRANCH   1  13
TORSDOF 4
ENDMDL
MODEL 8
REMARK VINA RESULT:      -6.6      1.701      3.059
REMARK  Name = 
REMARK  6 active torsions:
REMARK  status: ('A' for Active; 'I' for Inactive)
REMARK    1  A    between atoms: C_1  and  C_2
REMARK    2  A    between atoms: C_2  and  N_3
REMARK    3  A    between atoms: C_4  and  C_6
REMARK    4  A    between atoms: C_6  and  N_7
REMARK    5  A    between atoms: N_10  and  C_11
REMARK    6  A    between atoms: C_11  and  C_12
REMARK                            x       y       z     vdW  Elec       q    Type
REMARK                         _______ _______ _______ _____ _____    ______ ____
ROOT
ATOM      1  N   UNL     1       4.743   4.270  17.290  0.00  0.00    +0.000 N 
ATOM      2  C   UNL     1       3.836   3.224  17.562  0.00  0.00    +0.000 A 
ATOM      3  O   UNL     1       4.071   2.031  17.461  0.00  0.00    +0.000 OA
ATOM      4  N   UNL     1       2.625   3.840  17.944  0.00  0.00    +0.000 N 
ATOM      5  C   UNL     1       2.789   5.231  17.898  0.00  0.00    +0.000 A 
ATOM      6  C   UNL     1       1.898   6.244  18.188  0.00  0.00    +0.000 A 
ATOM      7  C   UNL     1       2.353   7.559  18.047  0.00  0.00    +0.000 A 
ATOM      8  C   UNL     1       3.670   7.828  17.620  0.00  0.00    +0.000 A 
ATOM      9  C   UNL     1       4.560   6.788  17.327  0.00  0.00    +0.000 A 
ATOM     10  C   UNL     1       4.096   5.498  17.479  0.00  0.00    +0.000 A 
ENDROOT
BRANCH   4  11
ATOM     11  C   UNL     1       1.419   3.153  18.340  0.00  0.00    +0.000 C 
ATOM     12  C   UNL     1       1.249   3.081  19.852  0.00  0.00    +0.000 C 
ENDBRANCH   4  11
BRANCH   1  13
ATOM     13  C   UNL     1       6.128   4.092  16.929  0.00  0.00    +0.000 C 
BRANCH  13  15
ATOM     14  N   UNL     1       6.147   3.594  14.528  0.00  0.00    +0.000 N 
ATOM     15  C   UNL     1       6.415   4.538  15.498  0.00  0.00    +0.000 C 
ATOM     16  O   UNL     1       6.915   5.633  15.250  0.00  0.00    +0.000 OA
ATOM     17  H   UNL     1       5.857   2.663  14.819  0.00  0.00    +0.000 HD
BRANCH  14  19
ATOM     18  C   UNL     1       5.346   3.147  12.247  0.00  0.00    +0.000 C 
ATOM     19  C   UNL     1       6.358   3.863  13.121  0.00  0.00    +0.000 C 
ENDBRANCH  14  19
ENDBRANCH  13  15
ENDBRANCH   1  13
TORSDOF 4
ENDMDL
MODEL 9
REMARK VINA RESULT:      -6.6      2.462      3.337
REMARK  Name = 
REMARK  6 active torsions:
REMARK  status: ('A' for Active; 'I' for Inactive)
REMARK    1  A    between atoms: C_1  and  C_2
REMARK    2  A    between atoms: C_2  and  N_3
REMARK    3  A    between atoms: C_4  and  C_6
REMARK    4  A    between atoms: C_6  and  N_7
REMARK    5  A    between atoms: N_10  and  C_11
REMARK    6  A    between atoms: C_11  and  C_12
REMARK                            x       y       z     vdW  Elec       q    Type
REMARK                         _______ _______ _______ _____ _____    ______ ____
ROOT
ATOM      1  N   UNL     1       4.122   4.757  18.082  0.00  0.00    +0.000 N 
ATOM      2  C   UNL     1       3.891   6.148  18.043  0.00  0.00    +0.000 A 
ATOM      3  O   UNL     1       4.525   6.959  17.388  0.00  0.00    +0.000 OA
ATOM      4  N   UNL     1       2.813   6.395  18.920  0.00  0.00    +0.000 N 
ATOM      5  C   UNL     1       2.401   5.180  19.487  0.00  0.00    +0.000 A 
ATOM      6  C   UNL     1       1.391   4.913  20.387  0.00  0.00    +0.000 A 
ATOM      7  C   UNL     1       1.214   3.582  20.778  0.00  0.00    +0.000 A 
ATOM      8  C   UNL     1       2.043   2.562  20.269  0.00  0.00    +0.000 A 
ATOM      9  C   UNL     1       3.066   2.850  19.358  0.00  0.00    +0.000 A 
ATOM     10  C   UNL     1       3.220   4.168  18.979  0.00  0.00    +0.000 A 
ENDROOT
BRANCH   4  11
ATOM     11  C   UNL     1       2.215   7.683  19.178  0.00  0.00    +0.000 C 
ATOM     12  C   UNL     1       1.795   8.404  17.904  0.00  0.00    +0.000 C 
ENDBRANCH   4  11
BRANCH   1  13
ATOM     13  C   UNL     1       5.095   4.056  17.281  0.00  0.00    +0.000 C 
BRANCH  13  15
ATOM     14  N   UNL     1       6.723   5.162  18.744  0.00  0.00    +0.000 N 
ATOM     15  C   UNL     1       6.514   4.567  17.517  0.00  0.00    +0.000 C 
ATOM     16  O   UNL     1       7.376   4.509  16.642  0.00  0.00    +0.000 OA
ATOM     17  H   UNL     1       5.928   5.291  19.367  0.00  0.00    +0.000 HD
BRANCH  14  19
ATOM     18  C   UNL     1       8.206   7.120  18.653  0.00  0.00    +0.000 C 
ATOM     19  C   UNL     1       8.015   5.692  19.126  0.00  0.00    +0.000 C 
ENDBRANCH  14  19
ENDBRANCH  13  15
ENDBRANCH   1  13
TORSDOF 4
ENDMDL
