MODEL 1
REMARK VINA RESULT:      -8.3      0.000      0.000
REMARK  Name = 
REMARK  8 active torsions:
REMARK  status: ('A' for Active; 'I' for Inactive)
REMARK    1  A    between atoms: C_1  and  C_2
REMARK    2  A    between atoms: C_4  and  C_5
REMARK    3  A    between atoms: C_6  and  C_7
REMARK    4  A    between atoms: C_10  and  C_11
REMARK    5  A    between atoms: C_12  and  O_13
REMARK    6  A    between atoms: O_13  and  C_14
REMARK    7  A    between atoms: N_17  and  C_18
REMARK    8  A    between atoms: C_21  and  N_22
REMARK                            x       y       z     vdW  Elec       q    Type
REMARK                         _______ _______ _______ _____ _____    ______ ____
ROOT
ATOM      1  C   UNL     1       5.374   5.234  17.684  0.00  0.00    +0.000 A 
ATOM      2  N   UNL     1       6.227   5.922  18.459  0.00  0.00    +0.000 NA
ATOM      3  C   UNL     1       7.293   6.532  17.942  0.00  0.00    +0.000 A 
ATOM      4  N   UNL     1       7.972   7.396  18.804  0.00  0.00    +0.000 N 
ATOM      5  N   UNL     1       7.687   6.402  16.677  0.00  0.00    +0.000 NA
ATOM      6  C   UNL     1       6.921   5.585  15.952  0.00  0.00    +0.000 A 
ATOM      7  S   UNL     1       7.360   5.238  14.343  0.00  0.00    +0.000 S 
ATOM      8  C   UNL     1       6.010   4.202  14.157  0.00  0.00    +0.000 A 
ATOM      9  C   UNL     1       5.226   4.155  15.295  0.00  0.00    +0.000 A 
ATOM     10  C   UNL     1       5.757   4.954  16.366  0.00  0.00    +0.000 A 
ATOM     11  H   UNL     1       7.624   7.283  19.744  0.00  0.00    +0.000 HD
ENDROOT
BRANCH   4  12
ATOM     12  C   UNL     1       8.415   8.697  18.517  0.00  0.00    +0.000 A 
ATOM     13  C   UNL     1       9.400   9.345  19.264  0.00  0.00    +0.000 A 
ATOM     14  C   UNL     1       9.710  10.688  19.039  0.00  0.00    +0.000 A 
ATOM     15  C   UNL     1       9.052  11.444  18.063  0.00  0.00    +0.000 A 
ATOM     16  C   UNL     1       8.109  10.768  17.277  0.00  0.00    +0.000 A 
ATOM     17  C   UNL     1       7.795   9.418  17.497  0.00  0.00    +0.000 A 
BRANCH  15  18
ATOM     18  N   UNL     1       9.349  12.782  17.899  0.00  0.00    +0.000 N 
ATOM     19  C   UNL     1       8.667  13.848  18.643  0.00  0.00    +0.000 C 
ATOM     20  C   UNL     1       9.628  14.543  19.629  0.00  0.00    +0.000 C 
ATOM     21  N   UNL     1      10.854  15.048  18.981  0.00  0.00    +0.000 NA
ATOM     22  C   UNL     1      11.526  13.931  18.288  0.00  0.00    +0.000 C 
ATOM     23  C   UNL     1      10.623  13.184  17.276  0.00  0.00    +0.000 C 
ATOM     24  H   UNL     1      11.479  15.422  19.693  0.00  0.00    +0.000 HD
ENDBRANCH  15  18
ENDBRANCH   4  12
BRANCH   1  25
ATOM     25  O   UNL     1       4.248   4.652  18.265  0.00  0.00    +0.000 OA
BRANCH  25  33
ATOM     26  C   UNL     1       3.342   7.655  17.569  0.00  0.00    +0.000 C 
ATOM     27  C   UNL     1       2.914   6.757  18.690  0.00  0.00    +0.000 A 
ATOM     28  C   UNL     1       2.012   7.399  19.564  0.00  0.00    +0.000 A 
ATOM     29  C   UNL     1       1.492   6.776  20.686  0.00  0.00    +0.000 A 
ATOM     30  C   UNL     1       1.859   5.459  20.936  0.00  0.00    +0.000 A 
ATOM     31  C   UNL     1       2.738   4.766  20.071  0.00  0.00    +0.000 A 
ATOM     32  C   UNL     1       3.075   3.337  20.421  0.00  0.00    +0.000 C 
ATOM     33  C   UNL     1       3.282   5.410  18.925  0.00  0.00    +0.000 A 
BRANCH  29  34
ATOM     34  C   UNL     1       0.614   7.586  21.531  0.00  0.00    +0.000 C 
ATOM     35  C   UNL     1       0.794   8.899  21.664  0.00  0.00    +0.000 C 
BRANCH  35  36
ATOM     36  C   UNL     1      -0.061   9.772  22.568  0.00  0.00    +0.000 C 
ATOM     37  N   UNL     1      -0.769  10.498  23.318  0.00  0.00    +0.000 NA
ENDBRANCH  35  36
ENDBRANCH  29  34
ENDBRANCH  25  33
ENDBRANCH   1  25
TORSDOF 6
ENDMDL
MODEL 2
REMARK VINA RESULT:      -8.0      5.254      9.111
REMARK  Name = 
REMARK  8 active torsions:
REMARK  status: ('A' for Active; 'I' for Inactive)
REMARK    1  A    between atoms: C_1  and  C_2
REMARK    2  A    between atoms: C_4  and  C_5
REMARK    3  A    between atoms: C_6  and  C_7
REMARK    4  A    between atoms: C_10  and  C_11
REMARK    5  A    between atoms: C_12  and  O_13
REMARK    6  A    between atoms: O_13  and  C_14
REMARK    7  A    between atoms: N_17  and  C_18
REMARK    8  A    between atoms: C_21  and  N_22
REMARK                            x       y       z     vdW  Elec       q    Type
REMARK                         _______ _______ _______ _____ _____    ______ ____
ROOT
ATOM      1  C   UNL     1       0.607  11.402  20.514  0.00  0.00    +0.000 A 
ATOM      2  N   UNL     1       1.080  10.207  20.902  0.00  0.00    +0.000 NA
ATOM      3  C   UNL     1       0.884   9.114  20.165  0.00  0.00    +0.000 A 
ATOM      4  N   UNL     1       1.610   7.986  20.553  0.00  0.00    +0.000 N 
ATOM      5  N   UNL     1       0.104   9.069  19.088  0.00  0.00    +0.000 NA
ATOM      6  C   UNL     1      -0.491  10.229  18.800  0.00  0.00    +0.000 A 
ATOM      7  S   UNL     1      -1.601  10.301  17.511  0.00  0.00    +0.000 S 
ATOM      8  C   UNL     1      -1.896  11.961  17.806  0.00  0.00    +0.000 A 
ATOM      9  C   UNL     1      -1.132  12.450  18.849  0.00  0.00    +0.000 A 
ATOM     10  C   UNL     1      -0.310  11.439  19.455  0.00  0.00    +0.000 A 
ATOM     11  H   UNL     1       2.047   8.152  21.448  0.00  0.00    +0.000 HD
ENDROOT
BRANCH   4  12
ATOM     12  C   UNL     1       2.340   7.123  19.719  0.00  0.00    +0.000 A 
ATOM     13  C   UNL     1       2.596   5.791  20.044  0.00  0.00    +0.000 A 
ATOM     14  C   UNL     1       3.446   5.007  19.260  0.00  0.00    +0.000 A 
ATOM     15  C   UNL     1       4.079   5.518  18.121  0.00  0.00    +0.000 A 
ATOM     16  C   UNL     1       3.767   6.837  17.769  0.00  0.00    +0.000 A 
ATOM     17  C   UNL     1       2.911   7.629  18.551  0.00  0.00    +0.000 A 
BRANCH  15  18
ATOM     18  N   UNL     1       4.951   4.732  17.397  0.00  0.00    +0.000 N 
ATOM     19  C   UNL     1       4.829   4.529  15.948  0.00  0.00    +0.000 C 
ATOM     20  C   UNL     1       6.002   5.185  15.191  0.00  0.00    +0.000 C 
ATOM     21  N   UNL     1       7.323   4.744  15.679  0.00  0.00    +0.000 NA
ATOM     22  C   UNL     1       7.414   5.013  17.128  0.00  0.00    +0.000 C 
ATOM     23  C   UNL     1       6.269   4.380  17.958  0.00  0.00    +0.000 C 
ATOM     24  H   UNL     1       8.050   5.269  15.197  0.00  0.00    +0.000 HD
ENDBRANCH  15  18
ENDBRANCH   4  12
BRANCH   1  25
ATOM     25  O   UNL     1       0.877  12.524  21.295  0.00  0.00    +0.000 OA
BRANCH  25  33
ATOM     26  C   UNL     1      -1.334  11.103  23.142  0.00  0.00    +0.000 C 
ATOM     27  C   UNL     1      -1.143  12.554  22.816  0.00  0.00    +0.000 A 
ATOM     28  C   UNL     1      -2.141  13.361  23.399  0.00  0.00    +0.000 A 
ATOM     29  C   UNL     1      -2.185  14.734  23.222  0.00  0.00    +0.000 A 
ATOM     30  C   UNL     1      -1.187  15.331  22.462  0.00  0.00    +0.000 A 
ATOM     31  C   UNL     1      -0.148  14.564  21.882  0.00  0.00    +0.000 A 
ATOM     32  C   UNL     1       0.894  15.300  21.077  0.00  0.00    +0.000 C 
ATOM     33  C   UNL     1      -0.110  13.152  22.053  0.00  0.00    +0.000 A 
BRANCH  29  34
ATOM     34  C   UNL     1      -3.313  15.433  23.840  0.00  0.00    +0.000 C 
ATOM     35  C   UNL     1      -3.155  16.605  24.450  0.00  0.00    +0.000 C 
BRANCH  35  36
ATOM     36  C   UNL     1      -4.285  17.343  25.148  0.00  0.00    +0.000 C 
ATOM     37  N   UNL     1      -5.222  17.957  25.727  0.00  0.00    +0.000 NA
ENDBRANCH  35  36
ENDBRANCH  29  34
ENDBRANCH  25  33
ENDBRANCH   1  25
TORSDOF 6
ENDMDL
MODEL 3
REMARK VINA RESULT:      -7.6      4.442      9.205
REMARK  Name = 
REMARK  8 active torsions:
REMARK  status: ('A' for Active; 'I' for Inactive)
REMARK    1  A    between atoms: C_1  and  C_2
REMARK    2  A    between atoms: C_4  and  C_5
REMARK    3  A    between atoms: C_6  and  C_7
REMARK    4  A    between atoms: C_10  and  C_11
REMARK    5  A    between atoms: C_12  and  O_13
REMARK    6  A    between atoms: O_13  and  C_14
REMARK    7  A    between atoms: N_17  and  C_18
REMARK    8  A    between atoms: C_21  and  N_22
REMARK                            x       y       z     vdW  Elec       q    Type
REMARK                         _______ _______ _______ _____ _____    ______ ____
ROOT
ATOM      1  C   UNL     1       0.385  11.604  20.058  0.00  0.00    +0.000 A 
ATOM      2  N   UNL     1       0.939  10.481  20.543  0.00  0.00    +0.000 NA
ATOM      3  C   UNL     1       0.763   9.306  19.938  0.00  0.00    +0.000 A 
ATOM      4  N   UNL     1       1.566   8.263  20.403  0.00  0.00    +0.000 N 
ATOM      5  N   UNL     1      -0.068   9.109  18.918  0.00  0.00    +0.000 NA
ATOM      6  C   UNL     1      -0.736  10.201  18.544  0.00  0.00    +0.000 A 
ATOM      7  S   UNL     1      -1.914  10.081  17.319  0.00  0.00    +0.000 S 
ATOM      8  C   UNL     1      -2.280  11.748  17.453  0.00  0.00    +0.000 A 
ATOM      9  C   UNL     1      -1.490  12.383  18.393  0.00  0.00    +0.000 A 
ATOM     10  C   UNL     1      -0.585  11.482  19.055  0.00  0.00    +0.000 A 
ATOM     11  H   UNL     1       2.040   8.545  21.248  0.00  0.00    +0.000 HD
ENDROOT
BRANCH   4  12
ATOM     12  C   UNL     1       2.297   7.349  19.624  0.00  0.00    +0.000 A 
ATOM     13  C   UNL     1       2.551   6.039  20.031  0.00  0.00    +0.000 A 
ATOM     14  C   UNL     1       3.401   5.208  19.298  0.00  0.00    +0.000 A 
ATOM     15  C   UNL     1       4.037   5.647  18.131  0.00  0.00    +0.000 A 
ATOM     16  C   UNL     1       3.726   6.942  17.698  0.00  0.00    +0.000 A 
ATOM     17  C   UNL     1       2.871   7.781  18.429  0.00  0.00    +0.000 A 
BRANCH  15  18
ATOM     18  N   UNL     1       4.909   4.816  17.459  0.00  0.00    +0.000 N 
ATOM     19  C   UNL     1       4.935   4.702  15.995  0.00  0.00    +0.000 C 
ATOM     20  C   UNL     1       6.243   5.276  15.413  0.00  0.00    +0.000 C 
ATOM     21  N   UNL     1       7.452   4.681  16.014  0.00  0.00    +0.000 NA
ATOM     22  C   UNL     1       7.401   4.864  17.479  0.00  0.00    +0.000 C 
ATOM     23  C   UNL     1       6.115   4.307  18.137  0.00  0.00    +0.000 C 
ATOM     24  H   UNL     1       8.276   5.156  15.648  0.00  0.00    +0.000 HD
ENDBRANCH  15  18
ENDBRANCH   4  12
BRANCH   1  25
ATOM     25  O   UNL     1       0.636  12.816  20.699  0.00  0.00    +0.000 OA
BRANCH  25  33
ATOM     26  C   UNL     1       2.553  12.450  18.148  0.00  0.00    +0.000 C 
ATOM     27  C   UNL     1       2.461  13.582  19.127  0.00  0.00    +0.000 A 
ATOM     28  C   UNL     1       3.416  14.585  18.863  0.00  0.00    +0.000 A 
ATOM     29  C   UNL     1       3.537  15.721  19.646  0.00  0.00    +0.000 A 
ATOM     30  C   UNL     1       2.661  15.881  20.713  0.00  0.00    +0.000 A 
ATOM     31  C   UNL     1       1.668  14.914  20.997  0.00  0.00    +0.000 A 
ATOM     32  C   UNL     1       0.759  15.176  22.172  0.00  0.00    +0.000 C 
ATOM     33  C   UNL     1       1.551  13.741  20.200  0.00  0.00    +0.000 A 
BRANCH  29  34
ATOM     34  C   UNL     1       4.612  16.647  19.286  0.00  0.00    +0.000 C 
ATOM     35  C   UNL     1       5.849  16.217  19.046  0.00  0.00    +0.000 C 
BRANCH  35  36
ATOM     36  C   UNL     1       7.007  17.145  18.718  0.00  0.00    +0.000 C 
ATOM     37  N   UNL     1       7.968  17.915  18.447  0.00  0.00    +0.000 NA
ENDBRANCH  35  36
ENDBRANCH  29  34
ENDBRANCH  25  33
ENDBRANCH   1  25
TORSDOF 6
ENDMDL
MODEL 4
REMARK VINA RESULT:      -7.6      4.730     10.161
REMARK  Name = 
REMARK  8 active torsions:
REMARK  status: ('A' for Active; 'I' for Inactive)
REMARK    1  A    between atoms: C_1  and  C_2
REMARK    2  A    between atoms: C_4  and  C_5
REMARK    3  A    between atoms: C_6  and  C_7
REMARK    4  A    between atoms: C_10  and  C_11
REMARK    5  A    between atoms: C_12  and  O_13
REMARK    6  A    between atoms: O_13  and  C_14
REMARK    7  A    between atoms: N_17  and  C_18
REMARK    8  A    between atoms: C_21  and  N_22
REMARK                            x       y       z     vdW  Elec       q    Type
REMARK                         _______ _______ _______ _____ _____    ______ ____
ROOT
ATOM      1  C   UNL     1       0.150  11.940  20.097  0.00  0.00    +0.000 A 
ATOM      2  N   UNL     1       0.639  10.897  20.787  0.00  0.00    +0.000 NA
ATOM      3  C   UNL     1       0.371   9.642  20.425  0.00  0.00    +0.000 A 
ATOM      4  N   UNL     1       1.112   8.655  21.076  0.00  0.00    +0.000 N 
ATOM      5  N   UNL     1      -0.496   9.310  19.471  0.00  0.00    +0.000 NA
ATOM      6  C   UNL     1      -1.098  10.353  18.898  0.00  0.00    +0.000 A 
ATOM      7  S   UNL     1      -2.310  10.081  17.732  0.00  0.00    +0.000 S 
ATOM      8  C   UNL     1      -2.560  11.764  17.541  0.00  0.00    +0.000 A 
ATOM      9  C   UNL     1      -1.707  12.511  18.332  0.00  0.00    +0.000 A 
ATOM     10  C   UNL     1      -0.850  11.695  19.147  0.00  0.00    +0.000 A 
ATOM     11  H   UNL     1       1.624   9.061  21.845  0.00  0.00    +0.000 HD
ENDROOT
BRANCH   4  12
ATOM     12  C   UNL     1       1.761   7.559  20.483  0.00  0.00    +0.000 A 
ATOM     13  C   UNL     1       2.536   7.670  19.328  0.00  0.00    +0.000 A 
ATOM     14  C   UNL     1       3.045   6.537  18.688  0.00  0.00    +0.000 A 
ATOM     15  C   UNL     1       2.801   5.246  19.170  0.00  0.00    +0.000 A 
ATOM     16  C   UNL     1       2.075   5.149  20.363  0.00  0.00    +0.000 A 
ATOM     17  C   UNL     1       1.564   6.284  21.012  0.00  0.00    +0.000 A 
BRANCH  15  18
ATOM     18  N   UNL     1       3.277   4.146  18.486  0.00  0.00    +0.000 N 
ATOM     19  C   UNL     1       4.503   3.436  18.871  0.00  0.00    +0.000 C 
ATOM     20  C   UNL     1       4.187   2.018  19.389  0.00  0.00    +0.000 C 
ATOM     21  N   UNL     1       3.387   1.220  18.439  0.00  0.00    +0.000 NA
ATOM     22  C   UNL     1       2.146   1.955  18.121  0.00  0.00    +0.000 C 
ATOM     23  C   UNL     1       2.383   3.389  17.590  0.00  0.00    +0.000 C 
ATOM     24  H   UNL     1       3.146   0.330  18.870  0.00  0.00    +0.000 HD
ENDBRANCH  15  18
ENDBRANCH   4  12
BRANCH   1  25
ATOM     25  O   UNL     1       0.497  13.233  20.487  0.00  0.00    +0.000 OA
BRANCH  25  33
ATOM     26  C   UNL     1       2.444  12.178  18.160  0.00  0.00    +0.000 C 
ATOM     27  C   UNL     1       2.426  13.495  18.874  0.00  0.00    +0.000 A 
ATOM     28  C   UNL     1       3.472  14.339  18.449  0.00  0.00    +0.000 A 
ATOM     29  C   UNL     1       3.671  15.602  18.980  0.00  0.00    +0.000 A 
ATOM     30  C   UNL     1       2.784  16.057  19.948  0.00  0.00    +0.000 A 
ATOM     31  C   UNL     1       1.702  15.256  20.384  0.00  0.00    +0.000 A 
ATOM     32  C   UNL     1       0.787  15.835  21.435  0.00  0.00    +0.000 C 
ATOM     33  C   UNL     1       1.504  13.953  19.847  0.00  0.00    +0.000 A 
BRANCH  29  34
ATOM     34  C   UNL     1       4.834  16.340  18.483  0.00  0.00    +0.000 C 
ATOM     35  C   UNL     1       5.921  16.511  19.231  0.00  0.00    +0.000 C 
BRANCH  35  36
ATOM     36  C   UNL     1       7.131  17.311  18.776  0.00  0.00    +0.000 C 
ATOM     37  N   UNL     1       8.136  17.973  18.399  0.00  0.00    +0.000 NA
ENDBRANCH  35  36
ENDBRANCH  29  34
ENDBRANCH  25  33
ENDBRANCH   1  25
TORSDOF 6
ENDMDL
MODEL 5
REMARK VINA RESULT:      -7.5      5.370      9.806
REMARK  Name = 
REMARK  8 active torsions:
REMARK  status: ('A' for Active; 'I' for Inactive)
REMARK    1  A    between atoms: C_1  and  C_2
REMARK    2  A    between atoms: C_4  and  C_5
REMARK    3  A    between atoms: C_6  and  C_7
REMARK    4  A    between atoms: C_10  and  C_11
REMARK    5  A    between atoms: C_12  and  O_13
REMARK    6  A    between atoms: O_13  and  C_14
REMARK    7  A    between atoms: N_17  and  C_18
REMARK    8  A    between atoms: C_21  and  N_22
REMARK                            x       y       z     vdW  Elec       q    Type
REMARK                         _______ _______ _______ _____ _____    ______ ____
ROOT
ATOM      1  C   UNL     1      -0.187  13.291  19.423  0.00  0.00    +0.000 A 
ATOM      2  N   UNL     1      -0.251  12.063  18.884  0.00  0.00    +0.000 NA
ATOM      3  C   UNL     1       0.847  11.435  18.464  0.00  0.00    +0.000 A 
ATOM      4  N   UNL     1       0.683  10.087  18.136  0.00  0.00    +0.000 N 
ATOM      5  N   UNL     1       2.051  11.997  18.401  0.00  0.00    +0.000 NA
ATOM      6  C   UNL     1       2.075  13.273  18.790  0.00  0.00    +0.000 A 
ATOM      7  S   UNL     1       3.525  14.157  18.666  0.00  0.00    +0.000 S 
ATOM      8  C   UNL     1       2.766  15.564  19.278  0.00  0.00    +0.000 A 
ATOM      9  C   UNL     1       1.440  15.344  19.599  0.00  0.00    +0.000 A 
ATOM     10  C   UNL     1       1.014  14.004  19.305  0.00  0.00    +0.000 A 
ATOM     11  H   UNL     1      -0.299   9.856  18.119  0.00  0.00    +0.000 HD
ENDROOT
BRANCH   4  12
ATOM     12  C   UNL     1       1.508   9.018  18.523  0.00  0.00    +0.000 A 
ATOM     13  C   UNL     1       2.407   8.400  17.653  0.00  0.00    +0.000 A 
ATOM     14  C   UNL     1       3.103   7.250  18.031  0.00  0.00    +0.000 A 
ATOM     15  C   UNL     1       2.932   6.665  19.291  0.00  0.00    +0.000 A 
ATOM     16  C   UNL     1       2.075   7.327  20.178  0.00  0.00    +0.000 A 
ATOM     17  C   UNL     1       1.374   8.485  19.805  0.00  0.00    +0.000 A 
BRANCH  15  18
ATOM     18  N   UNL     1       3.599   5.501  19.615  0.00  0.00    +0.000 N 
ATOM     19  C   UNL     1       2.906   4.259  19.981  0.00  0.00    +0.000 C 
ATOM     20  C   UNL     1       3.108   3.170  18.907  0.00  0.00    +0.000 C 
ATOM     21  N   UNL     1       4.530   2.916  18.603  0.00  0.00    +0.000 NA
ATOM     22  C   UNL     1       5.168   4.184  18.195  0.00  0.00    +0.000 C 
ATOM     23  C   UNL     1       5.011   5.327  19.227  0.00  0.00    +0.000 C 
ATOM     24  H   UNL     1       4.594   2.249  17.836  0.00  0.00    +0.000 HD
ENDBRANCH  15  18
ENDBRANCH   4  12
BRANCH   1  25
ATOM     25  O   UNL     1      -1.357  13.889  19.890  0.00  0.00    +0.000 OA
BRANCH  25  33
ATOM     26  C   UNL     1      -1.442  16.977  20.769  0.00  0.00    +0.000 C 
ATOM     27  C   UNL     1      -1.430  15.738  21.612  0.00  0.00    +0.000 A 
ATOM     28  C   UNL     1      -1.407  16.038  22.990  0.00  0.00    +0.000 A 
ATOM     29  C   UNL     1      -1.373  15.055  23.965  0.00  0.00    +0.000 A 
ATOM     30  C   UNL     1      -1.390  13.726  23.560  0.00  0.00    +0.000 A 
ATOM     31  C   UNL     1      -1.443  13.378  22.189  0.00  0.00    +0.000 A 
ATOM     32  C   UNL     1      -1.462  11.909  21.845  0.00  0.00    +0.000 C 
ATOM     33  C   UNL     1      -1.465  14.388  21.187  0.00  0.00    +0.000 A 
BRANCH  29  34
ATOM     34  C   UNL     1      -1.293  15.518  25.351  0.00  0.00    +0.000 C 
ATOM     35  C   UNL     1      -0.486  16.515  25.706  0.00  0.00    +0.000 C 
BRANCH  35  36
ATOM     36  C   UNL     1      -0.332  16.997  27.139  0.00  0.00    +0.000 C 
ATOM     37  N   UNL     1      -0.204  17.396  28.329  0.00  0.00    +0.000 NA
ENDBRANCH  35  36
ENDBRANCH  29  34
ENDBRANCH  25  33
ENDBRANCH   1  25
TORSDOF 6
ENDMDL
MODEL 6
REMARK VINA RESULT:      -7.4      4.428      9.147
REMARK  Name = 
REMARK  8 active torsions:
REMARK  status: ('A' for Active; 'I' for Inactive)
REMARK    1  A    between atoms: C_1  and  C_2
REMARK    2  A    between atoms: C_4  and  C_5
REMARK    3  A    between atoms: C_6  and  C_7
REMARK    4  A    between atoms: C_10  and  C_11
REMARK    5  A    between atoms: C_12  and  O_13
REMARK    6  A    between atoms: O_13  and  C_14
REMARK    7  A    between atoms: N_17  and  C_18
REMARK    8  A    between atoms: C_21  and  N_22
REMARK                            x       y       z     vdW  Elec       q    Type
REMARK                         _______ _______ _______ _____ _____    ______ ____
ROOT
ATOM      1  C   UNL     1       4.043   5.677  19.270  0.00  0.00    +0.000 A 
ATOM      2  N   UNL     1       3.307   6.730  18.879  0.00  0.00    +0.000 NA
ATOM      3  C   UNL     1       2.076   6.927  19.352  0.00  0.00    +0.000 A 
ATOM      4  N   UNL     1       1.504   8.164  19.049  0.00  0.00    +0.000 N 
ATOM      5  N   UNL     1       1.421   6.056  20.115  0.00  0.00    +0.000 NA
ATOM      6  C   UNL     1       2.103   4.937  20.368  0.00  0.00    +0.000 A 
ATOM      7  S   UNL     1       1.354   3.683  21.245  0.00  0.00    +0.000 S 
ATOM      8  C   UNL     1       2.753   2.705  21.116  0.00  0.00    +0.000 A 
ATOM      9  C   UNL     1       3.779   3.344  20.445  0.00  0.00    +0.000 A 
ATOM     10  C   UNL     1       3.406   4.655  19.985  0.00  0.00    +0.000 A 
ATOM     11  H   UNL     1       2.072   8.647  18.369  0.00  0.00    +0.000 HD
ENDROOT
BRANCH   4  12
ATOM     12  C   UNL     1       0.832   9.023  19.935  0.00  0.00    +0.000 A 
ATOM     13  C   UNL     1      -0.134   9.939  19.516  0.00  0.00    +0.000 A 
ATOM     14  C   UNL     1      -0.674  10.874  20.403  0.00  0.00    +0.000 A 
ATOM     15  C   UNL     1      -0.273  10.938  21.743  0.00  0.00    +0.000 A 
ATOM     16  C   UNL     1       0.651   9.974  22.167  0.00  0.00    +0.000 A 
ATOM     17  C   UNL     1       1.195   9.031  21.281  0.00  0.00    +0.000 A 
BRANCH  15  18
ATOM     18  N   UNL     1      -0.791  11.905  22.579  0.00  0.00    +0.000 N 
ATOM     19  C   UNL     1      -0.455  13.329  22.458  0.00  0.00    +0.000 C 
ATOM     20  C   UNL     1      -1.678  14.154  22.008  0.00  0.00    +0.000 C 
ATOM     21  N   UNL     1      -2.857  13.958  22.873  0.00  0.00    +0.000 NA
ATOM     22  C   UNL     1      -3.182  12.518  22.924  0.00  0.00    +0.000 C 
ATOM     23  C   UNL     1      -2.001  11.623  23.374  0.00  0.00    +0.000 C 
ATOM     24  H   UNL     1      -3.649  14.464  22.480  0.00  0.00    +0.000 HD
ENDBRANCH  15  18
ENDBRANCH   4  12
BRANCH   1  25
ATOM     25  O   UNL     1       5.341   5.539  18.782  0.00  0.00    +0.000 OA
BRANCH  25  33
ATOM     26  C   UNL     1       3.656   3.542  16.913  0.00  0.00    +0.000 C 
ATOM     27  C   UNL     1       4.923   4.289  16.625  0.00  0.00    +0.000 A 
ATOM     28  C   UNL     1       5.429   3.994  15.342  0.00  0.00    +0.000 A 
ATOM     29  C   UNL     1       6.601   4.549  14.858  0.00  0.00    +0.000 A 
ATOM     30  C   UNL     1       7.284   5.450  15.665  0.00  0.00    +0.000 A 
ATOM     31  C   UNL     1       6.799   5.799  16.948  0.00  0.00    +0.000 A 
ATOM     32  C   UNL     1       7.606   6.790  17.751  0.00  0.00    +0.000 C 
ATOM     33  C   UNL     1       5.601   5.219  17.451  0.00  0.00    +0.000 A 
BRANCH  29  34
ATOM     34  C   UNL     1       7.031   4.104  13.532  0.00  0.00    +0.000 C 
ATOM     35  C   UNL     1       6.435   3.089  12.911  0.00  0.00    +0.000 C 
BRANCH  35  36
ATOM     36  C   UNL     1       6.878   2.560  11.557  0.00  0.00    +0.000 C 
ATOM     37  N   UNL     1       7.246   2.120  10.434  0.00  0.00    +0.000 NA
ENDBRANCH  35  36
ENDBRANCH  29  34
ENDBRANCH  25  33
ENDBRANCH   1  25
TORSDOF 6
ENDMDL
MODEL 7
REMARK VINA RESULT:      -7.4      6.075      8.872
REMARK  Name = 
REMARK  8 active torsions:
REMARK  status: ('A' for Active; 'I' for Inactive)
REMARK    1  A    between atoms: C_1  and  C_2
REMARK    2  A    between atoms: C_4  and  C_5
REMARK    3  A    between atoms: C_6  and  C_7
REMARK    4  A    between atoms: C_10  and  C_11
REMARK    5  A    between atoms: C_12  and  O_13
REMARK    6  A    between atoms: O_13  and  C_14
REMARK    7  A    between atoms: N_17  and  C_18
REMARK    8  A    between atoms: C_21  and  N_22
REMARK                            x       y       z     vdW  Elec       q    Type
REMARK                         _______ _______ _______ _____ _____    ______ ____
ROOT
ATOM      1  C   UNL     1      -0.437  12.750  20.660  0.00  0.00    +0.000 A 
ATOM      2  N   UNL     1       0.325  13.164  19.634  0.00  0.00    +0.000 NA
ATOM      3  C   UNL     1       1.081  14.258  19.732  0.00  0.00    +0.000 A 
ATOM      4  N   UNL     1       1.992  14.456  18.693  0.00  0.00    +0.000 N 
ATOM      5  N   UNL     1       1.045  15.101  20.761  0.00  0.00    +0.000 NA
ATOM      6  C   UNL     1       0.165  14.765  21.707  0.00  0.00    +0.000 A 
ATOM      7  S   UNL     1      -0.069  15.804  23.036  0.00  0.00    +0.000 S 
ATOM      8  C   UNL     1      -1.258  14.761  23.691  0.00  0.00    +0.000 A 
ATOM      9  C   UNL     1      -1.442  13.628  22.921  0.00  0.00    +0.000 A 
ATOM     10  C   UNL     1      -0.621  13.622  21.741  0.00  0.00    +0.000 A 
ATOM     11  H   UNL     1       1.805  13.806  17.944  0.00  0.00    +0.000 HD
ENDROOT
BRANCH   4  12
ATOM     12  C   UNL     1       3.348  14.802  18.814  0.00  0.00    +0.000 A 
ATOM     13  C   UNL     1       4.149  15.128  17.718  0.00  0.00    +0.000 A 
ATOM     14  C   UNL     1       5.524  15.324  17.863  0.00  0.00    +0.000 A 
ATOM     15  C   UNL     1       6.161  15.203  19.103  0.00  0.00    +0.000 A 
ATOM     16  C   UNL     1       5.339  14.938  20.206  0.00  0.00    +0.000 A 
ATOM     17  C   UNL     1       3.956  14.742  20.068  0.00  0.00    +0.000 A 
BRANCH  15  18
ATOM     18  N   UNL     1       7.528  15.356  19.202  0.00  0.00    +0.000 N 
ATOM     19  C   UNL     1       8.227  15.487  20.487  0.00  0.00    +0.000 C 
ATOM     20  C   UNL     1       9.115  14.257  20.767  0.00  0.00    +0.000 C 
ATOM     21  N   UNL     1      10.064  13.969  19.674  0.00  0.00    +0.000 NA
ATOM     22  C   UNL     1       9.310  13.799  18.415  0.00  0.00    +0.000 C 
ATOM     23  C   UNL     1       8.396  14.999  18.064  0.00  0.00    +0.000 C 
ATOM     24  H   UNL     1      10.562  13.106  19.882  0.00  0.00    +0.000 HD
ENDBRANCH  15  18
ENDBRANCH   4  12
BRANCH   1  25
ATOM     25  O   UNL     1      -1.174  11.575  20.526  0.00  0.00    +0.000 OA
BRANCH  25  33
ATOM     26  C   UNL     1       0.163   9.776  18.225  0.00  0.00    +0.000 C 
ATOM     27  C   UNL     1      -1.164  10.472  18.251  0.00  0.00    +0.000 A 
ATOM     28  C   UNL     1      -1.865  10.316  17.037  0.00  0.00    +0.000 A 
ATOM     29  C   UNL     1      -3.107  10.886  16.816  0.00  0.00    +0.000 A 
ATOM     30  C   UNL     1      -3.687  11.617  17.846  0.00  0.00    +0.000 A 
ATOM     31  C   UNL     1      -3.034  11.775  19.091  0.00  0.00    +0.000 A 
ATOM     32  C   UNL     1      -3.744  12.581  20.151  0.00  0.00    +0.000 C 
ATOM     33  C   UNL     1      -1.752  11.199  19.314  0.00  0.00    +0.000 A 
BRANCH  29  34
ATOM     34  C   UNL     1      -3.686  10.686  15.487  0.00  0.00    +0.000 C 
ATOM     35  C   UNL     1      -3.032  10.025  14.535  0.00  0.00    +0.000 C 
BRANCH  35  36
ATOM     36  C   UNL     1      -3.572   9.836  13.127  0.00  0.00    +0.000 C 
ATOM     37  N   UNL     1      -4.020   9.680  11.958  0.00  0.00    +0.000 NA
ENDBRANCH  35  36
ENDBRANCH  29  34
ENDBRANCH  25  33
ENDBRANCH   1  25
TORSDOF 6
ENDMDL
MODEL 8
REMARK VINA RESULT:      -7.4      5.508      9.741
REMARK  Name = 
REMARK  8 active torsions:
REMARK  status: ('A' for Active; 'I' for Inactive)
REMARK    1  A    between atoms: C_1  and  C_2
REMARK    2  A    between atoms: C_4  and  C_5
REMARK    3  A    between atoms: C_6  and  C_7
REMARK    4  A    between atoms: C_10  and  C_11
REMARK    5  A    between atoms: C_12  and  O_13
REMARK    6  A    between atoms: O_13  and  C_14
REMARK    7  A    between atoms: N_17  and  C_18
REMARK    8  A    between atoms: C_21  and  N_22
REMARK                            x       y       z     vdW  Elec       q    Type
REMARK                         _______ _______ _______ _____ _____    ______ ____
ROOT
ATOM      1  C   UNL     1      -1.469  12.243  19.696  0.00  0.00    +0.000 A 
ATOM      2  N   UNL     1      -0.582  11.414  20.272  0.00  0.00    +0.000 NA
ATOM      3  C   UNL     1      -0.446  10.154  19.859  0.00  0.00    +0.000 A 
ATOM      4  N   UNL     1       0.653   9.465  20.376  0.00  0.00    +0.000 N 
ATOM      5  N   UNL     1      -1.246   9.568  18.972  0.00  0.00    +0.000 NA
ATOM      6  C   UNL     1      -2.226  10.354  18.522  0.00  0.00    +0.000 A 
ATOM      7  S   UNL     1      -3.392   9.711  17.460  0.00  0.00    +0.000 S 
ATOM      8  C   UNL     1      -4.218  11.209  17.398  0.00  0.00    +0.000 A 
ATOM      9  C   UNL     1      -3.590  12.184  18.150  0.00  0.00    +0.000 A 
ATOM     10  C   UNL     1      -2.423  11.693  18.830  0.00  0.00    +0.000 A 
ATOM     11  H   UNL     1       1.076  10.003  21.118  0.00  0.00    +0.000 HD
ENDROOT
BRANCH   4  12
ATOM     12  C   UNL     1       1.567   8.676  19.659  0.00  0.00    +0.000 A 
ATOM     13  C   UNL     1       2.034   9.019  18.390  0.00  0.00    +0.000 A 
ATOM     14  C   UNL     1       2.827   8.139  17.650  0.00  0.00    +0.000 A 
ATOM     15  C   UNL     1       3.188   6.879  18.142  0.00  0.00    +0.000 A 
ATOM     16  C   UNL     1       2.766   6.570  19.441  0.00  0.00    +0.000 A 
ATOM     17  C   UNL     1       1.971   7.451  20.190  0.00  0.00    +0.000 A 
BRANCH  15  18
ATOM     18  N   UNL     1       3.932   6.015  17.365  0.00  0.00    +0.000 N 
ATOM     19  C   UNL     1       5.218   6.388  16.764  0.00  0.00    +0.000 C 
ATOM     20  C   UNL     1       6.381   5.598  17.399  0.00  0.00    +0.000 C 
ATOM     21  N   UNL     1       6.178   4.137  17.355  0.00  0.00    +0.000 NA
ATOM     22  C   UNL     1       4.897   3.810  18.013  0.00  0.00    +0.000 C 
ATOM     23  C   UNL     1       3.678   4.563  17.425  0.00  0.00    +0.000 C 
ATOM     24  H   UNL     1       6.936   3.679  17.857  0.00  0.00    +0.000 HD
ENDBRANCH  15  18
ENDBRANCH   4  12
BRANCH   1  25
ATOM     25  O   UNL     1      -1.542  13.565  20.131  0.00  0.00    +0.000 OA
BRANCH  25  33
ATOM     26  C   UNL     1      -3.605  12.692  22.434  0.00  0.00    +0.000 C 
ATOM     27  C   UNL     1      -2.412  13.597  22.505  0.00  0.00    +0.000 A 
ATOM     28  C   UNL     1      -2.250  14.156  23.789  0.00  0.00    +0.000 A 
ATOM     29  C   UNL     1      -1.228  15.039  24.093  0.00  0.00    +0.000 A 
ATOM     30  C   UNL     1      -0.318  15.361  23.093  0.00  0.00    +0.000 A 
ATOM     31  C   UNL     1      -0.424  14.802  21.798  0.00  0.00    +0.000 A 
ATOM     32  C   UNL     1       0.613  15.206  20.779  0.00  0.00    +0.000 C 
ATOM     33  C   UNL     1      -1.482  13.903  21.482  0.00  0.00    +0.000 A 
BRANCH  29  34
ATOM     34  C   UNL     1      -1.221  15.582  25.452  0.00  0.00    +0.000 C 
ATOM     35  C   UNL     1      -0.364  16.533  25.817  0.00  0.00    +0.000 C 
BRANCH  35  36
ATOM     36  C   UNL     1      -0.286  17.091  27.228  0.00  0.00    +0.000 C 
ATOM     37  N   UNL     1      -0.220  17.554  28.400  0.00  0.00    +0.000 NA
ENDBRANCH  35  36
ENDBRANCH  29  34
ENDBRANCH  25  33
ENDBRANCH   1  25
TORSDOF 6
ENDMDL
MODEL 9
REMARK VINA RESULT:      -7.4      5.561     10.111
REMARK  Name = 
REMARK  8 active torsions:
REMARK  status: ('A' for Active; 'I' for Inactive)
REMARK    1  A    between atoms: C_1  and  C_2
REMARK    2  A    between atoms: C_4  and  C_5
REMARK    3  A    between atoms: C_6  and  C_7
REMARK    4  A    between atoms: C_10  and  C_11
REMARK    5  A    between atoms: C_12  and  O_13
REMARK    6  A    between atoms: O_13  and  C_14
REMARK    7  A    between atoms: N_17  and  C_18
REMARK    8  A    between atoms: C_21  and  N_22
REMARK                            x       y       z     vdW  Elec       q    Type
REMARK                         _______ _______ _______ _____ _____    ______ ____
ROOT
ATOM      1  C   UNL     1       0.896  14.656  19.823  0.00  0.00    +0.000 A 
ATOM      2  N   UNL     1       0.306  13.530  19.388  0.00  0.00    +0.000 NA
ATOM      3  C   UNL     1       0.998  12.592  18.742  0.00  0.00    +0.000 A 
ATOM      4  N   UNL     1       0.333  11.381  18.543  0.00  0.00    +0.000 N 
ATOM      5  N   UNL     1       2.260  12.736  18.346  0.00  0.00    +0.000 NA
ATOM      6  C   UNL     1       2.790  13.924  18.643  0.00  0.00    +0.000 A 
ATOM      7  S   UNL     1       4.364  14.294  18.108  0.00  0.00    +0.000 S 
ATOM      8  C   UNL     1       4.279  15.853  18.811  0.00  0.00    +0.000 A 
ATOM      9  C   UNL     1       3.082  16.065  19.468  0.00  0.00    +0.000 A 
ATOM     10  C   UNL     1       2.188  14.944  19.366  0.00  0.00    +0.000 A 
ATOM     11  H   UNL     1      -0.641  11.481  18.786  0.00  0.00    +0.000 HD
ENDROOT
BRANCH   4  12
ATOM     12  C   UNL     1       0.842  10.092  18.769  0.00  0.00    +0.000 A 
ATOM     13  C   UNL     1       0.819   9.476  20.022  0.00  0.00    +0.000 A 
ATOM     14  C   UNL     1       1.463   8.256  20.238  0.00  0.00    +0.000 A 
ATOM     15  C   UNL     1       2.160   7.598  19.218  0.00  0.00    +0.000 A 
ATOM     16  C   UNL     1       2.125   8.193  17.951  0.00  0.00    +0.000 A 
ATOM     17  C   UNL     1       1.477   9.418  17.727  0.00  0.00    +0.000 A 
BRANCH  15  18
ATOM     18  N   UNL     1       2.827   6.419  19.479  0.00  0.00    +0.000 N 
ATOM     19  C   UNL     1       2.259   5.346  20.304  0.00  0.00    +0.000 C 
ATOM     20  C   UNL     1       1.954   4.093  19.458  0.00  0.00    +0.000 C 
ATOM     21  N   UNL     1       3.123   3.613  18.694  0.00  0.00    +0.000 NA
ATOM     22  C   UNL     1       3.627   4.713  17.846  0.00  0.00    +0.000 C 
ATOM     23  C   UNL     1       3.959   6.007  18.628  0.00  0.00    +0.000 C 
ATOM     24  H   UNL     1       2.838   2.838  18.099  0.00  0.00    +0.000 HD
ENDBRANCH  15  18
ENDBRANCH   4  12
BRANCH   1  25
ATOM     25  O   UNL     1       0.140  15.586  20.535  0.00  0.00    +0.000 OA
BRANCH  25  33
ATOM     26  C   UNL     1      -0.504  13.256  22.651  0.00  0.00    +0.000 C 
ATOM     27  C   UNL     1      -1.432  14.203  21.952  0.00  0.00    +0.000 A 
ATOM     28  C   UNL     1      -2.781  13.954  22.278  0.00  0.00    +0.000 A 
ATOM     29  C   UNL     1      -3.824  14.689  21.740  0.00  0.00    +0.000 A 
ATOM     30  C   UNL     1      -3.516  15.726  20.867  0.00  0.00    +0.000 A 
ATOM     31  C   UNL     1      -2.175  16.030  20.534  0.00  0.00    +0.000 A 
ATOM     32  C   UNL     1      -1.938  17.176  19.582  0.00  0.00    +0.000 C 
ATOM     33  C   UNL     1      -1.104  15.267  21.078  0.00  0.00    +0.000 A 
BRANCH  29  34
ATOM     34  C   UNL     1      -5.175  14.279  22.125  0.00  0.00    +0.000 C 
ATOM     35  C   UNL     1      -5.394  13.541  23.212  0.00  0.00    +0.000 C 
BRANCH  35  36
ATOM     36  C   UNL     1      -6.772  13.050  23.624  0.00  0.00    +0.000 C 
ATOM     37  N   UNL     1      -7.916  12.644  23.967  0.00  0.00    +0.000 NA
ENDBRANCH  35  36
ENDBRANCH  29  34
ENDBRANCH  25  33
ENDBRANCH   1  25
TORSDOF 6
ENDMDL
