MODEL 1
REMARK VINA RESULT:      -9.0      0.000      0.000
REMARK  Name = 
REMARK  6 active torsions:
REMARK  status: ('A' for Active; 'I' for Inactive)
REMARK    1  A    between atoms: C_1  and  C_2
REMARK    2  A    between atoms: C_5  and  C_6
REMARK    3  A    between atoms: C_7  and  C_8
REMARK    4  A    between atoms: N_10  and  C_11
REMARK    5  A    between atoms: C_20  and  C_21
REMARK    6  A    between atoms: C_25  and  C_26
REMARK                            x       y       z     vdW  Elec       q    Type
REMARK                         _______ _______ _______ _____ _____    ______ ____
ROOT
ATOM      1  C   UNL     1       0.963   8.984  20.876  0.00  0.00    +0.000 A 
ATOM      2  C   UNL     1       0.774   8.908  22.254  0.00  0.00    +0.000 A 
ATOM      3  C   UNL     1      -0.120   9.768  22.903  0.00  0.00    +0.000 A 
ATOM      4  C   UNL     1      -0.865  10.713  22.217  0.00  0.00    +0.000 A 
ATOM      5  N   UNL     1      -1.700  11.514  22.910  0.00  0.00    +0.000 NA
ATOM      6  C   UNL     1      -2.428  12.445  22.257  0.00  0.00    +0.000 A 
ATOM      7  N   UNL     1      -3.262  13.293  22.949  0.00  0.00    +0.000 N 
ATOM      8  C   UNL     1      -3.775  12.937  24.263  0.00  0.00    +0.000 C 
ATOM      9  C   UNL     1      -5.288  13.203  24.251  0.00  0.00    +0.000 C 
ATOM     10  C   UNL     1      -5.622  14.638  23.799  0.00  0.00    +0.000 C 
ATOM     11  C   UNL     1      -7.131  14.828  23.669  0.00  0.00    +0.000 C 
ATOM     12  C   UNL     1      -4.925  14.976  22.470  0.00  0.00    +0.000 C 
ATOM     13  C   UNL     1      -3.429  14.686  22.550  0.00  0.00    +0.000 C 
ATOM     14  C   UNL     1      -2.364  12.525  20.870  0.00  0.00    +0.000 A 
ATOM     15  C   UNL     1      -1.503  11.713  20.130  0.00  0.00    +0.000 A 
ATOM     16  C   UNL     1      -1.488  11.862  18.636  0.00  0.00    +0.000 C 
ATOM     17  C   UNL     1      -0.702  10.785  20.815  0.00  0.00    +0.000 A 
ATOM     18  C   UNL     1       0.227   9.931  20.166  0.00  0.00    +0.000 A 
ENDROOT
BRANCH   1  21
ATOM     19  C   UNL     1       1.959   6.787  20.292  0.00  0.00    +0.000 C 
ATOM     20  O   UNL     1       1.211   6.073  20.959  0.00  0.00    +0.000 OA
ATOM     21  N   UNL     1       1.873   8.161  20.171  0.00  0.00    +0.000 N 
ATOM     22  H   UNL     1       2.457   8.615  19.485  0.00  0.00    +0.000 HD
BRANCH  19  24
ATOM     23  C   UNL     1       3.033   6.361  18.157  0.00  0.00    +0.000 C 
ATOM     24  C   UNL     1       3.053   6.181  19.490  0.00  0.00    +0.000 C 
BRANCH  23  29
ATOM     25  C   UNL     1       6.764   4.083  14.366  0.00  0.00    +0.000 C 
ATOM     26  C   UNL     1       5.803   4.670  15.358  0.00  0.00    +0.000 A 
ATOM     27  C   UNL     1       5.037   3.854  16.195  0.00  0.00    +0.000 A 
ATOM     28  C   UNL     1       4.143   4.422  17.107  0.00  0.00    +0.000 A 
ATOM     29  C   UNL     1       4.008   5.814  17.207  0.00  0.00    +0.000 A 
ATOM     30  C   UNL     1       4.763   6.625  16.354  0.00  0.00    +0.000 A 
ATOM     31  C   UNL     1       5.656   6.059  15.442  0.00  0.00    +0.000 A 
ENDBRANCH  23  29
ENDBRANCH  19  24
ENDBRANCH   1  21
TORSDOF 3
ENDMDL
MODEL 2
REMARK VINA RESULT:      -8.4      2.016     11.700
REMARK  Name = 
REMARK  6 active torsions:
REMARK  status: ('A' for Active; 'I' for Inactive)
REMARK    1  A    between atoms: C_1  and  C_2
REMARK    2  A    between atoms: C_5  and  C_6
REMARK    3  A    between atoms: C_7  and  C_8
REMARK    4  A    between atoms: N_10  and  C_11
REMARK    5  A    between atoms: C_20  and  C_21
REMARK    6  A    between atoms: C_25  and  C_26
REMARK                            x       y       z     vdW  Elec       q    Type
REMARK                         _______ _______ _______ _____ _____    ______ ____
ROOT
ATOM      1  C   UNL     1       0.377   9.802  19.980  0.00  0.00    +0.000 A 
ATOM      2  C   UNL     1       0.895  10.474  18.876  0.00  0.00    +0.000 A 
ATOM      3  C   UNL     1       1.891   9.890  18.083  0.00  0.00    +0.000 A 
ATOM      4  C   UNL     1       2.392   8.625  18.341  0.00  0.00    +0.000 A 
ATOM      5  N   UNL     1       3.358   8.130  17.540  0.00  0.00    +0.000 NA
ATOM      6  C   UNL     1       3.862   6.902  17.782  0.00  0.00    +0.000 A 
ATOM      7  N   UNL     1       4.869   6.391  16.996  0.00  0.00    +0.000 N 
ATOM      8  C   UNL     1       5.087   6.877  15.641  0.00  0.00    +0.000 C 
ATOM      9  C   UNL     1       5.221   5.648  14.730  0.00  0.00    +0.000 C 
ATOM     10  C   UNL     1       6.291   4.663  15.237  0.00  0.00    +0.000 C 
ATOM     11  C   UNL     1       6.306   3.394  14.388  0.00  0.00    +0.000 C 
ATOM     12  C   UNL     1       6.064   4.312  16.718  0.00  0.00    +0.000 C 
ATOM     13  C   UNL     1       5.937   5.575  17.564  0.00  0.00    +0.000 C 
ATOM     14  C   UNL     1       3.337   6.129  18.811  0.00  0.00    +0.000 A 
ATOM     15  C   UNL     1       2.343   6.620  19.660  0.00  0.00    +0.000 A 
ATOM     16  C   UNL     1       1.829   5.727  20.751  0.00  0.00    +0.000 C 
ATOM     17  C   UNL     1       1.860   7.921  19.444  0.00  0.00    +0.000 A 
ATOM     18  C   UNL     1       0.871   8.529  20.261  0.00  0.00    +0.000 A 
ENDROOT
BRANCH   1  21
ATOM     19  C   UNL     1      -0.408  11.417  21.692  0.00  0.00    +0.000 C 
ATOM     20  O   UNL     1       0.618  12.089  21.782  0.00  0.00    +0.000 OA
ATOM     21  N   UNL     1      -0.608  10.353  20.833  0.00  0.00    +0.000 N 
ATOM     22  H   UNL     1      -1.539   9.973  20.755  0.00  0.00    +0.000 HD
BRANCH  19  24
ATOM     23  C   UNL     1      -2.691  12.214  21.907  0.00  0.00    +0.000 C 
ATOM     24  C   UNL     1      -1.593  11.745  22.526  0.00  0.00    +0.000 C 
BRANCH  23  29
ATOM     25  C   UNL     1      -7.694  13.737  24.384  0.00  0.00    +0.000 C 
ATOM     26  C   UNL     1      -6.395  13.353  23.739  0.00  0.00    +0.000 A 
ATOM     27  C   UNL     1      -6.192  13.512  22.366  0.00  0.00    +0.000 A 
ATOM     28  C   UNL     1      -4.976  13.142  21.785  0.00  0.00    +0.000 A 
ATOM     29  C   UNL     1      -3.938  12.618  22.568  0.00  0.00    +0.000 A 
ATOM     30  C   UNL     1      -4.151  12.444  23.939  0.00  0.00    +0.000 A 
ATOM     31  C   UNL     1      -5.367  12.813  24.520  0.00  0.00    +0.000 A 
ENDBRANCH  23  29
ENDBRANCH  19  24
ENDBRANCH   1  21
TORSDOF 3
ENDMDL
MODEL 3
REMARK VINA RESULT:      -8.3      2.270      2.624
REMARK  Name = 
REMARK  6 active torsions:
REMARK  status: ('A' for Active; 'I' for Inactive)
REMARK    1  A    between atoms: C_1  and  C_2
REMARK    2  A    between atoms: C_5  and  C_6
REMARK    3  A    between atoms: C_7  and  C_8
REMARK    4  A    between atoms: N_10  and  C_11
REMARK    5  A    between atoms: C_20  and  C_21
REMARK    6  A    between atoms: C_25  and  C_26
REMARK                            x       y       z     vdW  Elec       q    Type
REMARK                         _______ _______ _______ _____ _____    ______ ____
ROOT
ATOM      1  C   UNL     1       0.590  10.391  20.257  0.00  0.00    +0.000 A 
ATOM      2  C   UNL     1      -0.250   9.909  21.258  0.00  0.00    +0.000 A 
ATOM      3  C   UNL     1      -0.797  10.774  22.213  0.00  0.00    +0.000 A 
ATOM      4  C   UNL     1      -0.550  12.137  22.202  0.00  0.00    +0.000 A 
ATOM      5  N   UNL     1      -1.104  12.908  23.161  0.00  0.00    +0.000 NA
ATOM      6  C   UNL     1      -0.867  14.237  23.169  0.00  0.00    +0.000 A 
ATOM      7  N   UNL     1      -1.398  15.036  24.155  0.00  0.00    +0.000 N 
ATOM      8  C   UNL     1      -2.579  14.629  24.900  0.00  0.00    +0.000 C 
ATOM      9  C   UNL     1      -3.547  15.821  24.913  0.00  0.00    +0.000 C 
ATOM     10  C   UNL     1      -2.875  17.109  25.429  0.00  0.00    +0.000 C 
ATOM     11  C   UNL     1      -3.819  18.302  25.303  0.00  0.00    +0.000 C 
ATOM     12  C   UNL     1      -1.561  17.386  24.679  0.00  0.00    +0.000 C 
ATOM     13  C   UNL     1      -0.650  16.163  24.703  0.00  0.00    +0.000 C 
ATOM     14  C   UNL     1      -0.112  14.811  22.152  0.00  0.00    +0.000 A 
ATOM     15  C   UNL     1       0.479  14.035  21.154  0.00  0.00    +0.000 A 
ATOM     16  C   UNL     1       1.284  14.727  20.092  0.00  0.00    +0.000 C 
ATOM     17  C   UNL     1       0.281  12.644  21.179  0.00  0.00    +0.000 A 
ATOM     18  C   UNL     1       0.856  11.759  20.231  0.00  0.00    +0.000 A 
ENDROOT
BRANCH   1  21
ATOM     19  C   UNL     1       1.779   8.335  19.539  0.00  0.00    +0.000 C 
ATOM     20  O   UNL     1       1.786   7.750  20.621  0.00  0.00    +0.000 OA
ATOM     21  N   UNL     1       1.195   9.561  19.283  0.00  0.00    +0.000 N 
ATOM     22  H   UNL     1       1.135   9.869  18.325  0.00  0.00    +0.000 HD
BRANCH  19  24
ATOM     23  C   UNL     1       3.224   6.660  18.540  0.00  0.00    +0.000 C 
ATOM     24  C   UNL     1       2.403   7.708  18.345  0.00  0.00    +0.000 C 
BRANCH  23  29
ATOM     25  C   UNL     1       6.218   3.915  14.418  0.00  0.00    +0.000 C 
ATOM     26  C   UNL     1       5.435   4.631  15.479  0.00  0.00    +0.000 A 
ATOM     27  C   UNL     1       5.434   6.027  15.562  0.00  0.00    +0.000 A 
ATOM     28  C   UNL     1       4.703   6.673  16.562  0.00  0.00    +0.000 A 
ATOM     29  C   UNL     1       3.949   5.937  17.488  0.00  0.00    +0.000 A 
ATOM     30  C   UNL     1       3.968   4.541  17.413  0.00  0.00    +0.000 A 
ATOM     31  C   UNL     1       4.700   3.894  16.414  0.00  0.00    +0.000 A 
ENDBRANCH  23  29
ENDBRANCH  19  24
ENDBRANCH   1  21
TORSDOF 3
ENDMDL
MODEL 4
REMARK VINA RESULT:      -8.3      1.264      1.402
REMARK  Name = 
REMARK  6 active torsions:
REMARK  status: ('A' for Active; 'I' for Inactive)
REMARK    1  A    between atoms: C_1  and  C_2
REMARK    2  A    between atoms: C_5  and  C_6
REMARK    3  A    between atoms: C_7  and  C_8
REMARK    4  A    between atoms: N_10  and  C_11
REMARK    5  A    between atoms: C_20  and  C_21
REMARK    6  A    between atoms: C_25  and  C_26
REMARK                            x       y       z     vdW  Elec       q    Type
REMARK                         _______ _______ _______ _____ _____    ______ ____
ROOT
ATOM      1  C   UNL     1       0.995   8.780  20.885  0.00  0.00    +0.000 A 
ATOM      2  C   UNL     1       0.068   8.330  21.823  0.00  0.00    +0.000 A 
ATOM      3  C   UNL     1      -0.715   9.237  22.548  0.00  0.00    +0.000 A 
ATOM      4  C   UNL     1      -0.623  10.606  22.362  0.00  0.00    +0.000 A 
ATOM      5  N   UNL     1      -1.403  11.419  23.104  0.00  0.00    +0.000 NA
ATOM      6  C   UNL     1      -1.320  12.757  22.940  0.00  0.00    +0.000 A 
ATOM      7  N   UNL     1      -2.084  13.604  23.709  0.00  0.00    +0.000 N 
ATOM      8  C   UNL     1      -3.315  13.148  24.337  0.00  0.00    +0.000 C 
ATOM      9  C   UNL     1      -4.399  14.192  24.032  0.00  0.00    +0.000 C 
ATOM     10  C   UNL     1      -3.964  15.615  24.432  0.00  0.00    +0.000 C 
ATOM     11  C   UNL     1      -5.004  16.644  23.994  0.00  0.00    +0.000 C 
ATOM     12  C   UNL     1      -2.588  15.961  23.838  0.00  0.00    +0.000 C 
ATOM     13  C   UNL     1      -1.562  14.885  24.175  0.00  0.00    +0.000 C 
ATOM     14  C   UNL     1      -0.484  13.283  21.962  0.00  0.00    +0.000 A 
ATOM     15  C   UNL     1       0.339  12.464  21.186  0.00  0.00    +0.000 A 
ATOM     16  C   UNL     1       1.218  13.107  20.153  0.00  0.00    +0.000 C 
ATOM     17  C   UNL     1       0.296  11.076  21.398  0.00  0.00    +0.000 A 
ATOM     18  C   UNL     1       1.107  10.156  20.686  0.00  0.00    +0.000 A 
ENDROOT
BRANCH   1  21
ATOM     19  C   UNL     1       1.977   6.559  20.377  0.00  0.00    +0.000 C 
ATOM     20  O   UNL     1       1.344   5.896  21.197  0.00  0.00    +0.000 OA
ATOM     21  N   UNL     1       1.833   7.914  20.144  0.00  0.00    +0.000 N 
ATOM     22  H   UNL     1       2.309   8.314  19.350  0.00  0.00    +0.000 HD
BRANCH  19  24
ATOM     23  C   UNL     1       3.168   6.413  18.267  0.00  0.00    +0.000 C 
ATOM     24  C   UNL     1       2.978   5.903  19.497  0.00  0.00    +0.000 C 
BRANCH  23  29
ATOM     25  C   UNL     1       6.674   4.200  14.229  0.00  0.00    +0.000 C 
ATOM     26  C   UNL     1       5.771   4.769  15.284  0.00  0.00    +0.000 A 
ATOM     27  C   UNL     1       5.015   3.939  16.116  0.00  0.00    +0.000 A 
ATOM     28  C   UNL     1       4.176   4.491  17.088  0.00  0.00    +0.000 A 
ATOM     29  C   UNL     1       4.088   5.881  17.254  0.00  0.00    +0.000 A 
ATOM     30  C   UNL     1       4.832   6.708  16.407  0.00  0.00    +0.000 A 
ATOM     31  C   UNL     1       5.670   6.157  15.435  0.00  0.00    +0.000 A 
ENDBRANCH  23  29
ENDBRANCH  19  24
ENDBRANCH   1  21
TORSDOF 3
ENDMDL
MODEL 5
REMARK VINA RESULT:      -8.2      1.913      2.902
REMARK  Name = 
REMARK  6 active torsions:
REMARK  status: ('A' for Active; 'I' for Inactive)
REMARK    1  A    between atoms: C_1  and  C_2
REMARK    2  A    between atoms: C_5  and  C_6
REMARK    3  A    between atoms: C_7  and  C_8
REMARK    4  A    between atoms: N_10  and  C_11
REMARK    5  A    between atoms: C_20  and  C_21
REMARK    6  A    between atoms: C_25  and  C_26
REMARK                            x       y       z     vdW  Elec       q    Type
REMARK                         _______ _______ _______ _____ _____    ______ ____
ROOT
ATOM      1  C   UNL     1      -0.910  10.581  18.345  0.00  0.00    +0.000 A 
ATOM      2  C   UNL     1      -2.054  10.861  17.602  0.00  0.00    +0.000 A 
ATOM      3  C   UNL     1      -3.107  11.598  18.158  0.00  0.00    +0.000 A 
ATOM      4  C   UNL     1      -3.058  12.096  19.450  0.00  0.00    +0.000 A 
ATOM      5  N   UNL     1      -4.114  12.789  19.922  0.00  0.00    +0.000 NA
ATOM      6  C   UNL     1      -4.086  13.275  21.181  0.00  0.00    +0.000 A 
ATOM      7  N   UNL     1      -5.165  13.958  21.692  0.00  0.00    +0.000 N 
ATOM      8  C   UNL     1      -6.128  14.608  20.816  0.00  0.00    +0.000 C 
ATOM      9  C   UNL     1      -6.344  16.032  21.349  0.00  0.00    +0.000 C 
ATOM     10  C   UNL     1      -6.727  16.042  22.842  0.00  0.00    +0.000 C 
ATOM     11  C   UNL     1      -6.802  17.471  23.374  0.00  0.00    +0.000 C 
ATOM     12  C   UNL     1      -5.731  15.215  23.674  0.00  0.00    +0.000 C 
ATOM     13  C   UNL     1      -5.562  13.816  23.089  0.00  0.00    +0.000 C 
ATOM     14  C   UNL     1      -2.944  13.115  21.958  0.00  0.00    +0.000 A 
ATOM     15  C   UNL     1      -1.841  12.395  21.496  0.00  0.00    +0.000 A 
ATOM     16  C   UNL     1      -0.646  12.263  22.396  0.00  0.00    +0.000 C 
ATOM     17  C   UNL     1      -1.894  11.840  20.208  0.00  0.00    +0.000 A 
ATOM     18  C   UNL     1      -0.842  11.068  19.650  0.00  0.00    +0.000 A 
ENDROOT
BRANCH   1  21
ATOM     19  C   UNL     1       1.180   9.270  18.618  0.00  0.00    +0.000 C 
ATOM     20  O   UNL     1       1.241   9.293  19.846  0.00  0.00    +0.000 OA
ATOM     21  N   UNL     1       0.172   9.817  17.846  0.00  0.00    +0.000 N 
ATOM     22  H   UNL     1       0.164   9.611  16.859  0.00  0.00    +0.000 HD
BRANCH  19  24
ATOM     23  C   UNL     1       2.558   7.320  18.182  0.00  0.00    +0.000 C 
ATOM     24  C   UNL     1       2.230   8.577  17.829  0.00  0.00    +0.000 C 
BRANCH  23  29
ATOM     25  C   UNL     1       6.499   3.966  15.592  0.00  0.00    +0.000 C 
ATOM     26  C   UNL     1       5.480   4.832  16.274  0.00  0.00    +0.000 A 
ATOM     27  C   UNL     1       4.388   4.275  16.945  0.00  0.00    +0.000 A 
ATOM     28  C   UNL     1       3.448   5.100  17.568  0.00  0.00    +0.000 A 
ATOM     29  C   UNL     1       3.589   6.495  17.541  0.00  0.00    +0.000 A 
ATOM     30  C   UNL     1       4.673   7.048  16.853  0.00  0.00    +0.000 A 
ATOM     31  C   UNL     1       5.613   6.224  16.230  0.00  0.00    +0.000 A 
ENDBRANCH  23  29
ENDBRANCH  19  24
ENDBRANCH   1  21
TORSDOF 3
ENDMDL
MODEL 6
REMARK VINA RESULT:      -8.1      2.577      2.953
REMARK  Name = 
REMARK  6 active torsions:
REMARK  status: ('A' for Active; 'I' for Inactive)
REMARK    1  A    between atoms: C_1  and  C_2
REMARK    2  A    between atoms: C_5  and  C_6
REMARK    3  A    between atoms: C_7  and  C_8
REMARK    4  A    between atoms: N_10  and  C_11
REMARK    5  A    between atoms: C_20  and  C_21
REMARK    6  A    between atoms: C_25  and  C_26
REMARK                            x       y       z     vdW  Elec       q    Type
REMARK                         _______ _______ _______ _____ _____    ______ ____
ROOT
ATOM      1  C   UNL     1       0.671  11.015  20.638  0.00  0.00    +0.000 A 
ATOM      2  C   UNL     1      -0.160  10.489  21.624  0.00  0.00    +0.000 A 
ATOM      3  C   UNL     1      -0.827  11.330  22.523  0.00  0.00    +0.000 A 
ATOM      4  C   UNL     1      -0.712  12.709  22.468  0.00  0.00    +0.000 A 
ATOM      5  N   UNL     1      -1.378  13.455  23.373  0.00  0.00    +0.000 NA
ATOM      6  C   UNL     1      -1.271  14.801  23.338  0.00  0.00    +0.000 A 
ATOM      7  N   UNL     1      -1.916  15.579  24.271  0.00  0.00    +0.000 N 
ATOM      8  C   UNL     1      -3.084  15.085  24.985  0.00  0.00    +0.000 C 
ATOM      9  C   UNL     1      -4.161  16.177  24.914  0.00  0.00    +0.000 C 
ATOM     10  C   UNL     1      -3.638  17.541  25.405  0.00  0.00    +0.000 C 
ATOM     11  C   UNL     1      -4.687  18.631  25.196  0.00  0.00    +0.000 C 
ATOM     12  C   UNL     1      -2.327  17.919  24.695  0.00  0.00    +0.000 C 
ATOM     13  C   UNL     1      -1.305  16.792  24.802  0.00  0.00    +0.000 C 
ATOM     14  C   UNL     1      -0.532  15.409  22.329  0.00  0.00    +0.000 A 
ATOM     15  C   UNL     1       0.172  14.660  21.385  0.00  0.00    +0.000 A 
ATOM     16  C   UNL     1       0.951  15.390  20.329  0.00  0.00    +0.000 C 
ATOM     17  C   UNL     1       0.108  13.259  21.458  0.00  0.00    +0.000 A 
ATOM     18  C   UNL     1       0.805  12.401  20.568  0.00  0.00    +0.000 A 
ENDROOT
BRANCH   1  21
ATOM     19  C   UNL     1       0.897   9.736  18.524  0.00  0.00    +0.000 C 
ATOM     20  O   UNL     1      -0.202  10.001  18.040  0.00  0.00    +0.000 OA
ATOM     21  N   UNL     1       1.393  10.214  19.722  0.00  0.00    +0.000 N 
ATOM     22  H   UNL     1       2.361  10.035  19.941  0.00  0.00    +0.000 HD
BRANCH  19  24
ATOM     23  C   UNL     1       2.203   7.696  18.365  0.00  0.00    +0.000 C 
ATOM     24  C   UNL     1       1.844   8.858  17.790  0.00  0.00    +0.000 C 
BRANCH  23  29
ATOM     25  C   UNL     1       5.792   3.763  16.097  0.00  0.00    +0.000 C 
ATOM     26  C   UNL     1       4.864   4.780  16.696  0.00  0.00    +0.000 A 
ATOM     27  C   UNL     1       3.709   4.392  17.381  0.00  0.00    +0.000 A 
ATOM     28  C   UNL     1       2.855   5.355  17.925  0.00  0.00    +0.000 A 
ATOM     29  C   UNL     1       3.147   6.722  17.805  0.00  0.00    +0.000 A 
ATOM     30  C   UNL     1       4.294   7.105  17.102  0.00  0.00    +0.000 A 
ATOM     31  C   UNL     1       5.147   6.143  16.558  0.00  0.00    +0.000 A 
ENDBRANCH  23  29
ENDBRANCH  19  24
ENDBRANCH   1  21
TORSDOF 3
ENDMDL
MODEL 7
REMARK VINA RESULT:      -8.0      2.040      2.207
REMARK  Name = 
REMARK  6 active torsions:
REMARK  status: ('A' for Active; 'I' for Inactive)
REMARK    1  A    between atoms: C_1  and  C_2
REMARK    2  A    between atoms: C_5  and  C_6
REMARK    3  A    between atoms: C_7  and  C_8
REMARK    4  A    between atoms: N_10  and  C_11
REMARK    5  A    between atoms: C_20  and  C_21
REMARK    6  A    between atoms: C_25  and  C_26
REMARK                            x       y       z     vdW  Elec       q    Type
REMARK                         _______ _______ _______ _____ _____    ______ ____
ROOT
ATOM      1  C   UNL     1       0.572   9.600  21.350  0.00  0.00    +0.000 A 
ATOM      2  C   UNL     1      -0.316   9.275  22.372  0.00  0.00    +0.000 A 
ATOM      3  C   UNL     1      -0.977  10.278  23.092  0.00  0.00    +0.000 A 
ATOM      4  C   UNL     1      -0.798  11.624  22.818  0.00  0.00    +0.000 A 
ATOM      5  N   UNL     1      -1.461  12.534  23.560  0.00  0.00    +0.000 NA
ATOM      6  C   UNL     1      -1.293  13.851  23.311  0.00  0.00    +0.000 A 
ATOM      7  N   UNL     1      -1.935  14.796  24.076  0.00  0.00    +0.000 N 
ATOM      8  C   UNL     1      -3.148  14.471  24.811  0.00  0.00    +0.000 C 
ATOM      9  C   UNL     1      -4.172  15.578  24.517  0.00  0.00    +0.000 C 
ATOM     10  C   UNL     1      -3.606  16.983  24.800  0.00  0.00    +0.000 C 
ATOM     11  C   UNL     1      -4.597  18.063  24.372  0.00  0.00    +0.000 C 
ATOM     12  C   UNL     1      -2.255  17.188  24.096  0.00  0.00    +0.000 C 
ATOM     13  C   UNL     1      -1.289  16.056  24.428  0.00  0.00    +0.000 C 
ATOM     14  C   UNL     1      -0.491  14.255  22.249  0.00  0.00    +0.000 A 
ATOM     15  C   UNL     1       0.211  13.334  21.471  0.00  0.00    +0.000 A 
ATOM     16  C   UNL     1       1.059  13.850  20.344  0.00  0.00    +0.000 C 
ATOM     17  C   UNL     1       0.082  11.968  21.768  0.00  0.00    +0.000 A 
ATOM     18  C   UNL     1       0.771  10.949  21.060  0.00  0.00    +0.000 A 
ENDROOT
BRANCH   1  21
ATOM     19  C   UNL     1       1.505   8.677  19.244  0.00  0.00    +0.000 C 
ATOM     20  O   UNL     1       1.184   9.596  18.492  0.00  0.00    +0.000 OA
ATOM     21  N   UNL     1       1.289   8.631  20.608  0.00  0.00    +0.000 N 
ATOM     22  H   UNL     1       1.723   7.888  21.134  0.00  0.00    +0.000 HD
BRANCH  19  24
ATOM     23  C   UNL     1       3.193   7.701  17.797  0.00  0.00    +0.000 C 
ATOM     24  C   UNL     1       2.228   7.493  18.711  0.00  0.00    +0.000 C 
BRANCH  23  29
ATOM     25  C   UNL     1       6.183   3.484  15.196  0.00  0.00    +0.000 C 
ATOM     26  C   UNL     1       5.412   4.575  15.881  0.00  0.00    +0.000 A 
ATOM     27  C   UNL     1       4.475   4.286  16.876  0.00  0.00    +0.000 A 
ATOM     28  C   UNL     1       3.764   5.318  17.496  0.00  0.00    +0.000 A 
ATOM     29  C   UNL     1       3.987   6.656  17.140  0.00  0.00    +0.000 A 
ATOM     30  C   UNL     1       4.912   6.938  16.130  0.00  0.00    +0.000 A 
ATOM     31  C   UNL     1       5.622   5.908  15.511  0.00  0.00    +0.000 A 
ENDBRANCH  23  29
ENDBRANCH  19  24
ENDBRANCH   1  21
TORSDOF 3
ENDMDL
MODEL 8
REMARK VINA RESULT:      -8.0      1.952      2.108
REMARK  Name = 
REMARK  6 active torsions:
REMARK  status: ('A' for Active; 'I' for Inactive)
REMARK    1  A    between atoms: C_1  and  C_2
REMARK    2  A    between atoms: C_5  and  C_6
REMARK    3  A    between atoms: C_7  and  C_8
REMARK    4  A    between atoms: N_10  and  C_11
REMARK    5  A    between atoms: C_20  and  C_21
REMARK    6  A    between atoms: C_25  and  C_26
REMARK                            x       y       z     vdW  Elec       q    Type
REMARK                         _______ _______ _______ _____ _____    ______ ____
ROOT
ATOM      1  C   UNL     1       0.597  10.337  20.094  0.00  0.00    +0.000 A 
ATOM      2  C   UNL     1       0.002   9.827  21.245  0.00  0.00    +0.000 A 
ATOM      3  C   UNL     1      -0.587  10.682  22.185  0.00  0.00    +0.000 A 
ATOM      4  C   UNL     1      -0.623  12.056  22.013  0.00  0.00    +0.000 A 
ATOM      5  N   UNL     1      -1.199  12.817  22.966  0.00  0.00    +0.000 NA
ATOM      6  C   UNL     1      -1.236  14.158  22.818  0.00  0.00    +0.000 A 
ATOM      7  N   UNL     1      -1.791  14.955  23.792  0.00  0.00    +0.000 N 
ATOM      8  C   UNL     1      -2.765  14.425  24.734  0.00  0.00    +0.000 C 
ATOM      9  C   UNL     1      -3.944  15.408  24.776  0.00  0.00    +0.000 C 
ATOM     10  C   UNL     1      -3.487  16.851  25.069  0.00  0.00    +0.000 C 
ATOM     11  C   UNL     1      -4.662  17.822  24.971  0.00  0.00    +0.000 C 
ATOM     12  C   UNL     1      -2.359  17.279  24.116  0.00  0.00    +0.000 C 
ATOM     13  C   UNL     1      -1.225  16.259  24.121  0.00  0.00    +0.000 C 
ATOM     14  C   UNL     1      -0.743  14.739  21.655  0.00  0.00    +0.000 A 
ATOM     15  C   UNL     1      -0.135  13.975  20.657  0.00  0.00    +0.000 A 
ATOM     16  C   UNL     1       0.377  14.675  19.432  0.00  0.00    +0.000 C 
ATOM     17  C   UNL     1      -0.043  12.585  20.839  0.00  0.00    +0.000 A 
ATOM     18  C   UNL     1       0.577  11.717  19.903  0.00  0.00    +0.000 A 
ENDROOT
BRANCH   1  21
ATOM     19  C   UNL     1       1.854   8.318  19.383  0.00  0.00    +0.000 C 
ATOM     20  O   UNL     1       1.875   7.735  20.466  0.00  0.00    +0.000 OA
ATOM     21  N   UNL     1       1.233   9.525  19.124  0.00  0.00    +0.000 N 
ATOM     22  H   UNL     1       1.167   9.830  18.164  0.00  0.00    +0.000 HD
BRANCH  19  24
ATOM     23  C   UNL     1       3.357   6.689  18.393  0.00  0.00    +0.000 C 
ATOM     24  C   UNL     1       2.504   7.710  18.193  0.00  0.00    +0.000 C 
BRANCH  23  29
ATOM     25  C   UNL     1       6.198   3.818  14.249  0.00  0.00    +0.000 C 
ATOM     26  C   UNL     1       5.469   4.559  15.331  0.00  0.00    +0.000 A 
ATOM     27  C   UNL     1       4.786   3.877  16.343  0.00  0.00    +0.000 A 
ATOM     28  C   UNL     1       4.108   4.587  17.337  0.00  0.00    +0.000 A 
ATOM     29  C   UNL     1       4.111   5.989  17.346  0.00  0.00    +0.000 A 
ATOM     30  C   UNL     1       4.779   6.666  16.321  0.00  0.00    +0.000 A 
ATOM     31  C   UNL     1       5.456   5.958  15.327  0.00  0.00    +0.000 A 
ENDBRANCH  23  29
ENDBRANCH  19  24
ENDBRANCH   1  21
TORSDOF 3
ENDMDL
MODEL 9
REMARK VINA RESULT:      -8.0      2.243      3.384
REMARK  Name = 
REMARK  6 active torsions:
REMARK  status: ('A' for Active; 'I' for Inactive)
REMARK    1  A    between atoms: C_1  and  C_2
REMARK    2  A    between atoms: C_5  and  C_6
REMARK    3  A    between atoms: C_7  and  C_8
REMARK    4  A    between atoms: N_10  and  C_11
REMARK    5  A    between atoms: C_20  and  C_21
REMARK    6  A    between atoms: C_25  and  C_26
REMARK                            x       y       z     vdW  Elec       q    Type
REMARK                         _______ _______ _______ _____ _____    ______ ____
ROOT
ATOM      1  C   UNL     1      -1.059  10.829  19.060  0.00  0.00    +0.000 A 
ATOM      2  C   UNL     1      -2.131  11.072  18.205  0.00  0.00    +0.000 A 
ATOM      3  C   UNL     1      -3.236  11.818  18.634  0.00  0.00    +0.000 A 
ATOM      4  C   UNL     1      -3.311  12.360  19.906  0.00  0.00    +0.000 A 
ATOM      5  N   UNL     1      -4.411  13.059  20.253  0.00  0.00    +0.000 NA
ATOM      6  C   UNL     1      -4.503  13.589  21.491  0.00  0.00    +0.000 A 
ATOM      7  N   UNL     1      -5.629  14.279  21.875  0.00  0.00    +0.000 N 
ATOM      8  C   UNL     1      -6.511  14.889  20.891  0.00  0.00    +0.000 C 
ATOM      9  C   UNL     1      -6.785  16.328  21.351  0.00  0.00    +0.000 C 
ATOM     10  C   UNL     1      -7.305  16.386  22.801  0.00  0.00    +0.000 C 
ATOM     11  C   UNL     1      -7.439  17.832  23.271  0.00  0.00    +0.000 C 
ATOM     12  C   UNL     1      -6.386  15.598  23.750  0.00  0.00    +0.000 C 
ATOM     13  C   UNL     1      -6.154  14.182  23.233  0.00  0.00    +0.000 C 
ATOM     14  C   UNL     1      -3.437  13.468  22.376  0.00  0.00    +0.000 A 
ATOM     15  C   UNL     1      -2.291  12.743  22.045  0.00  0.00    +0.000 A 
ATOM     16  C   UNL     1      -1.184  12.654  23.055  0.00  0.00    +0.000 C 
ATOM     17  C   UNL     1      -2.220  12.142  20.777  0.00  0.00    +0.000 A 
ATOM     18  C   UNL     1      -1.116  11.362  20.347  0.00  0.00    +0.000 A 
ENDROOT
BRANCH   1  21
ATOM     19  C   UNL     1       1.333  10.567  18.451  0.00  0.00    +0.000 C 
ATOM     20  O   UNL     1       1.681  11.736  18.602  0.00  0.00    +0.000 OA
ATOM     21  N   UNL     1       0.070  10.059  18.691  0.00  0.00    +0.000 N 
ATOM     22  H   UNL     1      -0.054   9.058  18.665  0.00  0.00    +0.000 HD
BRANCH  19  24
ATOM     23  C   UNL     1       1.982   8.248  18.141  0.00  0.00    +0.000 C 
ATOM     24  C   UNL     1       2.316   9.544  18.009  0.00  0.00    +0.000 C 
BRANCH  23  29
ATOM     25  C   UNL     1       5.203   3.664  16.694  0.00  0.00    +0.000 C 
ATOM     26  C   UNL     1       4.369   4.850  17.080  0.00  0.00    +0.000 A 
ATOM     27  C   UNL     1       3.135   4.692  17.717  0.00  0.00    +0.000 A 
ATOM     28  C   UNL     1       2.372   5.811  18.062  0.00  0.00    +0.000 A 
ATOM     29  C   UNL     1       2.834   7.106  17.788  0.00  0.00    +0.000 A 
ATOM     30  C   UNL     1       4.060   7.258  17.133  0.00  0.00    +0.000 A 
ATOM     31  C   UNL     1       4.823   6.141  16.788  0.00  0.00    +0.000 A 
ENDBRANCH  23  29
ENDBRANCH  19  24
ENDBRANCH   1  21
TORSDOF 3
ENDMDL
