MODEL 1
REMARK VINA RESULT:      -6.9      0.000      0.000
REMARK  Name = 
REMARK  5 active torsions:
REMARK  status: ('A' for Active; 'I' for Inactive)
REMARK    1  A    between atoms: C_1  and  O_2
REMARK    2  A    between atoms: O_2  and  C_3
REMARK    3  A    between atoms: C_3  and  C_5
REMARK    4  A    between atoms: C_13  and  C_14
REMARK    5  A    between atoms: C_18  and  C_19
REMARK                            x       y       z     vdW  Elec       q    Type
REMARK                         _______ _______ _______ _____ _____    ______ ____
ROOT
ATOM      1  C   UNL     1       0.473  16.679  18.875  0.00  0.00    +0.000 C 
ATOM      2  C   UNL     1       0.818  17.309  20.536  0.00  0.00    +0.000 C 
ATOM      3  C   UNL     1      -0.025  16.612  21.640  0.00  0.00    +0.000 C 
ATOM      4  C   UNL     1       0.109  16.491  22.978  0.00  0.00    +0.000 C 
ATOM      5  C   UNL     1      -0.793  15.571  23.759  0.00  0.00    +0.000 C 
ATOM      6  O   UNL     1      -0.623  15.365  24.953  0.00  0.00    +0.000 OA
ATOM      7  C   UNL     1      -1.906  14.906  23.036  0.00  0.00    +0.000 C 
ATOM      8  C   UNL     1      -1.972  14.987  21.712  0.00  0.00    +0.000 C 
ATOM      9  C   UNL     1      -1.001  15.761  20.922  0.00  0.00    +0.000 C 
ATOM     10  C   UNL     1      -1.958  16.837  20.299  0.00  0.00    +0.000 C 
ATOM     11  C   UNL     1       0.098  14.794  20.183  0.00  0.00    +0.000 C 
ATOM     12  C   UNL     1       1.165  13.954  20.974  0.00  0.00    +0.000 C 
ATOM     13  C   UNL     1       1.589  12.581  20.600  0.00  0.00    +0.000 C 
ATOM     14  C   UNL     1       0.705  12.024  19.552  0.00  0.00    +0.000 C 
ATOM     15  C   UNL     1       1.614  11.017  18.759  0.00  0.00    +0.000 C 
ATOM     16  C   UNL     1       0.074  13.115  18.501  0.00  0.00    +0.000 C 
ATOM     17  C   UNL     1      -0.074  14.889  18.693  0.00  0.00    +0.000 C 
ATOM     18  C   UNL     1      -1.178  12.259  17.996  0.00  0.00    +0.000 C 
ATOM     19  C   UNL     1      -2.507  11.767  18.586  0.00  0.00    +0.000 C 
ATOM     20  C   UNL     1      -1.289  11.006  18.933  0.00  0.00    +0.000 C 
ATOM     21  C   UNL     1      -0.508  11.238  20.192  0.00  0.00    +0.000 C 
ATOM     22  C   UNL     1      -1.367  11.924  21.230  0.00  0.00    +0.000 C 
ATOM     23  C   UNL     1      -0.807  11.565  22.572  0.00  0.00    +0.000 C 
ATOM     24  C   UNL     1      -0.420  10.165  22.267  0.00  0.00    +0.000 C 
ATOM     25  O   UNL     1      -0.355   9.253  23.076  0.00  0.00    +0.000 OA
ATOM     26  O   UNL     1      -0.153  10.028  20.899  0.00  0.00    +0.000 OA
ENDROOT
BRANCH   1  27
ATOM     27  C   UNL     1       1.573  17.344  18.047  0.00  0.00    +0.000 C 
ATOM     28  O   UNL     1       2.754  17.002  18.083  0.00  0.00    +0.000 OA
BRANCH  27  30
ATOM     29  C   UNL     1      -0.034  18.396  16.732  0.00  0.00    +0.000 C 
ATOM     30  O   UNL     1       1.169  18.520  17.506  0.00  0.00    +0.000 OA
ENDBRANCH  27  30
ENDBRANCH   1  27
TORSDOF 2
ENDMDL
MODEL 2
REMARK VINA RESULT:      -6.9      0.476      1.021
REMARK  Name = 
REMARK  5 active torsions:
REMARK  status: ('A' for Active; 'I' for Inactive)
REMARK    1  A    between atoms: C_1  and  O_2
REMARK    2  A    between atoms: O_2  and  C_3
REMARK    3  A    between atoms: C_3  and  C_5
REMARK    4  A    between atoms: C_13  and  C_14
REMARK    5  A    between atoms: C_18  and  C_19
REMARK                            x       y       z     vdW  Elec       q    Type
REMARK                         _______ _______ _______ _____ _____    ______ ____
ROOT
ATOM      1  C   UNL     1       0.424  16.643  18.993  0.00  0.00    +0.000 C 
ATOM      2  C   UNL     1       0.797  17.251  20.656  0.00  0.00    +0.000 C 
ATOM      3  C   UNL     1      -0.046  16.556  21.763  0.00  0.00    +0.000 C 
ATOM      4  C   UNL     1       0.102  16.420  23.098  0.00  0.00    +0.000 C 
ATOM      5  C   UNL     1      -0.805  15.506  23.880  0.00  0.00    +0.000 C 
ATOM      6  O   UNL     1      -0.625  15.286  25.071  0.00  0.00    +0.000 OA
ATOM      7  C   UNL     1      -1.936  14.864  23.163  0.00  0.00    +0.000 C 
ATOM      8  C   UNL     1      -2.014  14.959  21.841  0.00  0.00    +0.000 C 
ATOM      9  C   UNL     1      -1.041  15.727  21.047  0.00  0.00    +0.000 C 
ATOM     10  C   UNL     1      -1.989  16.822  20.445  0.00  0.00    +0.000 C 
ATOM     11  C   UNL     1       0.035  14.751  20.288  0.00  0.00    +0.000 C 
ATOM     12  C   UNL     1       1.099  13.888  21.059  0.00  0.00    +0.000 C 
ATOM     13  C   UNL     1       1.498  12.513  20.667  0.00  0.00    +0.000 C 
ATOM     14  C   UNL     1       0.594  11.978  19.623  0.00  0.00    +0.000 C 
ATOM     15  C   UNL     1       1.480  10.966  18.811  0.00  0.00    +0.000 C 
ATOM     16  C   UNL     1      -0.032  13.088  18.589  0.00  0.00    +0.000 C 
ATOM     17  C   UNL     1      -0.151  14.862  18.800  0.00  0.00    +0.000 C 
ATOM     18  C   UNL     1      -1.301  12.256  18.090  0.00  0.00    +0.000 C 
ATOM     19  C   UNL     1      -2.631  11.778  18.690  0.00  0.00    +0.000 C 
ATOM     20  C   UNL     1      -1.421  10.995  19.017  0.00  0.00    +0.000 C 
ATOM     21  C   UNL     1      -0.622  11.204  20.269  0.00  0.00    +0.000 C 
ATOM     22  C   UNL     1      -1.460  11.892  21.323  0.00  0.00    +0.000 C 
ATOM     23  C   UNL     1      -0.891  11.512  22.655  0.00  0.00    +0.000 C 
ATOM     24  C   UNL     1      -0.528  10.110  22.333  0.00  0.00    +0.000 C 
ATOM     25  O   UNL     1      -0.468   9.190  23.132  0.00  0.00    +0.000 OA
ATOM     26  O   UNL     1      -0.278   9.983  20.961  0.00  0.00    +0.000 OA
ENDROOT
BRANCH   1  27
ATOM     27  C   UNL     1       1.524  17.299  18.160  0.00  0.00    +0.000 C 
ATOM     28  O   UNL     1       1.425  18.418  17.659  0.00  0.00    +0.000 OA
BRANCH  27  30
ATOM     29  C   UNL     1       3.701  16.562  18.534  0.00  0.00    +0.000 C 
ATOM     30  O   UNL     1       2.483  16.415  17.787  0.00  0.00    +0.000 OA
ENDBRANCH  27  30
ENDBRANCH   1  27
TORSDOF 2
ENDMDL
MODEL 3
REMARK VINA RESULT:      -6.6      8.142     10.838
REMARK  Name = 
REMARK  5 active torsions:
REMARK  status: ('A' for Active; 'I' for Inactive)
REMARK    1  A    between atoms: C_1  and  O_2
REMARK    2  A    between atoms: O_2  and  C_3
REMARK    3  A    between atoms: C_3  and  C_5
REMARK    4  A    between atoms: C_13  and  C_14
REMARK    5  A    between atoms: C_18  and  C_19
REMARK                            x       y       z     vdW  Elec       q    Type
REMARK                         _______ _______ _______ _____ _____    ______ ____
ROOT
ATOM      1  C   UNL     1       7.585  12.668  23.409  0.00  0.00    +0.000 C 
ATOM      2  C   UNL     1       6.929  14.345  23.593  0.00  0.00    +0.000 C 
ATOM      3  C   UNL     1       7.919  15.443  23.111  0.00  0.00    +0.000 C 
ATOM      4  C   UNL     1       7.771  16.733  22.742  0.00  0.00    +0.000 C 
ATOM      5  C   UNL     1       8.920  17.492  22.130  0.00  0.00    +0.000 C 
ATOM      6  O   UNL     1       8.780  18.626  21.692  0.00  0.00    +0.000 OA
ATOM      7  C   UNL     1      10.243  16.822  22.064  0.00  0.00    +0.000 C 
ATOM      8  C   UNL     1      10.342  15.532  22.368  0.00  0.00    +0.000 C 
ATOM      9  C   UNL     1       9.189  14.739  22.822  0.00  0.00    +0.000 C 
ATOM     10  C   UNL     1       9.674  14.361  24.265  0.00  0.00    +0.000 C 
ATOM     11  C   UNL     1       8.605  13.772  21.634  0.00  0.00    +0.000 C 
ATOM     12  C   UNL     1       7.916  14.332  20.338  0.00  0.00    +0.000 C 
ATOM     13  C   UNL     1       8.091  13.749  18.983  0.00  0.00    +0.000 C 
ATOM     14  C   UNL     1       9.179  12.746  18.978  0.00  0.00    +0.000 C 
ATOM     15  C   UNL     1       8.787  11.742  17.835  0.00  0.00    +0.000 C 
ATOM     16  C   UNL     1       9.383  11.911  20.376  0.00  0.00    +0.000 C 
ATOM     17  C   UNL     1       8.805  12.332  22.018  0.00  0.00    +0.000 C 
ATOM     18  C   UNL     1      10.896  11.448  20.155  0.00  0.00    +0.000 C 
ATOM     19  C   UNL     1      12.277  12.117  20.127  0.00  0.00    +0.000 C 
ATOM     20  C   UNL     1      11.444  12.233  18.912  0.00  0.00    +0.000 C 
ATOM     21  C   UNL     1      10.567  13.416  18.628  0.00  0.00    +0.000 C 
ATOM     22  C   UNL     1      11.027  14.619  19.422  0.00  0.00    +0.000 C 
ATOM     23  C   UNL     1      10.583  15.837  18.672  0.00  0.00    +0.000 C 
ATOM     24  C   UNL     1      10.799  15.323  17.296  0.00  0.00    +0.000 C 
ATOM     25  O   UNL     1      11.057  16.004  16.317  0.00  0.00    +0.000 OA
ATOM     26  O   UNL     1      10.683  13.928  17.282  0.00  0.00    +0.000 OA
ENDROOT
BRANCH   1  27
ATOM     27  C   UNL     1       6.359  11.810  23.720  0.00  0.00    +0.000 C 
ATOM     28  O   UNL     1       5.238  12.034  23.267  0.00  0.00    +0.000 OA
BRANCH  27  30
ATOM     29  C   UNL     1       6.420  11.615  26.039  0.00  0.00    +0.000 C 
ATOM     30  O   UNL     1       6.570  10.971  24.764  0.00  0.00    +0.000 OA
ENDBRANCH  27  30
ENDBRANCH   1  27
TORSDOF 2
ENDMDL
MODEL 4
REMARK VINA RESULT:      -6.3      7.687      9.901
REMARK  Name = 
REMARK  5 active torsions:
REMARK  status: ('A' for Active; 'I' for Inactive)
REMARK    1  A    between atoms: C_1  and  O_2
REMARK    2  A    between atoms: O_2  and  C_3
REMARK    3  A    between atoms: C_3  and  C_5
REMARK    4  A    between atoms: C_13  and  C_14
REMARK    5  A    between atoms: C_18  and  C_19
REMARK                            x       y       z     vdW  Elec       q    Type
REMARK                         _______ _______ _______ _____ _____    ______ ____
ROOT
ATOM      1  C   UNL     1       9.742  16.650  19.419  0.00  0.00    +0.000 C 
ATOM      2  C   UNL     1       9.609  15.292  18.231  0.00  0.00    +0.000 C 
ATOM      3  C   UNL     1       9.725  13.890  18.892  0.00  0.00    +0.000 C 
ATOM      4  C   UNL     1       9.364  12.647  18.508  0.00  0.00    +0.000 C 
ATOM      5  C   UNL     1       9.439  11.493  19.475  0.00  0.00    +0.000 C 
ATOM      6  O   UNL     1       9.020  10.381  19.183  0.00  0.00    +0.000 OA
ATOM      7  C   UNL     1      10.036  11.741  20.811  0.00  0.00    +0.000 C 
ATOM      8  C   UNL     1      10.316  12.984  21.186  0.00  0.00    +0.000 C 
ATOM      9  C   UNL     1      10.102  14.141  20.301  0.00  0.00    +0.000 C 
ATOM     10  C   UNL     1      11.582  14.638  20.146  0.00  0.00    +0.000 C 
ATOM     11  C   UNL     1       8.758  14.985  20.711  0.00  0.00    +0.000 C 
ATOM     12  C   UNL     1       7.306  14.401  20.569  0.00  0.00    +0.000 C 
ATOM     13  C   UNL     1       6.213  14.639  21.546  0.00  0.00    +0.000 C 
ATOM     14  C   UNL     1       6.735  15.278  22.775  0.00  0.00    +0.000 C 
ATOM     15  C   UNL     1       5.526  16.112  23.332  0.00  0.00    +0.000 C 
ATOM     16  C   UNL     1       8.021  16.275  22.567  0.00  0.00    +0.000 C 
ATOM     17  C   UNL     1       9.153  16.357  21.181  0.00  0.00    +0.000 C 
ATOM     18  C   UNL     1       8.587  16.245  24.061  0.00  0.00    +0.000 C 
ATOM     19  C   UNL     1       9.281  15.224  24.973  0.00  0.00    +0.000 C 
ATOM     20  C   UNL     1       7.815  15.114  24.825  0.00  0.00    +0.000 C 
ATOM     21  C   UNL     1       7.155  14.192  23.844  0.00  0.00    +0.000 C 
ATOM     22  C   UNL     1       8.103  13.085  23.438  0.00  0.00    +0.000 C 
ATOM     23  C   UNL     1       7.263  11.920  23.016  0.00  0.00    +0.000 C 
ATOM     24  C   UNL     1       6.174  12.077  24.013  0.00  0.00    +0.000 C 
ATOM     25  O   UNL     1       5.478  11.176  24.453  0.00  0.00    +0.000 OA
ATOM     26  O   UNL     1       6.067  13.419  24.397  0.00  0.00    +0.000 OA
ENDROOT
BRANCH   1  27
ATOM     27  C   UNL     1       9.365  17.860  18.564  0.00  0.00    +0.000 C 
ATOM     28  O   UNL     1       8.282  17.982  17.995  0.00  0.00    +0.000 OA
BRANCH  27  30
ATOM     29  C   UNL     1      11.305  18.021  17.287  0.00  0.00    +0.000 C 
ATOM     30  O   UNL     1      10.441  18.629  18.259  0.00  0.00    +0.000 OA
ENDBRANCH  27  30
ENDBRANCH   1  27
TORSDOF 2
ENDMDL
MODEL 5
REMARK VINA RESULT:      -6.3      1.609      6.085
REMARK  Name = 
REMARK  5 active torsions:
REMARK  status: ('A' for Active; 'I' for Inactive)
REMARK    1  A    between atoms: C_1  and  O_2
REMARK    2  A    between atoms: O_2  and  C_3
REMARK    3  A    between atoms: C_3  and  C_5
REMARK    4  A    between atoms: C_13  and  C_14
REMARK    5  A    between atoms: C_18  and  C_19
REMARK                            x       y       z     vdW  Elec       q    Type
REMARK                         _______ _______ _______ _____ _____    ______ ____
ROOT
ATOM      1  C   UNL     1      -2.039  14.143  22.896  0.00  0.00    +0.000 C 
ATOM      2  C   UNL     1      -1.507  12.415  22.964  0.00  0.00    +0.000 C 
ATOM      3  C   UNL     1      -0.978  11.885  21.602  0.00  0.00    +0.000 C 
ATOM      4  C   UNL     1      -0.196  10.843  21.248  0.00  0.00    +0.000 C 
ATOM      5  C   UNL     1       0.304  10.705  19.833  0.00  0.00    +0.000 C 
ATOM      6  O   UNL     1       1.098   9.829  19.514  0.00  0.00    +0.000 OA
ATOM      7  C   UNL     1      -0.190  11.672  18.821  0.00  0.00    +0.000 C 
ATOM      8  C   UNL     1      -0.900  12.725  19.210  0.00  0.00    +0.000 C 
ATOM      9  C   UNL     1      -1.266  12.952  20.618  0.00  0.00    +0.000 C 
ATOM     10  C   UNL     1      -2.828  12.866  20.506  0.00  0.00    +0.000 C 
ATOM     11  C   UNL     1      -0.335  14.108  21.314  0.00  0.00    +0.000 C 
ATOM     12  C   UNL     1       1.204  13.924  21.574  0.00  0.00    +0.000 C 
ATOM     13  C   UNL     1       2.212  15.003  21.409  0.00  0.00    +0.000 C 
ATOM     14  C   UNL     1       1.618  16.180  20.737  0.00  0.00    +0.000 C 
ATOM     15  C   UNL     1       2.447  17.403  21.274  0.00  0.00    +0.000 C 
ATOM     16  C   UNL     1       0.026  16.442  21.036  0.00  0.00    +0.000 C 
ATOM     17  C   UNL     1      -1.190  15.291  21.671  0.00  0.00    +0.000 C 
ATOM     18  C   UNL     1      -0.311  17.334  19.754  0.00  0.00    +0.000 C 
ATOM     19  C   UNL     1      -0.432  17.115  18.239  0.00  0.00    +0.000 C 
ATOM     20  C   UNL     1       0.929  17.256  18.796  0.00  0.00    +0.000 C 
ATOM     21  C   UNL     1       1.789  16.084  19.169  0.00  0.00    +0.000 C 
ATOM     22  C   UNL     1       1.324  14.837  18.451  0.00  0.00    +0.000 C 
ATOM     23  C   UNL     1       2.507  13.926  18.341  0.00  0.00    +0.000 C 
ATOM     24  C   UNL     1       3.546  14.962  18.112  0.00  0.00    +0.000 C 
ATOM     25  O   UNL     1       4.588  14.799  17.497  0.00  0.00    +0.000 OA
ATOM     26  O   UNL     1       3.149  16.174  18.690  0.00  0.00    +0.000 OA
ENDROOT
BRANCH   1  27
ATOM     27  C   UNL     1      -2.275  14.463  24.372  0.00  0.00    +0.000 C 
ATOM     28  O   UNL     1      -3.391  14.587  24.872  0.00  0.00    +0.000 OA
BRANCH  27  30
ATOM     29  C   UNL     1      -1.400  15.843  26.029  0.00  0.00    +0.000 C 
ATOM     30  O   UNL     1      -1.144  14.881  24.994  0.00  0.00    +0.000 OA
ENDBRANCH  27  30
ENDBRANCH   1  27
TORSDOF 2
ENDMDL
MODEL 6
REMARK VINA RESULT:      -6.2      2.126      5.856
REMARK  Name = 
REMARK  5 active torsions:
REMARK  status: ('A' for Active; 'I' for Inactive)
REMARK    1  A    between atoms: C_1  and  O_2
REMARK    2  A    between atoms: O_2  and  C_3
REMARK    3  A    between atoms: C_3  and  C_5
REMARK    4  A    between atoms: C_13  and  C_14
REMARK    5  A    between atoms: C_18  and  C_19
REMARK                            x       y       z     vdW  Elec       q    Type
REMARK                         _______ _______ _______ _____ _____    ______ ____
ROOT
ATOM      1  C   UNL     1       0.161  11.518  20.537  0.00  0.00    +0.000 C 
ATOM      2  C   UNL     1       1.561  12.658  20.652  0.00  0.00    +0.000 C 
ATOM      3  C   UNL     1       1.163  14.140  20.400  0.00  0.00    +0.000 C 
ATOM      4  C   UNL     1       1.740  15.323  20.699  0.00  0.00    +0.000 C 
ATOM      5  C   UNL     1       0.996  16.616  20.484  0.00  0.00    +0.000 C 
ATOM      6  O   UNL     1       1.456  17.691  20.845  0.00  0.00    +0.000 OA
ATOM      7  C   UNL     1      -0.332  16.554  19.822  0.00  0.00    +0.000 C 
ATOM      8  C   UNL     1      -0.904  15.376  19.604  0.00  0.00    +0.000 C 
ATOM      9  C   UNL     1      -0.248  14.105  19.952  0.00  0.00    +0.000 C 
ATOM     10  C   UNL     1      -0.108  13.475  18.522  0.00  0.00    +0.000 C 
ATOM     11  C   UNL     1      -0.866  13.450  21.321  0.00  0.00    +0.000 C 
ATOM     12  C   UNL     1      -0.698  14.113  22.736  0.00  0.00    +0.000 C 
ATOM     13  C   UNL     1      -1.756  14.131  23.779  0.00  0.00    +0.000 C 
ATOM     14  C   UNL     1      -3.050  13.674  23.224  0.00  0.00    +0.000 C 
ATOM     15  C   UNL     1      -3.806  13.044  24.449  0.00  0.00    +0.000 C 
ATOM     16  C   UNL     1      -2.955  12.558  22.025  0.00  0.00    +0.000 C 
ATOM     17  C   UNL     1      -1.550  12.153  20.991  0.00  0.00    +0.000 C 
ATOM     18  C   UNL     1      -4.390  12.800  21.364  0.00  0.00    +0.000 C 
ATOM     19  C   UNL     1      -5.073  13.905  20.547  0.00  0.00    +0.000 C 
ATOM     20  C   UNL     1      -4.983  14.102  22.009  0.00  0.00    +0.000 C 
ATOM     21  C   UNL     1      -3.889  14.891  22.665  0.00  0.00    +0.000 C 
ATOM     22  C   UNL     1      -3.248  15.834  21.672  0.00  0.00    +0.000 C 
ATOM     23  C   UNL     1      -2.671  16.972  22.456  0.00  0.00    +0.000 C 
ATOM     24  C   UNL     1      -3.734  17.073  23.488  0.00  0.00    +0.000 C 
ATOM     25  O   UNL     1      -4.044  18.088  24.091  0.00  0.00    +0.000 OA
ATOM     26  O   UNL     1      -4.353  15.829  23.661  0.00  0.00    +0.000 OA
ENDROOT
BRANCH   1  27
ATOM     27  C   UNL     1       0.771  10.212  21.048  0.00  0.00    +0.000 C 
ATOM     28  O   UNL     1       0.869   9.193  20.366  0.00  0.00    +0.000 OA
BRANCH  27  30
ATOM     29  C   UNL     1      -0.149   9.516  23.069  0.00  0.00    +0.000 C 
ATOM     30  O   UNL     1       0.916  10.206  22.396  0.00  0.00    +0.000 OA
ENDBRANCH  27  30
ENDBRANCH   1  27
TORSDOF 2
ENDMDL
MODEL 7
REMARK VINA RESULT:      -6.2      8.410     10.300
REMARK  Name = 
REMARK  5 active torsions:
REMARK  status: ('A' for Active; 'I' for Inactive)
REMARK    1  A    between atoms: C_1  and  O_2
REMARK    2  A    between atoms: O_2  and  C_3
REMARK    3  A    between atoms: C_3  and  C_5
REMARK    4  A    between atoms: C_13  and  C_14
REMARK    5  A    between atoms: C_18  and  C_19
REMARK                            x       y       z     vdW  Elec       q    Type
REMARK                         _______ _______ _______ _____ _____    ______ ____
ROOT
ATOM      1  C   UNL     1      10.144  17.330  20.617  0.00  0.00    +0.000 C 
ATOM      2  C   UNL     1       8.410  17.308  21.134  0.00  0.00    +0.000 C 
ATOM      3  C   UNL     1       7.489  16.539  20.145  0.00  0.00    +0.000 C 
ATOM      4  C   UNL     1       6.264  15.981  20.255  0.00  0.00    +0.000 C 
ATOM      5  C   UNL     1       5.711  15.122  19.147  0.00  0.00    +0.000 C 
ATOM      6  O   UNL     1       4.652  14.521  19.267  0.00  0.00    +0.000 OA
ATOM      7  C   UNL     1       6.493  15.015  17.890  0.00  0.00    +0.000 C 
ATOM      8  C   UNL     1       7.723  15.516  17.836  0.00  0.00    +0.000 C 
ATOM      9  C   UNL     1       8.334  16.226  18.971  0.00  0.00    +0.000 C 
ATOM     10  C   UNL     1       8.521  17.646  18.330  0.00  0.00    +0.000 C 
ATOM     11  C   UNL     1       9.422  15.291  19.764  0.00  0.00    +0.000 C 
ATOM     12  C   UNL     1       9.016  14.008  20.576  0.00  0.00    +0.000 C 
ATOM     13  C   UNL     1       9.816  12.758  20.614  0.00  0.00    +0.000 C 
ATOM     14  C   UNL     1      10.897  12.793  19.603  0.00  0.00    +0.000 C 
ATOM     15  C   UNL     1      12.031  11.886  20.203  0.00  0.00    +0.000 C 
ATOM     16  C   UNL     1      11.516  14.277  19.276  0.00  0.00    +0.000 C 
ATOM     17  C   UNL     1      10.796  15.882  19.610  0.00  0.00    +0.000 C 
ATOM     18  C   UNL     1      12.136  13.962  17.837  0.00  0.00    +0.000 C 
ATOM     19  C   UNL     1      11.599  13.664  16.430  0.00  0.00    +0.000 C 
ATOM     20  C   UNL     1      11.604  12.551  17.403  0.00  0.00    +0.000 C 
ATOM     21  C   UNL     1      10.410  12.179  18.230  0.00  0.00    +0.000 C 
ATOM     22  C   UNL     1       9.142  12.703  17.596  0.00  0.00    +0.000 C 
ATOM     23  C   UNL     1       8.023  11.818  18.052  0.00  0.00    +0.000 C 
ATOM     24  C   UNL     1       8.761  10.531  18.048  0.00  0.00    +0.000 C 
ATOM     25  O   UNL     1       8.267   9.429  17.874  0.00  0.00    +0.000 OA
ATOM     26  O   UNL     1      10.127  10.762  18.255  0.00  0.00    +0.000 OA
ENDROOT
BRANCH   1  27
ATOM     27  C   UNL     1      10.835  17.919  21.847  0.00  0.00    +0.000 C 
ATOM     28  O   UNL     1      11.837  18.629  21.791  0.00  0.00    +0.000 OA
BRANCH  27  30
ATOM     29  C   UNL     1      10.389  18.258  24.107  0.00  0.00    +0.000 C 
ATOM     30  O   UNL     1      10.412  17.343  23.000  0.00  0.00    +0.000 OA
ENDBRANCH  27  30
ENDBRANCH   1  27
TORSDOF 2
ENDMDL
MODEL 8
REMARK VINA RESULT:      -6.1      1.982      6.125
REMARK  Name = 
REMARK  5 active torsions:
REMARK  status: ('A' for Active; 'I' for Inactive)
REMARK    1  A    between atoms: C_1  and  O_2
REMARK    2  A    between atoms: O_2  and  C_3
REMARK    3  A    between atoms: C_3  and  C_5
REMARK    4  A    between atoms: C_13  and  C_14
REMARK    5  A    between atoms: C_18  and  C_19
REMARK                            x       y       z     vdW  Elec       q    Type
REMARK                         _______ _______ _______ _____ _____    ______ ____
ROOT
ATOM      1  C   UNL     1      -0.795  12.110  22.663  0.00  0.00    +0.000 C 
ATOM      2  C   UNL     1      -2.551  12.142  22.230  0.00  0.00    +0.000 C 
ATOM      3  C   UNL     1      -3.078  13.572  21.926  0.00  0.00    +0.000 C 
ATOM      4  C   UNL     1      -4.154  14.047  21.263  0.00  0.00    +0.000 C 
ATOM      5  C   UNL     1      -4.288  15.519  20.972  0.00  0.00    +0.000 C 
ATOM      6  O   UNL     1      -5.199  15.959  20.283  0.00  0.00    +0.000 OA
ATOM      7  C   UNL     1      -3.271  16.438  21.543  0.00  0.00    +0.000 C 
ATOM      8  C   UNL     1      -2.189  15.939  22.129  0.00  0.00    +0.000 C 
ATOM      9  C   UNL     1      -1.974  14.491  22.283  0.00  0.00    +0.000 C 
ATOM     10  C   UNL     1      -1.970  14.385  23.848  0.00  0.00    +0.000 C 
ATOM     11  C   UNL     1      -0.889  13.914  21.199  0.00  0.00    +0.000 C 
ATOM     12  C   UNL     1      -1.165  13.873  19.652  0.00  0.00    +0.000 C 
ATOM     13  C   UNL     1      -0.141  14.160  18.615  0.00  0.00    +0.000 C 
ATOM     14  C   UNL     1       1.083  14.726  19.226  0.00  0.00    +0.000 C 
ATOM     15  C   UNL     1       2.244  14.291  18.261  0.00  0.00    +0.000 C 
ATOM     16  C   UNL     1       1.427  14.204  20.743  0.00  0.00    +0.000 C 
ATOM     17  C   UNL     1       0.332  13.424  21.926  0.00  0.00    +0.000 C 
ATOM     18  C   UNL     1       2.366  15.413  21.201  0.00  0.00    +0.000 C 
ATOM     19  C   UNL     1       2.188  16.900  21.542  0.00  0.00    +0.000 C 
ATOM     20  C   UNL     1       2.239  16.535  20.111  0.00  0.00    +0.000 C 
ATOM     21  C   UNL     1       1.013  16.304  19.279  0.00  0.00    +0.000 C 
ATOM     22  C   UNL     1      -0.189  16.968  19.911  0.00  0.00    +0.000 C 
ATOM     23  C   UNL     1      -1.162  17.255  18.810  0.00  0.00    +0.000 C 
ATOM     24  C   UNL     1      -0.182  17.611  17.754  0.00  0.00    +0.000 C 
ATOM     25  O   UNL     1      -0.388  18.367  16.818  0.00  0.00    +0.000 OA
ATOM     26  O   UNL     1       1.037  16.965  17.995  0.00  0.00    +0.000 OA
ENDROOT
BRANCH   1  27
ATOM     27  C   UNL     1      -0.496  10.611  22.674  0.00  0.00    +0.000 C 
ATOM     28  O   UNL     1      -0.120   9.998  23.672  0.00  0.00    +0.000 OA
BRANCH  27  30
ATOM     29  C   UNL     1       0.689   9.174  21.278  0.00  0.00    +0.000 C 
ATOM     30  O   UNL     1      -0.403  10.096  21.423  0.00  0.00    +0.000 OA
ENDBRANCH  27  30
ENDBRANCH   1  27
TORSDOF 2
ENDMDL
MODEL 9
REMARK VINA RESULT:      -6.1      1.710      6.049
REMARK  Name = 
REMARK  5 active torsions:
REMARK  status: ('A' for Active; 'I' for Inactive)
REMARK    1  A    between atoms: C_1  and  O_2
REMARK    2  A    between atoms: O_2  and  C_3
REMARK    3  A    between atoms: C_3  and  C_5
REMARK    4  A    between atoms: C_13  and  C_14
REMARK    5  A    between atoms: C_18  and  C_19
REMARK                            x       y       z     vdW  Elec       q    Type
REMARK                         _______ _______ _______ _____ _____    ______ ____
ROOT
ATOM      1  C   UNL     1      -2.348  14.054  22.734  0.00  0.00    +0.000 C 
ATOM      2  C   UNL     1      -1.790  12.339  22.884  0.00  0.00    +0.000 C 
ATOM      3  C   UNL     1      -1.160  11.786  21.575  0.00  0.00    +0.000 C 
ATOM      4  C   UNL     1      -0.336  10.751  21.303  0.00  0.00    +0.000 C 
ATOM      5  C   UNL     1       0.262  10.587  19.930  0.00  0.00    +0.000 C 
ATOM      6  O   UNL     1       1.091   9.721  19.688  0.00  0.00    +0.000 OA
ATOM      7  C   UNL     1      -0.180  11.518  18.861  0.00  0.00    +0.000 C 
ATOM      8  C   UNL     1      -0.935  12.566  19.173  0.00  0.00    +0.000 C 
ATOM      9  C   UNL     1      -1.400  12.822  20.546  0.00  0.00    +0.000 C 
ATOM     10  C   UNL     1      -2.949  12.700  20.332  0.00  0.00    +0.000 C 
ATOM     11  C   UNL     1      -0.540  14.014  21.272  0.00  0.00    +0.000 C 
ATOM     12  C   UNL     1       0.981  13.868  21.640  0.00  0.00    +0.000 C 
ATOM     13  C   UNL     1       1.977  14.962  21.514  0.00  0.00    +0.000 C 
ATOM     14  C   UNL     1       1.408  16.110  20.772  0.00  0.00    +0.000 C 
ATOM     15  C   UNL     1       2.175  17.363  21.331  0.00  0.00    +0.000 C 
ATOM     16  C   UNL     1      -0.205  16.346  20.956  0.00  0.00    +0.000 C 
ATOM     17  C   UNL     1      -1.440  15.188  21.539  0.00  0.00    +0.000 C 
ATOM     18  C   UNL     1      -0.471  17.199  19.631  0.00  0.00    +0.000 C 
ATOM     19  C   UNL     1      -0.485  16.939  18.118  0.00  0.00    +0.000 C 
ATOM     20  C   UNL     1       0.833  17.121  18.762  0.00  0.00    +0.000 C 
ATOM     21  C   UNL     1       1.687  15.978  19.222  0.00  0.00    +0.000 C 
ATOM     22  C   UNL     1       1.295  14.703  18.509  0.00  0.00    +0.000 C 
ATOM     23  C   UNL     1       2.500  13.814  18.503  0.00  0.00    +0.000 C 
ATOM     24  C   UNL     1       3.532  14.865  18.317  0.00  0.00    +0.000 C 
ATOM     25  O   UNL     1       4.616  14.708  17.779  0.00  0.00    +0.000 OA
ATOM     26  O   UNL     1       3.075  16.083  18.834  0.00  0.00    +0.000 OA
ENDROOT
BRANCH   1  27
ATOM     27  C   UNL     1      -2.690  14.406  24.181  0.00  0.00    +0.000 C 
ATOM     28  O   UNL     1      -1.862  14.802  25.000  0.00  0.00    +0.000 OA
BRANCH  27  30
ATOM     29  C   UNL     1      -4.934  14.276  23.578  0.00  0.00    +0.000 C 
ATOM     30  O   UNL     1      -3.918  13.959  24.543  0.00  0.00    +0.000 OA
ENDBRANCH  27  30
ENDBRANCH   1  27
TORSDOF 2
ENDMDL
