MODEL 1
REMARK VINA RESULT:      -8.1      0.000      0.000
REMARK  Name = 
REMARK  8 active torsions:
REMARK  status: ('A' for Active; 'I' for Inactive)
REMARK    1  A    between atoms: C_1  and  C_2
REMARK    2  A    between atoms: C_2  and  O_3
REMARK    3  A    between atoms: O_3  and  C_4
REMARK    4  A    between atoms: C_4  and  C_6
REMARK    5  A    between atoms: C_10  and  N_11
REMARK    6  A    between atoms: C_12  and  C_14
REMARK    7  A    between atoms: C_15  and  C_16
REMARK    8  A    between atoms: C_16  and  O_18
REMARK                            x       y       z     vdW  Elec       q    Type
REMARK                         _______ _______ _______ _____ _____    ______ ____
ROOT
ATOM      1  N   UNL     1       6.083   3.776  15.322  0.00  0.00    +0.000 N 
ATOM      2  C   UNL     1       5.213   4.535  16.092  0.00  0.00    +0.000 C 
ATOM      3  O   UNL     1       5.032   5.738  15.916  0.00  0.00    +0.000 OA
ATOM      4  H   UNL     1       6.263   2.792  15.514  0.00  0.00    +0.000 HD
ENDROOT
BRANCH   2   5
ATOM      5  C   UNL     1       4.468   3.778  17.173  0.00  0.00    +0.000 C 
ATOM      6  C   UNL     1       3.192   4.527  17.630  0.00  0.00    +0.000 C 
ATOM      7  C   UNL     1       3.463   4.766  19.110  0.00  0.00    +0.000 C 
ATOM      8  C   UNL     1       4.591   5.782  19.304  0.00  0.00    +0.000 C 
ATOM      9  C   UNL     1       5.835   4.950  19.000  0.00  0.00    +0.000 C 
ATOM     10  C   UNL     1       5.230   3.642  18.500  0.00  0.00    +0.000 C 
ATOM     11  O   UNL     1       4.122   3.510  19.439  0.00  0.00    +0.000 OA
BRANCH   6  12
ATOM     12  C   UNL     1       1.960   3.674  17.439  0.00  0.00    +0.000 C 
ATOM     13  O   UNL     1       0.842   4.140  17.262  0.00  0.00    +0.000 OA
BRANCH  12  14
ATOM     14  O   UNL     1       2.191   2.342  17.436  0.00  0.00    +0.000 OA
ATOM     15  H   UNL     1       1.766   1.875  16.679  0.00  0.00    +0.000 HD
ENDBRANCH  12  14
ENDBRANCH   6  12
ENDBRANCH   2   5
BRANCH   1  20
ATOM     16  C   UNL     1       6.648   4.146  12.883  0.00  0.00    +0.000 A 
ATOM     17  C   UNL     1       7.601   5.032  12.324  0.00  0.00    +0.000 A 
ATOM     18  N   UNL     1       8.249   5.749  13.242  0.00  0.00    +0.000 NA
ATOM     19  N   UNL     1       7.716   5.323  14.396  0.00  0.00    +0.000 N 
ATOM     20  C   UNL     1       6.749   4.356  14.247  0.00  0.00    +0.000 A 
ATOM     21  H   UNL     1       8.050   5.705  15.278  0.00  0.00    +0.000 HD
BRANCH  16  22
ATOM     22  C   UNL     1       5.827   3.185  12.186  0.00  0.00    +0.000 C 
ATOM     23  O   UNL     1       6.261   2.129  11.742  0.00  0.00    +0.000 OA
BRANCH  22  24
ATOM     24  O   UNL     1       4.561   3.660  11.999  0.00  0.00    +0.000 OA
BRANCH  24  26
ATOM     25  C   UNL     1       3.200   4.026  10.067  0.00  0.00    +0.000 C 
ATOM     26  C   UNL     1       3.776   2.984  11.011  0.00  0.00    +0.000 C 
ENDBRANCH  24  26
ENDBRANCH  22  24
ENDBRANCH  16  22
ENDBRANCH   1  20
TORSDOF 7
ENDMDL
MODEL 2
REMARK VINA RESULT:      -8.0      1.166      1.347
REMARK  Name = 
REMARK  8 active torsions:
REMARK  status: ('A' for Active; 'I' for Inactive)
REMARK    1  A    between atoms: C_1  and  C_2
REMARK    2  A    between atoms: C_2  and  O_3
REMARK    3  A    between atoms: O_3  and  C_4
REMARK    4  A    between atoms: C_4  and  C_6
REMARK    5  A    between atoms: C_10  and  N_11
REMARK    6  A    between atoms: C_12  and  C_14
REMARK    7  A    between atoms: C_15  and  C_16
REMARK    8  A    between atoms: C_16  and  O_18
REMARK                            x       y       z     vdW  Elec       q    Type
REMARK                         _______ _______ _______ _____ _____    ______ ____
ROOT
ATOM      1  N   UNL     1       5.886   4.361  15.175  0.00  0.00    +0.000 N 
ATOM      2  C   UNL     1       6.490   4.260  16.422  0.00  0.00    +0.000 C 
ATOM      3  O   UNL     1       7.705   4.341  16.591  0.00  0.00    +0.000 OA
ATOM      4  H   UNL     1       4.884   4.239  15.045  0.00  0.00    +0.000 HD
ENDROOT
BRANCH   2   5
ATOM      5  C   UNL     1       5.546   4.062  17.590  0.00  0.00    +0.000 C 
ATOM      6  C   UNL     1       4.062   4.082  17.146  0.00  0.00    +0.000 C 
ATOM      7  C   UNL     1       3.500   5.260  17.933  0.00  0.00    +0.000 C 
ATOM      8  C   UNL     1       4.069   6.584  17.420  0.00  0.00    +0.000 C 
ATOM      9  C   UNL     1       5.474   6.590  18.021  0.00  0.00    +0.000 C 
ATOM     10  C   UNL     1       5.566   5.193  18.628  0.00  0.00    +0.000 C 
ATOM     11  O   UNL     1       4.223   5.079  19.184  0.00  0.00    +0.000 OA
BRANCH   6  12
ATOM     12  C   UNL     1       3.361   2.799  17.523  0.00  0.00    +0.000 C 
ATOM     13  O   UNL     1       2.213   2.538  17.189  0.00  0.00    +0.000 OA
BRANCH  12  14
ATOM     14  O   UNL     1       4.118   1.929  18.230  0.00  0.00    +0.000 OA
ATOM     15  H   UNL     1       3.600   1.181  18.608  0.00  0.00    +0.000 HD
ENDBRANCH  12  14
ENDBRANCH   6  12
ENDBRANCH   2   5
BRANCH   1  20
ATOM     16  C   UNL     1       6.587   4.155  12.752  0.00  0.00    +0.000 A 
ATOM     17  C   UNL     1       7.656   4.800  12.086  0.00  0.00    +0.000 A 
ATOM     18  N   UNL     1       8.346   5.620  12.879  0.00  0.00    +0.000 NA
ATOM     19  N   UNL     1       7.723   5.501  14.060  0.00  0.00    +0.000 N 
ATOM     20  C   UNL     1       6.657   4.632  14.049  0.00  0.00    +0.000 A 
ATOM     21  H   UNL     1       8.064   6.022  14.866  0.00  0.00    +0.000 HD
BRANCH  16  22
ATOM     22  C   UNL     1       5.687   3.163  12.214  0.00  0.00    +0.000 C 
ATOM     23  O   UNL     1       6.047   2.037  11.890  0.00  0.00    +0.000 OA
BRANCH  22  24
ATOM     24  O   UNL     1       4.440   3.680  12.017  0.00  0.00    +0.000 OA
BRANCH  24  26
ATOM     25  C   UNL     1       3.212   4.058   9.999  0.00  0.00    +0.000 C 
ATOM     26  C   UNL     1       3.636   3.025  11.030  0.00  0.00    +0.000 C 
ENDBRANCH  24  26
ENDBRANCH  22  24
ENDBRANCH  16  22
ENDBRANCH   1  20
TORSDOF 7
ENDMDL
MODEL 3
REMARK VINA RESULT:      -7.9      2.939      4.529
REMARK  Name = 
REMARK  8 active torsions:
REMARK  status: ('A' for Active; 'I' for Inactive)
REMARK    1  A    between atoms: C_1  and  C_2
REMARK    2  A    between atoms: C_2  and  O_3
REMARK    3  A    between atoms: O_3  and  C_4
REMARK    4  A    between atoms: C_4  and  C_6
REMARK    5  A    between atoms: C_10  and  N_11
REMARK    6  A    between atoms: C_12  and  C_14
REMARK    7  A    between atoms: C_15  and  C_16
REMARK    8  A    between atoms: C_16  and  O_18
REMARK                            x       y       z     vdW  Elec       q    Type
REMARK                         _______ _______ _______ _____ _____    ______ ____
ROOT
ATOM      1  N   UNL     1       4.812   4.594  19.026  0.00  0.00    +0.000 N 
ATOM      2  C   UNL     1       3.624   5.290  19.204  0.00  0.00    +0.000 C 
ATOM      3  O   UNL     1       3.558   6.517  19.224  0.00  0.00    +0.000 OA
ATOM      4  H   UNL     1       4.859   3.578  19.066  0.00  0.00    +0.000 HD
ENDROOT
BRANCH   2   5
ATOM      5  C   UNL     1       2.383   4.434  19.356  0.00  0.00    +0.000 C 
ATOM      6  C   UNL     1       2.717   3.017  19.884  0.00  0.00    +0.000 C 
ATOM      7  C   UNL     1       2.219   2.120  18.758  0.00  0.00    +0.000 C 
ATOM      8  C   UNL     1       3.087   2.274  17.508  0.00  0.00    +0.000 C 
ATOM      9  C   UNL     1       2.603   3.607  16.938  0.00  0.00    +0.000 C 
ATOM     10  C   UNL     1       1.669   4.103  18.037  0.00  0.00    +0.000 C 
ATOM     11  O   UNL     1       1.014   2.849  18.387  0.00  0.00    +0.000 OA
BRANCH   6  12
ATOM     12  C   UNL     1       1.982   2.726  21.171  0.00  0.00    +0.000 C 
ATOM     13  O   UNL     1       2.547   2.409  22.210  0.00  0.00    +0.000 OA
BRANCH  12  14
ATOM     14  O   UNL     1       0.641   2.884  21.102  0.00  0.00    +0.000 OA
ATOM     15  H   UNL     1       0.223   2.355  20.383  0.00  0.00    +0.000 HD
ENDBRANCH  12  14
ENDBRANCH   6  12
ENDBRANCH   2   5
BRANCH   1  20
ATOM     16  C   UNL     1       6.464   5.947  17.666  0.00  0.00    +0.000 A 
ATOM     17  C   UNL     1       7.736   6.431  18.054  0.00  0.00    +0.000 A 
ATOM     18  N   UNL     1       8.054   6.117  19.310  0.00  0.00    +0.000 NA
ATOM     19  N   UNL     1       6.986   5.426  19.733  0.00  0.00    +0.000 N 
ATOM     20  C   UNL     1       5.995   5.287  18.789  0.00  0.00    +0.000 A 
ATOM     21  H   UNL     1       6.972   5.046  20.678  0.00  0.00    +0.000 HD
BRANCH  16  22
ATOM     22  C   UNL     1       5.843   6.049  16.368  0.00  0.00    +0.000 C 
ATOM     23  O   UNL     1       4.678   6.394  16.206  0.00  0.00    +0.000 OA
BRANCH  22  24
ATOM     24  O   UNL     1       6.679   5.610  15.383  0.00  0.00    +0.000 OA
BRANCH  24  26
ATOM     25  C   UNL     1       6.000   3.975  13.775  0.00  0.00    +0.000 C 
ATOM     26  C   UNL     1       6.662   4.202  15.124  0.00  0.00    +0.000 C 
ENDBRANCH  24  26
ENDBRANCH  22  24
ENDBRANCH  16  22
ENDBRANCH   1  20
TORSDOF 7
ENDMDL
MODEL 4
REMARK VINA RESULT:      -7.7      3.633      7.126
REMARK  Name = 
REMARK  8 active torsions:
REMARK  status: ('A' for Active; 'I' for Inactive)
REMARK    1  A    between atoms: C_1  and  C_2
REMARK    2  A    between atoms: C_2  and  O_3
REMARK    3  A    between atoms: O_3  and  C_4
REMARK    4  A    between atoms: C_4  and  C_6
REMARK    5  A    between atoms: C_10  and  N_11
REMARK    6  A    between atoms: C_12  and  C_14
REMARK    7  A    between atoms: C_15  and  C_16
REMARK    8  A    between atoms: C_16  and  O_18
REMARK                            x       y       z     vdW  Elec       q    Type
REMARK                         _______ _______ _______ _____ _____    ______ ____
ROOT
ATOM      1  N   UNL     1       3.976   2.976  18.580  0.00  0.00    +0.000 N 
ATOM      2  C   UNL     1       4.368   4.128  17.912  0.00  0.00    +0.000 C 
ATOM      3  O   UNL     1       3.573   4.963  17.485  0.00  0.00    +0.000 OA
ATOM      4  H   UNL     1       4.642   2.268  18.882  0.00  0.00    +0.000 HD
ENDROOT
BRANCH   2   5
ATOM      5  C   UNL     1       5.864   4.313  17.753  0.00  0.00    +0.000 C 
ATOM      6  C   UNL     1       6.291   5.786  17.966  0.00  0.00    +0.000 C 
ATOM      7  C   UNL     1       6.917   6.145  16.625  0.00  0.00    +0.000 C 
ATOM      8  C   UNL     1       5.857   6.212  15.524  0.00  0.00    +0.000 C 
ATOM      9  C   UNL     1       5.591   4.735  15.237  0.00  0.00    +0.000 C 
ATOM     10  C   UNL     1       6.394   4.047  16.337  0.00  0.00    +0.000 C 
ATOM     11  O   UNL     1       7.587   4.886  16.329  0.00  0.00    +0.000 OA
BRANCH   6  12
ATOM     12  C   UNL     1       7.302   5.906  19.082  0.00  0.00    +0.000 C 
ATOM     13  O   UNL     1       7.266   5.220  20.096  0.00  0.00    +0.000 OA
BRANCH  12  14
ATOM     14  O   UNL     1       8.284   6.807  18.859  0.00  0.00    +0.000 OA
ATOM     15  H   UNL     1       8.854   6.578  18.089  0.00  0.00    +0.000 HD
ENDBRANCH  12  14
ENDBRANCH   6  12
ENDBRANCH   2   5
BRANCH   1  20
ATOM     16  C   UNL     1       1.854   3.077  19.956  0.00  0.00    +0.000 A 
ATOM     17  C   UNL     1       0.571   2.570  19.636  0.00  0.00    +0.000 A 
ATOM     18  N   UNL     1       0.526   1.982  18.441  0.00  0.00    +0.000 NA
ATOM     19  N   UNL     1       1.782   2.108  17.989  0.00  0.00    +0.000 N 
ATOM     20  C   UNL     1       2.630   2.756  18.856  0.00  0.00    +0.000 A 
ATOM     21  H   UNL     1       2.033   1.722  17.081  0.00  0.00    +0.000 HD
BRANCH  16  22
ATOM     22  C   UNL     1       2.267   3.707  21.187  0.00  0.00    +0.000 C 
ATOM     23  O   UNL     1       2.147   3.177  22.285  0.00  0.00    +0.000 OA
BRANCH  22  24
ATOM     24  O   UNL     1       2.694   4.985  20.970  0.00  0.00    +0.000 OA
BRANCH  24  26
ATOM     25  C   UNL     1       2.289   7.034  19.804  0.00  0.00    +0.000 C 
ATOM     26  C   UNL     1       1.676   5.946  20.669  0.00  0.00    +0.000 C 
ENDBRANCH  24  26
ENDBRANCH  22  24
ENDBRANCH  16  22
ENDBRANCH   1  20
TORSDOF 7
ENDMDL
MODEL 5
REMARK VINA RESULT:      -7.6      3.198      4.947
REMARK  Name = 
REMARK  8 active torsions:
REMARK  status: ('A' for Active; 'I' for Inactive)
REMARK    1  A    between atoms: C_1  and  C_2
REMARK    2  A    between atoms: C_2  and  O_3
REMARK    3  A    between atoms: O_3  and  C_4
REMARK    4  A    between atoms: C_4  and  C_6
REMARK    5  A    between atoms: C_10  and  N_11
REMARK    6  A    between atoms: C_12  and  C_14
REMARK    7  A    between atoms: C_15  and  C_16
REMARK    8  A    between atoms: C_16  and  O_18
REMARK                            x       y       z     vdW  Elec       q    Type
REMARK                         _______ _______ _______ _____ _____    ______ ____
ROOT
ATOM      1  N   UNL     1       4.123   5.209  17.288  0.00  0.00    +0.000 N 
ATOM      2  C   UNL     1       3.092   4.327  17.582  0.00  0.00    +0.000 C 
ATOM      3  O   UNL     1       3.021   3.193  17.113  0.00  0.00    +0.000 OA
ATOM      4  H   UNL     1       4.140   6.163  17.642  0.00  0.00    +0.000 HD
ENDROOT
BRANCH   2   5
ATOM      5  C   UNL     1       2.048   4.843  18.552  0.00  0.00    +0.000 C 
ATOM      6  C   UNL     1       2.689   5.531  19.782  0.00  0.00    +0.000 C 
ATOM      7  C   UNL     1       2.178   4.681  20.938  0.00  0.00    +0.000 C 
ATOM      8  C   UNL     1       2.804   3.285  20.913  0.00  0.00    +0.000 C 
ATOM      9  C   UNL     1       2.024   2.598  19.793  0.00  0.00    +0.000 C 
ATOM     10  C   UNL     1       1.203   3.751  19.223  0.00  0.00    +0.000 C 
ATOM     11  O   UNL     1       0.826   4.419  20.463  0.00  0.00    +0.000 OA
BRANCH   6  12
ATOM     12  C   UNL     1       2.220   6.960  19.915  0.00  0.00    +0.000 C 
ATOM     13  O   UNL     1       2.257   7.767  18.995  0.00  0.00    +0.000 OA
BRANCH  12  14
ATOM     14  O   UNL     1       1.712   7.277  21.127  0.00  0.00    +0.000 OA
ATOM     15  H   UNL     1       1.166   8.097  21.118  0.00  0.00    +0.000 HD
ENDBRANCH  12  14
ENDBRANCH   6  12
ENDBRANCH   2   5
BRANCH   1  20
ATOM     16  C   UNL     1       6.544   4.765  16.699  0.00  0.00    +0.000 A 
ATOM     17  C   UNL     1       7.078   4.265  15.487  0.00  0.00    +0.000 A 
ATOM     18  N   UNL     1       6.144   4.000  14.575  0.00  0.00    +0.000 NA
ATOM     19  N   UNL     1       5.004   4.331  15.197  0.00  0.00    +0.000 N 
ATOM     20  C   UNL     1       5.178   4.801  16.478  0.00  0.00    +0.000 A 
ATOM     21  H   UNL     1       4.115   4.238  14.708  0.00  0.00    +0.000 HD
BRANCH  16  22
ATOM     22  C   UNL     1       7.272   5.213  17.862  0.00  0.00    +0.000 C 
ATOM     23  O   UNL     1       8.004   4.481  18.518  0.00  0.00    +0.000 OA
BRANCH  22  24
ATOM     24  O   UNL     1       6.948   6.499  18.184  0.00  0.00    +0.000 OA
BRANCH  24  26
ATOM     25  C   UNL     1       8.232   8.513  18.064  0.00  0.00    +0.000 C 
ATOM     26  C   UNL     1       7.407   7.508  17.278  0.00  0.00    +0.000 C 
ENDBRANCH  24  26
ENDBRANCH  22  24
ENDBRANCH  16  22
ENDBRANCH   1  20
TORSDOF 7
ENDMDL
MODEL 6
REMARK VINA RESULT:      -7.6      3.649      6.567
REMARK  Name = 
REMARK  8 active torsions:
REMARK  status: ('A' for Active; 'I' for Inactive)
REMARK    1  A    between atoms: C_1  and  C_2
REMARK    2  A    between atoms: C_2  and  O_3
REMARK    3  A    between atoms: O_3  and  C_4
REMARK    4  A    between atoms: C_4  and  C_6
REMARK    5  A    between atoms: C_10  and  N_11
REMARK    6  A    between atoms: C_12  and  C_14
REMARK    7  A    between atoms: C_15  and  C_16
REMARK    8  A    between atoms: C_16  and  O_18
REMARK                            x       y       z     vdW  Elec       q    Type
REMARK                         _______ _______ _______ _____ _____    ______ ____
ROOT
ATOM      1  N   UNL     1       4.666   4.188  19.186  0.00  0.00    +0.000 N 
ATOM      2  C   UNL     1       5.213   3.822  17.964  0.00  0.00    +0.000 C 
ATOM      3  O   UNL     1       4.695   2.999  17.213  0.00  0.00    +0.000 OA
ATOM      4  H   UNL     1       5.134   4.831  19.821  0.00  0.00    +0.000 HD
ENDROOT
BRANCH   2   5
ATOM      5  C   UNL     1       6.501   4.527  17.589  0.00  0.00    +0.000 C 
ATOM      6  C   UNL     1       6.595   5.938  18.220  0.00  0.00    +0.000 C 
ATOM      7  C   UNL     1       6.689   6.840  16.996  0.00  0.00    +0.000 C 
ATOM      8  C   UNL     1       5.369   6.856  16.222  0.00  0.00    +0.000 C 
ATOM      9  C   UNL     1       5.404   5.515  15.491  0.00  0.00    +0.000 C 
ATOM     10  C   UNL     1       6.640   4.854  16.095  0.00  0.00    +0.000 C 
ATOM     11  O   UNL     1       7.531   6.007  16.149  0.00  0.00    +0.000 OA
BRANCH   6  12
ATOM     12  C   UNL     1       7.827   6.070  19.083  0.00  0.00    +0.000 C 
ATOM     13  O   UNL     1       8.202   5.197  19.855  0.00  0.00    +0.000 OA
BRANCH  12  14
ATOM     14  O   UNL     1       8.518   7.219  18.908  0.00  0.00    +0.000 OA
ATOM     15  H   UNL     1       9.404   7.082  18.499  0.00  0.00    +0.000 HD
ENDBRANCH  12  14
ENDBRANCH   6  12
ENDBRANCH   2   5
BRANCH   1  20
ATOM     16  C   UNL     1       2.163   3.831  19.075  0.00  0.00    +0.000 A 
ATOM     17  C   UNL     1       1.345   3.051  19.928  0.00  0.00    +0.000 A 
ATOM     18  N   UNL     1       2.032   2.437  20.892  0.00  0.00    +0.000 NA
ATOM     19  N   UNL     1       3.295   2.823  20.662  0.00  0.00    +0.000 N 
ATOM     20  C   UNL     1       3.439   3.665  19.584  0.00  0.00    +0.000 A 
ATOM     21  H   UNL     1       4.042   2.503  21.276  0.00  0.00    +0.000 HD
BRANCH  16  22
ATOM     22  C   UNL     1       1.741   4.672  17.981  0.00  0.00    +0.000 C 
ATOM     23  O   UNL     1       0.851   4.358  17.199  0.00  0.00    +0.000 OA
BRANCH  22  24
ATOM     24  O   UNL     1       2.528   5.781  17.877  0.00  0.00    +0.000 OA
BRANCH  24  26
ATOM     25  C   UNL     1       2.167   8.143  17.980  0.00  0.00    +0.000 C 
ATOM     26  C   UNL     1       2.229   6.852  18.779  0.00  0.00    +0.000 C 
ENDBRANCH  24  26
ENDBRANCH  22  24
ENDBRANCH  16  22
ENDBRANCH   1  20
TORSDOF 7
ENDMDL
MODEL 7
REMARK VINA RESULT:      -7.6      2.827      4.403
REMARK  Name = 
REMARK  8 active torsions:
REMARK  status: ('A' for Active; 'I' for Inactive)
REMARK    1  A    between atoms: C_1  and  C_2
REMARK    2  A    between atoms: C_2  and  O_3
REMARK    3  A    between atoms: O_3  and  C_4
REMARK    4  A    between atoms: C_4  and  C_6
REMARK    5  A    between atoms: C_10  and  N_11
REMARK    6  A    between atoms: C_12  and  C_14
REMARK    7  A    between atoms: C_15  and  C_16
REMARK    8  A    between atoms: C_16  and  O_18
REMARK                            x       y       z     vdW  Elec       q    Type
REMARK                         _______ _______ _______ _____ _____    ______ ____
ROOT
ATOM      1  N   UNL     1       5.501   4.807  18.966  0.00  0.00    +0.000 N 
ATOM      2  C   UNL     1       4.215   5.174  19.341  0.00  0.00    +0.000 C 
ATOM      3  O   UNL     1       3.790   6.324  19.254  0.00  0.00    +0.000 OA
ATOM      4  H   UNL     1       5.856   3.862  19.093  0.00  0.00    +0.000 HD
ENDROOT
BRANCH   2   5
ATOM      5  C   UNL     1       3.340   4.050  19.857  0.00  0.00    +0.000 C 
ATOM      6  C   UNL     1       4.026   2.669  19.713  0.00  0.00    +0.000 C 
ATOM      7  C   UNL     1       3.064   1.918  18.801  0.00  0.00    +0.000 C 
ATOM      8  C   UNL     1       3.081   2.501  17.386  0.00  0.00    +0.000 C 
ATOM      9  C   UNL     1       2.254   3.776  17.549  0.00  0.00    +0.000 C 
ATOM     10  C   UNL     1       2.046   3.829  19.060  0.00  0.00    +0.000 C 
ATOM     11  O   UNL     1       1.800   2.417  19.323  0.00  0.00    +0.000 OA
BRANCH   6  12
ATOM     12  C   UNL     1       4.151   1.978  21.050  0.00  0.00    +0.000 C 
ATOM     13  O   UNL     1       5.132   1.324  21.378  0.00  0.00    +0.000 OA
BRANCH  12  14
ATOM     14  O   UNL     1       3.106   2.173  21.885  0.00  0.00    +0.000 OA
ATOM     15  H   UNL     1       2.237   1.946  21.480  0.00  0.00    +0.000 HD
ENDBRANCH  12  14
ENDBRANCH   6  12
ENDBRANCH   2   5
BRANCH   1  20
ATOM     16  C   UNL     1       6.376   6.325  17.139  0.00  0.00    +0.000 A 
ATOM     17  C   UNL     1       7.498   7.189  17.173  0.00  0.00    +0.000 A 
ATOM     18  N   UNL     1       8.134   7.172  18.344  0.00  0.00    +0.000 NA
ATOM     19  N   UNL     1       7.424   6.294  19.067  0.00  0.00    +0.000 N 
ATOM     20  C   UNL     1       6.354   5.748  18.396  0.00  0.00    +0.000 A 
ATOM     21  H   UNL     1       7.708   6.076  20.020  0.00  0.00    +0.000 HD
BRANCH  16  22
ATOM     22  C   UNL     1       5.511   6.052  16.016  0.00  0.00    +0.000 C 
ATOM     23  O   UNL     1       5.002   6.932  15.332  0.00  0.00    +0.000 OA
BRANCH  22  24
ATOM     24  O   UNL     1       5.258   4.716  15.900  0.00  0.00    +0.000 OA
BRANCH  24  26
ATOM     25  C   UNL     1       6.028   3.896  13.789  0.00  0.00    +0.000 C 
ATOM     26  C   UNL     1       6.287   3.932  15.286  0.00  0.00    +0.000 C 
ENDBRANCH  24  26
ENDBRANCH  22  24
ENDBRANCH  16  22
ENDBRANCH   1  20
TORSDOF 7
ENDMDL
MODEL 8
REMARK VINA RESULT:      -7.6      3.747      6.854
REMARK  Name = 
REMARK  8 active torsions:
REMARK  status: ('A' for Active; 'I' for Inactive)
REMARK    1  A    between atoms: C_1  and  C_2
REMARK    2  A    between atoms: C_2  and  O_3
REMARK    3  A    between atoms: O_3  and  C_4
REMARK    4  A    between atoms: C_4  and  C_6
REMARK    5  A    between atoms: C_10  and  N_11
REMARK    6  A    between atoms: C_12  and  C_14
REMARK    7  A    between atoms: C_15  and  C_16
REMARK    8  A    between atoms: C_16  and  O_18
REMARK                            x       y       z     vdW  Elec       q    Type
REMARK                         _______ _______ _______ _____ _____    ______ ____
ROOT
ATOM      1  N   UNL     1       4.325   4.225  18.906  0.00  0.00    +0.000 N 
ATOM      2  C   UNL     1       4.566   4.124  17.543  0.00  0.00    +0.000 C 
ATOM      3  O   UNL     1       3.713   3.771  16.732  0.00  0.00    +0.000 OA
ATOM      4  H   UNL     1       5.056   4.467  19.572  0.00  0.00    +0.000 HD
ENDROOT
BRANCH   2   5
ATOM      5  C   UNL     1       5.965   4.502  17.098  0.00  0.00    +0.000 C 
ATOM      6  C   UNL     1       6.649   5.467  18.097  0.00  0.00    +0.000 C 
ATOM      7  C   UNL     1       6.914   6.697  17.238  0.00  0.00    +0.000 C 
ATOM      8  C   UNL     1       5.605   7.398  16.867  0.00  0.00    +0.000 C 
ATOM      9  C   UNL     1       5.052   6.495  15.766  0.00  0.00    +0.000 C 
ATOM     10  C   UNL     1       6.024   5.319  15.799  0.00  0.00    +0.000 C 
ATOM     11  O   UNL     1       7.276   6.043  15.988  0.00  0.00    +0.000 OA
BRANCH   6  12
ATOM     12  C   UNL     1       7.942   4.886  18.618  0.00  0.00    +0.000 C 
ATOM     13  O   UNL     1       8.437   5.206  19.691  0.00  0.00    +0.000 OA
BRANCH  12  14
ATOM     14  O   UNL     1       8.499   3.945  17.824  0.00  0.00    +0.000 OA
ATOM     15  H   UNL     1       8.093   3.054  17.934  0.00  0.00    +0.000 HD
ENDBRANCH  12  14
ENDBRANCH   6  12
ENDBRANCH   2   5
BRANCH   1  20
ATOM     16  C   UNL     1       2.073   4.845  19.882  0.00  0.00    +0.000 A 
ATOM     17  C   UNL     1       1.010   3.990  20.258  0.00  0.00    +0.000 A 
ATOM     18  N   UNL     1       1.274   2.702  20.040  0.00  0.00    +0.000 NA
ATOM     19  N   UNL     1       2.512   2.725  19.525  0.00  0.00    +0.000 N 
ATOM     20  C   UNL     1       3.048   3.986  19.407  0.00  0.00    +0.000 A 
ATOM     21  H   UNL     1       2.973   1.852  19.276  0.00  0.00    +0.000 HD
BRANCH  16  22
ATOM     22  C   UNL     1       2.147   6.278  20.042  0.00  0.00    +0.000 C 
ATOM     23  O   UNL     1       1.508   6.892  20.889  0.00  0.00    +0.000 OA
BRANCH  22  24
ATOM     24  O   UNL     1       2.919   6.845  19.070  0.00  0.00    +0.000 OA
BRANCH  24  26
ATOM     25  C   UNL     1       2.280   8.819  17.880  0.00  0.00    +0.000 C 
ATOM     26  C   UNL     1       2.226   7.300  17.902  0.00  0.00    +0.000 C 
ENDBRANCH  24  26
ENDBRANCH  22  24
ENDBRANCH  16  22
ENDBRANCH   1  20
TORSDOF 7
ENDMDL
MODEL 9
REMARK VINA RESULT:      -7.6      3.832      7.000
REMARK  Name = 
REMARK  8 active torsions:
REMARK  status: ('A' for Active; 'I' for Inactive)
REMARK    1  A    between atoms: C_1  and  C_2
REMARK    2  A    between atoms: C_2  and  O_3
REMARK    3  A    between atoms: O_3  and  C_4
REMARK    4  A    between atoms: C_4  and  C_6
REMARK    5  A    between atoms: C_10  and  N_11
REMARK    6  A    between atoms: C_12  and  C_14
REMARK    7  A    between atoms: C_15  and  C_16
REMARK    8  A    between atoms: C_16  and  O_18
REMARK                            x       y       z     vdW  Elec       q    Type
REMARK                         _______ _______ _______ _____ _____    ______ ____
ROOT
ATOM      1  N   UNL     1       4.455   4.295  19.439  0.00  0.00    +0.000 N 
ATOM      2  C   UNL     1       4.938   3.905  18.197  0.00  0.00    +0.000 C 
ATOM      3  O   UNL     1       4.326   3.153  17.441  0.00  0.00    +0.000 OA
ATOM      4  H   UNL     1       4.997   4.875  20.076  0.00  0.00    +0.000 HD
ENDROOT
BRANCH   2   5
ATOM      5  C   UNL     1       6.282   4.488  17.807  0.00  0.00    +0.000 C 
ATOM      6  C   UNL     1       6.464   5.930  18.339  0.00  0.00    +0.000 C 
ATOM      7  C   UNL     1       6.650   6.733  17.057  0.00  0.00    +0.000 C 
ATOM      8  C   UNL     1       5.352   6.786  16.250  0.00  0.00    +0.000 C 
ATOM      9  C   UNL     1       5.305   5.396  15.616  0.00  0.00    +0.000 C 
ATOM     10  C   UNL     1       6.476   4.695  16.298  0.00  0.00    +0.000 C 
ATOM     11  O   UNL     1       7.447   5.783  16.294  0.00  0.00    +0.000 OA
BRANCH   6  12
ATOM     12  C   UNL     1       7.684   6.037  19.223  0.00  0.00    +0.000 C 
ATOM     13  O   UNL     1       7.928   5.248  20.127  0.00  0.00    +0.000 OA
BRANCH  12  14
ATOM     14  O   UNL     1       8.518   7.054  18.913  0.00  0.00    +0.000 OA
ATOM     15  H   UNL     1       8.465   7.326  17.968  0.00  0.00    +0.000 HD
ENDBRANCH  12  14
ENDBRANCH   6  12
ENDBRANCH   2   5
BRANCH   1  20
ATOM     16  C   UNL     1       2.024   4.597  20.073  0.00  0.00    +0.000 A 
ATOM     17  C   UNL     1       1.095   3.616  20.497  0.00  0.00    +0.000 A 
ATOM     18  N   UNL     1       1.615   2.389  20.539  0.00  0.00    +0.000 NA
ATOM     19  N   UNL     1       2.882   2.579  20.145  0.00  0.00    +0.000 N 
ATOM     20  C   UNL     1       3.191   3.887  19.853  0.00  0.00    +0.000 A 
ATOM     21  H   UNL     1       3.522   1.788  20.101  0.00  0.00    +0.000 HD
BRANCH  16  22
ATOM     22  C   UNL     1       1.815   6.022  19.980  0.00  0.00    +0.000 C 
ATOM     23  O   UNL     1       1.423   6.706  20.919  0.00  0.00    +0.000 OA
BRANCH  22  24
ATOM     24  O   UNL     1       2.001   6.467  18.703  0.00  0.00    +0.000 OA
BRANCH  24  26
ATOM     25  C   UNL     1       2.081   8.657  17.746  0.00  0.00    +0.000 C 
ATOM     26  C   UNL     1       2.840   7.618  18.554  0.00  0.00    +0.000 C 
ENDBRANCH  24  26
ENDBRANCH  22  24
ENDBRANCH  16  22
ENDBRANCH   1  20
TORSDOF 7
ENDMDL
