MODEL 1
REMARK VINA RESULT:      -8.2      0.000      0.000
REMARK  Name = 
REMARK  5 active torsions:
REMARK  status: ('A' for Active; 'I' for Inactive)
REMARK    1  A    between atoms: C_1  and  O_2
REMARK    2  A    between atoms: O_2  and  C_3
REMARK    3  A    between atoms: C_6  and  C_7
REMARK    4  A    between atoms: N_8  and  C_9
REMARK    5  A    between atoms: C_19  and  C_20
REMARK                            x       y       z     vdW  Elec       q    Type
REMARK                         _______ _______ _______ _____ _____    ______ ____
ROOT
ATOM      1  C   UNL     1       7.675   5.637  18.335  0.00  0.00    +0.000 A 
ATOM      2  N   UNL     1       8.401   4.702  17.713  0.00  0.00    +0.000 NA
ATOM      3  N   UNL     1       7.629   4.162  16.704  0.00  0.00    +0.000 NA
ATOM      4  C   UNL     1       6.459   4.741  16.830  0.00  0.00    +0.000 A 
ATOM      5  C   UNL     1       5.614   5.285  15.809  0.00  0.00    +0.000 A 
ATOM      6 CL   UNL     1       5.619   4.617  14.238  0.00  0.00    +0.000 Cl
ATOM      7  N   UNL     1       4.849   6.320  16.050  0.00  0.00    +0.000 NA
ATOM      8  C   UNL     1       4.624   6.688  17.426  0.00  0.00    +0.000 A 
ATOM      9  C   UNL     1       3.410   7.330  17.633  0.00  0.00    +0.000 A 
ATOM     10  C   UNL     1       2.398   6.612  18.254  0.00  0.00    +0.000 A 
ATOM     11  C   UNL     1       2.666   5.319  18.719  0.00  0.00    +0.000 A 
ATOM     12  C   UNL     1       1.506   4.356  18.773  0.00  0.00    +0.000 C 
ATOM     13  C   UNL     1       4.022   4.934  18.862  0.00  0.00    +0.000 A 
ATOM     14  C   UNL     1       5.058   5.789  18.403  0.00  0.00    +0.000 A 
ATOM     15  N   UNL     1       6.332   5.236  18.108  0.00  0.00    +0.000 N 
ENDROOT
BRANCH   1  17
ATOM     16  C   UNL     1       8.159   7.819  18.007  0.00  0.00    +0.000 C 
ATOM     17  N   UNL     1       8.107   6.835  18.878  0.00  0.00    +0.000 NA
BRANCH  16  21
ATOM     18  C   UNL     1       9.201  11.963  18.892  0.00  0.00    +0.000 A 
ATOM     19  C   UNL     1       8.441  11.627  17.759  0.00  0.00    +0.000 A 
ATOM     20  C   UNL     1       8.072  10.302  17.471  0.00  0.00    +0.000 A 
ATOM     21  C   UNL     1       8.466   9.260  18.293  0.00  0.00    +0.000 A 
ATOM     22  C   UNL     1       9.275   9.584  19.421  0.00  0.00    +0.000 A 
ATOM     23  C   UNL     1       9.626  10.927  19.721  0.00  0.00    +0.000 A 
BRANCH  18  25
ATOM     24  C   UNL     1       9.935  13.992  17.865  0.00  0.00    +0.000 C 
ATOM     25  O   UNL     1       9.503  13.289  19.027  0.00  0.00    +0.000 OA
ENDBRANCH  18  25
ENDBRANCH  16  21
ENDBRANCH   1  17
TORSDOF 3
ENDMDL
MODEL 2
REMARK VINA RESULT:      -7.6      4.227      6.138
REMARK  Name = 
REMARK  5 active torsions:
REMARK  status: ('A' for Active; 'I' for Inactive)
REMARK    1  A    between atoms: C_1  and  O_2
REMARK    2  A    between atoms: O_2  and  C_3
REMARK    3  A    between atoms: C_6  and  C_7
REMARK    4  A    between atoms: N_8  and  C_9
REMARK    5  A    between atoms: C_19  and  C_20
REMARK                            x       y       z     vdW  Elec       q    Type
REMARK                         _______ _______ _______ _____ _____    ______ ____
ROOT
ATOM      1  C   UNL     1       2.291   5.568  19.096  0.00  0.00    +0.000 A 
ATOM      2  N   UNL     1       1.465   4.585  19.469  0.00  0.00    +0.000 NA
ATOM      3  N   UNL     1       2.164   3.396  19.420  0.00  0.00    +0.000 NA
ATOM      4  C   UNL     1       3.342   3.719  18.943  0.00  0.00    +0.000 A 
ATOM      5  C   UNL     1       4.636   3.293  19.387  0.00  0.00    +0.000 A 
ATOM      6 CL   UNL     1       4.842   1.753  20.093  0.00  0.00    +0.000 Cl
ATOM      7  N   UNL     1       5.674   4.086  19.291  0.00  0.00    +0.000 NA
ATOM      8  C   UNL     1       5.562   5.244  18.439  0.00  0.00    +0.000 A 
ATOM      9  C   UNL     1       6.780   5.660  17.914  0.00  0.00    +0.000 A 
ATOM     10  C   UNL     1       7.025   5.403  16.573  0.00  0.00    +0.000 A 
ATOM     11  C   UNL     1       6.017   4.824  15.794  0.00  0.00    +0.000 A 
ATOM     12  C   UNL     1       6.454   3.985  14.618  0.00  0.00    +0.000 C 
ATOM     13  C   UNL     1       4.693   4.851  16.297  0.00  0.00    +0.000 A 
ATOM     14  C   UNL     1       4.440   5.320  17.613  0.00  0.00    +0.000 A 
ATOM     15  N   UNL     1       3.248   4.918  18.273  0.00  0.00    +0.000 N 
ENDROOT
BRANCH   1  17
ATOM     16  C   UNL     1       1.787   7.746  18.773  0.00  0.00    +0.000 C 
ATOM     17  N   UNL     1       2.347   6.867  19.575  0.00  0.00    +0.000 NA
BRANCH  16  21
ATOM     18  C   UNL     1       1.137  12.014  19.411  0.00  0.00    +0.000 A 
ATOM     19  C   UNL     1       0.646  11.057  20.315  0.00  0.00    +0.000 A 
ATOM     20  C   UNL     1       0.867   9.680  20.142  0.00  0.00    +0.000 A 
ATOM     21  C   UNL     1       1.571   9.206  19.048  0.00  0.00    +0.000 A 
ATOM     22  C   UNL     1       2.036  10.164  18.102  0.00  0.00    +0.000 A 
ATOM     23  C   UNL     1       1.829  11.556  18.293  0.00  0.00    +0.000 A 
BRANCH  18  25
ATOM     24  C   UNL     1       0.049  14.033  18.741  0.00  0.00    +0.000 C 
ATOM     25  O   UNL     1       0.821  13.313  19.698  0.00  0.00    +0.000 OA
ENDBRANCH  18  25
ENDBRANCH  16  21
ENDBRANCH   1  17
TORSDOF 3
ENDMDL
MODEL 3
REMARK VINA RESULT:      -7.6      6.950      9.770
REMARK  Name = 
REMARK  5 active torsions:
REMARK  status: ('A' for Active; 'I' for Inactive)
REMARK    1  A    between atoms: C_1  and  O_2
REMARK    2  A    between atoms: O_2  and  C_3
REMARK    3  A    between atoms: C_6  and  C_7
REMARK    4  A    between atoms: N_8  and  C_9
REMARK    5  A    between atoms: C_19  and  C_20
REMARK                            x       y       z     vdW  Elec       q    Type
REMARK                         _______ _______ _______ _____ _____    ______ ____
ROOT
ATOM      1  C   UNL     1       1.073   9.540  21.430  0.00  0.00    +0.000 A 
ATOM      2  N   UNL     1       0.940   9.336  22.744  0.00  0.00    +0.000 NA
ATOM      3  N   UNL     1       0.096  10.306  23.245  0.00  0.00    +0.000 NA
ATOM      4  C   UNL     1      -0.163  11.086  22.222  0.00  0.00    +0.000 A 
ATOM      5  C   UNL     1      -1.420  11.637  21.811  0.00  0.00    +0.000 A 
ATOM      6 CL   UNL     1      -2.626  11.993  22.966  0.00  0.00    +0.000 Cl
ATOM      7  N   UNL     1      -1.680  11.845  20.545  0.00  0.00    +0.000 NA
ATOM      8  C   UNL     1      -0.576  11.827  19.617  0.00  0.00    +0.000 A 
ATOM      9  C   UNL     1      -0.790  12.615  18.492  0.00  0.00    +0.000 A 
ATOM     10  C   UNL     1      -0.100  13.816  18.407  0.00  0.00    +0.000 A 
ATOM     11  C   UNL     1       0.833  14.139  19.398  0.00  0.00    +0.000 A 
ATOM     12  C   UNL     1       1.068  15.605  19.668  0.00  0.00    +0.000 C 
ATOM     13  C   UNL     1       1.296  13.096  20.237  0.00  0.00    +0.000 A 
ATOM     14  C   UNL     1       0.710  11.805  20.159  0.00  0.00    +0.000 A 
ATOM     15  N   UNL     1       0.818  10.928  21.270  0.00  0.00    +0.000 N 
ENDROOT
BRANCH   1  17
ATOM     16  C   UNL     1       1.684   7.446  20.844  0.00  0.00    +0.000 C 
ATOM     17  N   UNL     1       1.201   8.595  20.426  0.00  0.00    +0.000 NA
BRANCH  16  21
ATOM     18  C   UNL     1       2.254   3.840  18.453  0.00  0.00    +0.000 A 
ATOM     19  C   UNL     1       1.729   3.778  19.754  0.00  0.00    +0.000 A 
ATOM     20  C   UNL     1       1.513   4.929  20.530  0.00  0.00    +0.000 A 
ATOM     21  C   UNL     1       1.832   6.185  20.043  0.00  0.00    +0.000 A 
ATOM     22  C   UNL     1       2.406   6.256  18.741  0.00  0.00    +0.000 A 
ATOM     23  C   UNL     1       2.602   5.092  17.951  0.00  0.00    +0.000 A 
BRANCH  18  25
ATOM     24  C   UNL     1       3.433   1.764  18.347  0.00  0.00    +0.000 C 
ATOM     25  O   UNL     1       2.431   2.636  17.830  0.00  0.00    +0.000 OA
ENDBRANCH  18  25
ENDBRANCH  16  21
ENDBRANCH   1  17
TORSDOF 3
ENDMDL
MODEL 4
REMARK VINA RESULT:      -7.6      4.153      5.992
REMARK  Name = 
REMARK  5 active torsions:
REMARK  status: ('A' for Active; 'I' for Inactive)
REMARK    1  A    between atoms: C_1  and  O_2
REMARK    2  A    between atoms: O_2  and  C_3
REMARK    3  A    between atoms: C_6  and  C_7
REMARK    4  A    between atoms: N_8  and  C_9
REMARK    5  A    between atoms: C_19  and  C_20
REMARK                            x       y       z     vdW  Elec       q    Type
REMARK                         _______ _______ _______ _____ _____    ______ ____
ROOT
ATOM      1  C   UNL     1       2.263   5.561  19.013  0.00  0.00    +0.000 A 
ATOM      2  N   UNL     1       1.447   4.550  19.329  0.00  0.00    +0.000 NA
ATOM      3  N   UNL     1       2.179   3.381  19.287  0.00  0.00    +0.000 NA
ATOM      4  C   UNL     1       3.368   3.744  18.868  0.00  0.00    +0.000 A 
ATOM      5  C   UNL     1       4.653   3.343  19.360  0.00  0.00    +0.000 A 
ATOM      6 CL   UNL     1       4.869   1.793  20.043  0.00  0.00    +0.000 Cl
ATOM      7  N   UNL     1       5.672   4.164  19.326  0.00  0.00    +0.000 NA
ATOM      8  C   UNL     1       5.567   5.337  18.495  0.00  0.00    +0.000 A 
ATOM      9  C   UNL     1       6.794   5.796  18.033  0.00  0.00    +0.000 A 
ATOM     10  C   UNL     1       7.104   5.575  16.698  0.00  0.00    +0.000 A 
ATOM     11  C   UNL     1       6.147   4.986  15.864  0.00  0.00    +0.000 A 
ATOM     12  C   UNL     1       6.658   4.185  14.692  0.00  0.00    +0.000 C 
ATOM     13  C   UNL     1       4.802   4.968  16.309  0.00  0.00    +0.000 A 
ATOM     14  C   UNL     1       4.479   5.402  17.621  0.00  0.00    +0.000 A 
ATOM     15  N   UNL     1       3.272   4.955  18.220  0.00  0.00    +0.000 N 
ENDROOT
BRANCH   1  17
ATOM     16  C   UNL     1       1.826   7.751  18.666  0.00  0.00    +0.000 C 
ATOM     17  N   UNL     1       2.262   6.850  19.520  0.00  0.00    +0.000 NA
BRANCH  16  21
ATOM     18  C   UNL     1       1.162  11.958  19.615  0.00  0.00    +0.000 A 
ATOM     19  C   UNL     1       1.802  11.569  18.427  0.00  0.00    +0.000 A 
ATOM     20  C   UNL     1       2.002  10.220  18.090  0.00  0.00    +0.000 A 
ATOM     21  C   UNL     1       1.586   9.207  18.938  0.00  0.00    +0.000 A 
ATOM     22  C   UNL     1       0.975   9.590  20.167  0.00  0.00    +0.000 A 
ATOM     23  C   UNL     1       0.755  10.955  20.492  0.00  0.00    +0.000 A 
BRANCH  18  25
ATOM     24  C   UNL     1       1.847  13.879  20.859  0.00  0.00    +0.000 C 
ATOM     25  O   UNL     1       1.061  13.306  19.818  0.00  0.00    +0.000 OA
ENDBRANCH  18  25
ENDBRANCH  16  21
ENDBRANCH   1  17
TORSDOF 3
ENDMDL
MODEL 5
REMARK VINA RESULT:      -7.5      4.618      6.663
REMARK  Name = 
REMARK  5 active torsions:
REMARK  status: ('A' for Active; 'I' for Inactive)
REMARK    1  A    between atoms: C_1  and  O_2
REMARK    2  A    between atoms: O_2  and  C_3
REMARK    3  A    between atoms: C_6  and  C_7
REMARK    4  A    between atoms: N_8  and  C_9
REMARK    5  A    between atoms: C_19  and  C_20
REMARK                            x       y       z     vdW  Elec       q    Type
REMARK                         _______ _______ _______ _____ _____    ______ ____
ROOT
ATOM      1  C   UNL     1       1.826   4.605  20.069  0.00  0.00    +0.000 A 
ATOM      2  N   UNL     1       1.181   3.460  20.317  0.00  0.00    +0.000 NA
ATOM      3  N   UNL     1       2.015   2.415  19.975  0.00  0.00    +0.000 NA
ATOM      4  C   UNL     1       3.079   2.989  19.465  0.00  0.00    +0.000 A 
ATOM      5  C   UNL     1       4.459   2.685  19.699  0.00  0.00    +0.000 A 
ATOM      6 CL   UNL     1       4.942   1.090  20.071  0.00  0.00    +0.000 Cl
ATOM      7  N   UNL     1       5.369   3.626  19.665  0.00  0.00    +0.000 NA
ATOM      8  C   UNL     1       5.013   4.889  19.068  0.00  0.00    +0.000 A 
ATOM      9  C   UNL     1       6.097   5.568  18.525  0.00  0.00    +0.000 A 
ATOM     10  C   UNL     1       6.214   5.595  17.143  0.00  0.00    +0.000 A 
ATOM     11  C   UNL     1       5.205   5.023  16.361  0.00  0.00    +0.000 A 
ATOM     12  C   UNL     1       5.605   4.483  15.010  0.00  0.00    +0.000 C 
ATOM     13  C   UNL     1       3.956   4.764  16.978  0.00  0.00    +0.000 A 
ATOM     14  C   UNL     1       3.801   4.946  18.377  0.00  0.00    +0.000 A 
ATOM     15  N   UNL     1       2.756   4.261  19.053  0.00  0.00    +0.000 N 
ENDROOT
BRANCH   1  17
ATOM     16  C   UNL     1       1.522   6.843  20.036  0.00  0.00    +0.000 C 
ATOM     17  N   UNL     1       1.771   5.790  20.784  0.00  0.00    +0.000 NA
BRANCH  16  21
ATOM     18  C   UNL     1       0.718  10.948  21.282  0.00  0.00    +0.000 A 
ATOM     19  C   UNL     1       0.820   9.906  22.219  0.00  0.00    +0.000 A 
ATOM     20  C   UNL     1       1.105   8.583  21.841  0.00  0.00    +0.000 A 
ATOM     21  C   UNL     1       1.279   8.247  20.510  0.00  0.00    +0.000 A 
ATOM     22  C   UNL     1       1.135   9.286  19.546  0.00  0.00    +0.000 A 
ATOM     23  C   UNL     1       0.870  10.626  19.935  0.00  0.00    +0.000 A 
BRANCH  18  25
ATOM     24  C   UNL     1      -0.918  12.387  22.261  0.00  0.00    +0.000 C 
ATOM     25  O   UNL     1       0.413  12.177  21.796  0.00  0.00    +0.000 OA
ENDBRANCH  18  25
ENDBRANCH  16  21
ENDBRANCH   1  17
TORSDOF 3
ENDMDL
MODEL 6
REMARK VINA RESULT:      -7.5      5.020      7.186
REMARK  Name = 
REMARK  5 active torsions:
REMARK  status: ('A' for Active; 'I' for Inactive)
REMARK    1  A    between atoms: C_1  and  O_2
REMARK    2  A    between atoms: O_2  and  C_3
REMARK    3  A    between atoms: C_6  and  C_7
REMARK    4  A    between atoms: N_8  and  C_9
REMARK    5  A    between atoms: C_19  and  C_20
REMARK                            x       y       z     vdW  Elec       q    Type
REMARK                         _______ _______ _______ _____ _____    ______ ____
ROOT
ATOM      1  C   UNL     1       3.036   7.561  17.976  0.00  0.00    +0.000 A 
ATOM      2  N   UNL     1       4.277   7.897  17.608  0.00  0.00    +0.000 NA
ATOM      3  N   UNL     1       5.002   6.735  17.437  0.00  0.00    +0.000 NA
ATOM      4  C   UNL     1       4.183   5.774  17.792  0.00  0.00    +0.000 A 
ATOM      5  C   UNL     1       3.938   4.521  17.141  0.00  0.00    +0.000 A 
ATOM      6 CL   UNL     1       5.176   3.753  16.251  0.00  0.00    +0.000 Cl
ATOM      7  N   UNL     1       2.756   3.959  17.189  0.00  0.00    +0.000 NA
ATOM      8  C   UNL     1       1.816   4.445  18.168  0.00  0.00    +0.000 A 
ATOM      9  C   UNL     1       0.898   3.484  18.574  0.00  0.00    +0.000 A 
ATOM     10  C   UNL     1       1.059   2.933  19.838  0.00  0.00    +0.000 A 
ATOM     11  C   UNL     1       2.070   3.422  20.672  0.00  0.00    +0.000 A 
ATOM     12  C   UNL     1       2.649   2.463  21.683  0.00  0.00    +0.000 C 
ATOM     13  C   UNL     1       2.647   4.675  20.349  0.00  0.00    +0.000 A 
ATOM     14  C   UNL     1       2.304   5.326  19.135  0.00  0.00    +0.000 A 
ATOM     15  N   UNL     1       3.192   6.293  18.594  0.00  0.00    +0.000 N 
ENDROOT
BRANCH   1  17
ATOM     16  C   UNL     1       1.321   8.883  18.621  0.00  0.00    +0.000 C 
ATOM     17  N   UNL     1       1.846   8.184  17.638  0.00  0.00    +0.000 NA
BRANCH  16  21
ATOM     18  C   UNL     1      -2.280  11.333  18.349  0.00  0.00    +0.000 A 
ATOM     19  C   UNL     1      -1.413  11.428  19.450  0.00  0.00    +0.000 A 
ATOM     20  C   UNL     1      -0.235  10.668  19.544  0.00  0.00    +0.000 A 
ATOM     21  C   UNL     1       0.111   9.769  18.550  0.00  0.00    +0.000 A 
ATOM     22  C   UNL     1      -0.784   9.631  17.450  0.00  0.00    +0.000 A 
ATOM     23  C   UNL     1      -1.962  10.418  17.348  0.00  0.00    +0.000 A 
BRANCH  18  25
ATOM     24  C   UNL     1      -4.604  11.592  17.858  0.00  0.00    +0.000 C 
ATOM     25  O   UNL     1      -3.399  12.116  18.410  0.00  0.00    +0.000 OA
ENDBRANCH  18  25
ENDBRANCH  16  21
ENDBRANCH   1  17
TORSDOF 3
ENDMDL
MODEL 7
REMARK VINA RESULT:      -7.5      7.022      9.789
REMARK  Name = 
REMARK  5 active torsions:
REMARK  status: ('A' for Active; 'I' for Inactive)
REMARK    1  A    between atoms: C_1  and  O_2
REMARK    2  A    between atoms: O_2  and  C_3
REMARK    3  A    between atoms: C_6  and  C_7
REMARK    4  A    between atoms: N_8  and  C_9
REMARK    5  A    between atoms: C_19  and  C_20
REMARK                            x       y       z     vdW  Elec       q    Type
REMARK                         _______ _______ _______ _____ _____    ______ ____
ROOT
ATOM      1  C   UNL     1       0.690   9.372  21.671  0.00  0.00    +0.000 A 
ATOM      2  N   UNL     1       0.647   9.338  23.007  0.00  0.00    +0.000 NA
ATOM      3  N   UNL     1      -0.043  10.452  23.441  0.00  0.00    +0.000 NA
ATOM      4  C   UNL     1      -0.302  11.133  22.350  0.00  0.00    +0.000 A 
ATOM      5  C   UNL     1      -1.523  11.774  21.964  0.00  0.00    +0.000 A 
ATOM      6 CL   UNL     1      -2.582  12.400  23.147  0.00  0.00    +0.000 Cl
ATOM      7  N   UNL     1      -1.865  11.863  20.703  0.00  0.00    +0.000 NA
ATOM      8  C   UNL     1      -0.852  11.610  19.709  0.00  0.00    +0.000 A 
ATOM      9  C   UNL     1      -1.074  12.281  18.513  0.00  0.00    +0.000 A 
ATOM     10  C   UNL     1      -0.269  13.376  18.230  0.00  0.00    +0.000 A 
ATOM     11  C   UNL     1       0.773  13.701  19.105  0.00  0.00    +0.000 A 
ATOM     12  C   UNL     1       1.185  15.151  19.173  0.00  0.00    +0.000 C 
ATOM     13  C   UNL     1       1.190  12.715  20.033  0.00  0.00    +0.000 A 
ATOM     14  C   UNL     1       0.466  11.501  20.157  0.00  0.00    +0.000 A 
ATOM     15  N   UNL     1       0.573  10.751  21.359  0.00  0.00    +0.000 N 
ENDROOT
BRANCH   1  17
ATOM     16  C   UNL     1       1.708   7.553  20.800  0.00  0.00    +0.000 C 
ATOM     17  N   UNL     1       0.631   8.308  20.786  0.00  0.00    +0.000 NA
BRANCH  16  21
ATOM     18  C   UNL     1       2.155   3.761  18.686  0.00  0.00    +0.000 A 
ATOM     19  C   UNL     1       2.681   4.955  18.164  0.00  0.00    +0.000 A 
ATOM     20  C   UNL     1       2.572   6.181  18.842  0.00  0.00    +0.000 A 
ATOM     21  C   UNL     1       1.914   6.265  20.057  0.00  0.00    +0.000 A 
ATOM     22  C   UNL     1       1.338   5.069  20.575  0.00  0.00    +0.000 A 
ATOM     23  C   UNL     1       1.471   3.827  19.898  0.00  0.00    +0.000 A 
BRANCH  18  25
ATOM     24  C   UNL     1       3.493   1.871  18.099  0.00  0.00    +0.000 C 
ATOM     25  O   UNL     1       2.318   2.653  17.903  0.00  0.00    +0.000 OA
ENDBRANCH  18  25
ENDBRANCH  16  21
ENDBRANCH   1  17
TORSDOF 3
ENDMDL
MODEL 8
REMARK VINA RESULT:      -7.5      4.425      6.938
REMARK  Name = 
REMARK  5 active torsions:
REMARK  status: ('A' for Active; 'I' for Inactive)
REMARK    1  A    between atoms: C_1  and  O_2
REMARK    2  A    between atoms: O_2  and  C_3
REMARK    3  A    between atoms: C_6  and  C_7
REMARK    4  A    between atoms: N_8  and  C_9
REMARK    5  A    between atoms: C_19  and  C_20
REMARK                            x       y       z     vdW  Elec       q    Type
REMARK                         _______ _______ _______ _____ _____    ______ ____
ROOT
ATOM      1  C   UNL     1       2.308   5.677  19.195  0.00  0.00    +0.000 A 
ATOM      2  N   UNL     1       1.487   4.648  19.431  0.00  0.00    +0.000 NA
ATOM      3  N   UNL     1       2.220   3.483  19.329  0.00  0.00    +0.000 NA
ATOM      4  C   UNL     1       3.416   3.871  18.956  0.00  0.00    +0.000 A 
ATOM      5  C   UNL     1       4.691   3.437  19.445  0.00  0.00    +0.000 A 
ATOM      6 CL   UNL     1       4.895   1.848  20.033  0.00  0.00    +0.000 Cl
ATOM      7  N   UNL     1       5.711   4.258  19.481  0.00  0.00    +0.000 NA
ATOM      8  C   UNL     1       5.621   5.481  18.723  0.00  0.00    +0.000 A 
ATOM      9  C   UNL     1       6.857   5.966  18.313  0.00  0.00    +0.000 A 
ATOM     10  C   UNL     1       7.191   5.829  16.973  0.00  0.00    +0.000 A 
ATOM     11  C   UNL     1       6.249   5.296  16.087  0.00  0.00    +0.000 A 
ATOM     12  C   UNL     1       6.781   4.569  14.876  0.00  0.00    +0.000 C 
ATOM     13  C   UNL     1       4.896   5.252  16.505  0.00  0.00    +0.000 A 
ATOM     14  C   UNL     1       4.550   5.602  17.836  0.00  0.00    +0.000 A 
ATOM     15  N   UNL     1       3.332   5.120  18.384  0.00  0.00    +0.000 N 
ENDROOT
BRANCH   1  17
ATOM     16  C   UNL     1       1.097   7.346  20.116  0.00  0.00    +0.000 C 
ATOM     17  N   UNL     1       2.299   6.931  19.782  0.00  0.00    +0.000 NA
BRANCH  16  21
ATOM     18  C   UNL     1       0.034  11.040  22.182  0.00  0.00    +0.000 A 
ATOM     19  C   UNL     1      -0.078   9.791  22.815  0.00  0.00    +0.000 A 
ATOM     20  C   UNL     1       0.284   8.593  22.177  0.00  0.00    +0.000 A 
ATOM     21  C   UNL     1       0.754   8.595  20.875  0.00  0.00    +0.000 A 
ATOM     22  C   UNL     1       0.830   9.852  20.207  0.00  0.00    +0.000 A 
ATOM     23  C   UNL     1       0.485  11.063  20.864  0.00  0.00    +0.000 A 
BRANCH  18  25
ATOM     24  C   UNL     1      -1.752  12.487  22.834  0.00  0.00    +0.000 C 
ATOM     25  O   UNL     1      -0.379  12.114  22.920  0.00  0.00    +0.000 OA
ENDBRANCH  18  25
ENDBRANCH  16  21
ENDBRANCH   1  17
TORSDOF 3
ENDMDL
MODEL 9
REMARK VINA RESULT:      -7.4      4.373      6.312
REMARK  Name = 
REMARK  5 active torsions:
REMARK  status: ('A' for Active; 'I' for Inactive)
REMARK    1  A    between atoms: C_1  and  O_2
REMARK    2  A    between atoms: O_2  and  C_3
REMARK    3  A    between atoms: C_6  and  C_7
REMARK    4  A    between atoms: N_8  and  C_9
REMARK    5  A    between atoms: C_19  and  C_20
REMARK                            x       y       z     vdW  Elec       q    Type
REMARK                         _______ _______ _______ _____ _____    ______ ____
ROOT
ATOM      1  C   UNL     1       3.355   4.698  19.305  0.00  0.00    +0.000 A 
ATOM      2  N   UNL     1       3.860   4.014  20.336  0.00  0.00    +0.000 NA
ATOM      3  N   UNL     1       5.227   3.929  20.165  0.00  0.00    +0.000 NA
ATOM      4  C   UNL     1       5.455   4.492  19.003  0.00  0.00    +0.000 A 
ATOM      5  C   UNL     1       6.485   5.422  18.645  0.00  0.00    +0.000 A 
ATOM      6 CL   UNL     1       8.000   5.377  19.429  0.00  0.00    +0.000 Cl
ATOM      7  N   UNL     1       6.273   6.342  17.737  0.00  0.00    +0.000 NA
ATOM      8  C   UNL     1       5.123   6.193  16.880  0.00  0.00    +0.000 A 
ATOM      9  C   UNL     1       5.283   6.789  15.635  0.00  0.00    +0.000 A 
ATOM     10  C   UNL     1       5.491   5.955  14.545  0.00  0.00    +0.000 A 
ATOM     11  C   UNL     1       5.444   4.569  14.727  0.00  0.00    +0.000 A 
ATOM     12  C   UNL     1       6.269   3.725  13.787  0.00  0.00    +0.000 C 
ATOM     13  C   UNL     1       4.843   4.076  15.911  0.00  0.00    +0.000 A 
ATOM     14  C   UNL     1       4.443   4.975  16.934  0.00  0.00    +0.000 A 
ATOM     15  N   UNL     1       4.296   4.491  18.262  0.00  0.00    +0.000 N 
ENDROOT
BRANCH   1  17
ATOM     16  C   UNL     1       2.630   6.811  19.641  0.00  0.00    +0.000 C 
ATOM     17  N   UNL     1       2.292   5.586  19.305  0.00  0.00    +0.000 NA
BRANCH  16  21
ATOM     18  C   UNL     1       0.022  10.304  19.431  0.00  0.00    +0.000 A 
ATOM     19  C   UNL     1       0.154   9.561  20.616  0.00  0.00    +0.000 A 
ATOM     20  C   UNL     1       1.009   8.450  20.712  0.00  0.00    +0.000 A 
ATOM     21  C   UNL     1       1.749   8.027  19.621  0.00  0.00    +0.000 A 
ATOM     22  C   UNL     1       1.590   8.746  18.401  0.00  0.00    +0.000 A 
ATOM     23  C   UNL     1       0.742   9.882  18.315  0.00  0.00    +0.000 A 
BRANCH  18  25
ATOM     24  C   UNL     1      -1.986  11.300  18.603  0.00  0.00    +0.000 C 
ATOM     25  O   UNL     1      -0.865  11.343  19.482  0.00  0.00    +0.000 OA
ENDBRANCH  18  25
ENDBRANCH  16  21
ENDBRANCH   1  17
TORSDOF 3
ENDMDL
