MODEL 1
REMARK VINA RESULT:      -8.1      0.000      0.000
REMARK  Name = 
REMARK  5 active torsions:
REMARK  status: ('A' for Active; 'I' for Inactive)
REMARK    1  A    between atoms: C_1  and  N_2
REMARK    2  A    between atoms: N_5  and  C_6
REMARK    3  A    between atoms: C_9  and  N_10
REMARK    4  A    between atoms: C_14  and  N_15
REMARK    5  A    between atoms: C_16  and  C_18
REMARK                            x       y       z     vdW  Elec       q    Type
REMARK                         _______ _______ _______ _____ _____    ______ ____
ROOT
ATOM      1  N   UNL     1       0.597  10.645  18.315  0.00  0.00    +0.000 N 
ATOM      2  C   UNL     1      -0.196  11.409  19.173  0.00  0.00    +0.000 A 
ATOM      3  N   UNL     1       0.070  11.378  20.491  0.00  0.00    +0.000 NA
ATOM      4  C   UNL     1      -0.678  12.135  21.310  0.00  0.00    +0.000 A 
ATOM      5  C   UNL     1      -1.685  12.956  20.866  0.00  0.00    +0.000 A 
ATOM      6  C   UNL     1      -1.896  12.903  19.499  0.00  0.00    +0.000 A 
ATOM      7  N   UNL     1      -1.178  12.143  18.638  0.00  0.00    +0.000 NA
ATOM      8  H   UNL     1       0.127  10.577  17.422  0.00  0.00    +0.000 HD
ENDROOT
BRANCH   1  12
ATOM      9  C   UNL     1       2.535   7.013  19.389  0.00  0.00    +0.000 A 
ATOM     10  C   UNL     1       1.745   7.713  20.308  0.00  0.00    +0.000 A 
ATOM     11  C   UNL     1       1.107   8.907  19.966  0.00  0.00    +0.000 A 
ATOM     12  C   UNL     1       1.261   9.463  18.697  0.00  0.00    +0.000 A 
ATOM     13  C   UNL     1       2.041   8.781  17.767  0.00  0.00    +0.000 A 
ATOM     14  C   UNL     1       2.684   7.587  18.119  0.00  0.00    +0.000 A 
BRANCH   9  19
ATOM     15  C   UNL     1       3.863   1.652  19.110  0.00  0.00    +0.000 C 
ATOM     16  N   UNL     1       3.854   2.997  19.680  0.00  0.00    +0.000 NA
ATOM     17  C   UNL     1       2.472   3.420  19.996  0.00  0.00    +0.000 C 
ATOM     18  C   UNL     1       2.410   4.843  20.596  0.00  0.00    +0.000 C 
ATOM     19  N   UNL     1       3.086   5.790  19.699  0.00  0.00    +0.000 N 
ATOM     20  C   UNL     1       4.451   5.408  19.313  0.00  0.00    +0.000 C 
ATOM     21  C   UNL     1       4.449   3.974  18.739  0.00  0.00    +0.000 C 
ENDBRANCH   9  19
ENDBRANCH   1  12
BRANCH   5  22
ATOM     22  N   UNL     1      -2.446  13.821  21.673  0.00  0.00    +0.000 N 
ATOM     23  C   UNL     1      -3.341  13.433  22.662  0.00  0.00    +0.000 C 
ATOM     24  O   UNL     1      -3.638  12.282  22.936  0.00  0.00    +0.000 OA
ATOM     25  H   UNL     1      -2.370  14.811  21.464  0.00  0.00    +0.000 HD
BRANCH  23  26
ATOM     26  C   UNL     1      -3.965  14.550  23.427  0.00  0.00    +0.000 A 
ATOM     27  C   UNL     1      -5.306  14.920  23.209  0.00  0.00    +0.000 A 
ATOM     28 CL   UNL     1      -6.382  14.052  22.164  0.00  0.00    +0.000 Cl
ATOM     29  C   UNL     1      -5.855  16.025  23.870  0.00  0.00    +0.000 A 
ATOM     30  C   UNL     1      -5.093  16.746  24.780  0.00  0.00    +0.000 A 
ATOM     31  C   UNL     1      -3.785  16.356  25.049  0.00  0.00    +0.000 A 
ATOM     32  C   UNL     1      -3.218  15.267  24.378  0.00  0.00    +0.000 A 
ATOM     33 CL   UNL     1      -1.565  14.921  24.766  0.00  0.00    +0.000 Cl
ENDBRANCH  23  26
ENDBRANCH   5  22
TORSDOF 4
ENDMDL
MODEL 2
REMARK VINA RESULT:      -7.9      0.334      1.683
REMARK  Name = 
REMARK  5 active torsions:
REMARK  status: ('A' for Active; 'I' for Inactive)
REMARK    1  A    between atoms: C_1  and  N_2
REMARK    2  A    between atoms: N_5  and  C_6
REMARK    3  A    between atoms: C_9  and  N_10
REMARK    4  A    between atoms: C_14  and  N_15
REMARK    5  A    between atoms: C_16  and  C_18
REMARK                            x       y       z     vdW  Elec       q    Type
REMARK                         _______ _______ _______ _____ _____    ______ ____
ROOT
ATOM      1  N   UNL     1       0.899  10.534  18.215  0.00  0.00    +0.000 N 
ATOM      2  C   UNL     1       0.075  11.296  19.045  0.00  0.00    +0.000 A 
ATOM      3  N   UNL     1       0.261  11.225  20.375  0.00  0.00    +0.000 NA
ATOM      4  C   UNL     1      -0.517  11.980  21.168  0.00  0.00    +0.000 A 
ATOM      5  C   UNL     1      -1.475  12.838  20.687  0.00  0.00    +0.000 A 
ATOM      6  C   UNL     1      -1.605  12.825  19.309  0.00  0.00    +0.000 A 
ATOM      7  N   UNL     1      -0.855  12.069  18.473  0.00  0.00    +0.000 NA
ATOM      8  H   UNL     1       0.482  10.501  17.294  0.00  0.00    +0.000 HD
ENDROOT
BRANCH   1  12
ATOM      9  C   UNL     1       2.674   6.825  19.310  0.00  0.00    +0.000 A 
ATOM     10  C   UNL     1       1.910   7.561  20.222  0.00  0.00    +0.000 A 
ATOM     11  C   UNL     1       1.325   8.780  19.873  0.00  0.00    +0.000 A 
ATOM     12  C   UNL     1       1.510   9.326  18.604  0.00  0.00    +0.000 A 
ATOM     13  C   UNL     1       2.265   8.608  17.680  0.00  0.00    +0.000 A 
ATOM     14  C   UNL     1       2.854   7.390  18.039  0.00  0.00    +0.000 A 
BRANCH   9  19
ATOM     15  C   UNL     1       3.842   1.429  19.009  0.00  0.00    +0.000 C 
ATOM     16  N   UNL     1       3.849   2.765  19.598  0.00  0.00    +0.000 NA
ATOM     17  C   UNL     1       2.468   3.229  19.857  0.00  0.00    +0.000 C 
ATOM     18  C   UNL     1       2.424   4.645  20.476  0.00  0.00    +0.000 C 
ATOM     19  N   UNL     1       3.171   5.581  19.625  0.00  0.00    +0.000 N 
ATOM     20  C   UNL     1       4.539   5.161  19.297  0.00  0.00    +0.000 C 
ATOM     21  C   UNL     1       4.518   3.735  18.701  0.00  0.00    +0.000 C 
ENDBRANCH   9  19
ENDBRANCH   1  12
BRANCH   5  22
ATOM     22  N   UNL     1      -2.261  13.701  21.471  0.00  0.00    +0.000 N 
ATOM     23  C   UNL     1      -2.917  13.361  22.647  0.00  0.00    +0.000 C 
ATOM     24  O   UNL     1      -2.951  12.246  23.143  0.00  0.00    +0.000 OA
ATOM     25  H   UNL     1      -2.404  14.636  21.103  0.00  0.00    +0.000 HD
BRANCH  23  26
ATOM     26  C   UNL     1      -3.625  14.483  23.328  0.00  0.00    +0.000 A 
ATOM     27  C   UNL     1      -2.985  15.249  24.322  0.00  0.00    +0.000 A 
ATOM     28 CL   UNL     1      -1.315  15.067  24.744  0.00  0.00    +0.000 Cl
ATOM     29  C   UNL     1      -3.688  16.242  25.015  0.00  0.00    +0.000 A 
ATOM     30  C   UNL     1      -5.014  16.511  24.702  0.00  0.00    +0.000 A 
ATOM     31  C   UNL     1      -5.640  15.802  23.682  0.00  0.00    +0.000 A 
ATOM     32  C   UNL     1      -4.956  14.791  22.997  0.00  0.00    +0.000 A 
ATOM     33 CL   UNL     1      -5.868  13.950  21.788  0.00  0.00    +0.000 Cl
ENDBRANCH  23  26
ENDBRANCH   5  22
TORSDOF 4
ENDMDL
MODEL 3
REMARK VINA RESULT:      -7.8      1.536      2.021
REMARK  Name = 
REMARK  5 active torsions:
REMARK  status: ('A' for Active; 'I' for Inactive)
REMARK    1  A    between atoms: C_1  and  N_2
REMARK    2  A    between atoms: N_5  and  C_6
REMARK    3  A    between atoms: C_9  and  N_10
REMARK    4  A    between atoms: C_14  and  N_15
REMARK    5  A    between atoms: C_16  and  C_18
REMARK                            x       y       z     vdW  Elec       q    Type
REMARK                         _______ _______ _______ _____ _____    ______ ____
ROOT
ATOM      1  N   UNL     1       0.913  10.747  18.299  0.00  0.00    +0.000 N 
ATOM      2  C   UNL     1      -0.137  11.367  18.980  0.00  0.00    +0.000 A 
ATOM      3  N   UNL     1      -0.303  11.096  20.286  0.00  0.00    +0.000 NA
ATOM      4  C   UNL     1      -1.298  11.715  20.944  0.00  0.00    +0.000 A 
ATOM      5  C   UNL     1      -2.137  12.628  20.353  0.00  0.00    +0.000 A 
ATOM      6  C   UNL     1      -1.899  12.824  19.004  0.00  0.00    +0.000 A 
ATOM      7  N   UNL     1      -0.920  12.210  18.298  0.00  0.00    +0.000 NA
ATOM      8  H   UNL     1       0.754  10.851  17.306  0.00  0.00    +0.000 HD
ENDROOT
BRANCH   1  12
ATOM      9  C   UNL     1       2.485   6.924  19.305  0.00  0.00    +0.000 A 
ATOM     10  C   UNL     1       1.780   7.687  20.242  0.00  0.00    +0.000 A 
ATOM     11  C   UNL     1       1.261   8.944  19.922  0.00  0.00    +0.000 A 
ATOM     12  C   UNL     1       1.458   9.499  18.659  0.00  0.00    +0.000 A 
ATOM     13  C   UNL     1       2.156   8.754  17.711  0.00  0.00    +0.000 A 
ATOM     14  C   UNL     1       2.678   7.498  18.041  0.00  0.00    +0.000 A 
BRANCH   9  19
ATOM     15  C   UNL     1       3.618   1.539  18.759  0.00  0.00    +0.000 C 
ATOM     16  N   UNL     1       3.553   2.826  19.446  0.00  0.00    +0.000 NA
ATOM     17  C   UNL     1       2.155   3.302  19.531  0.00  0.00    +0.000 C 
ATOM     18  C   UNL     1       2.036   4.667  20.246  0.00  0.00    +0.000 C 
ATOM     19  N   UNL     1       2.914   5.647  19.593  0.00  0.00    +0.000 N 
ATOM     20  C   UNL     1       4.310   5.220  19.440  0.00  0.00    +0.000 C 
ATOM     21  C   UNL     1       4.362   3.845  18.738  0.00  0.00    +0.000 C 
ENDBRANCH   9  19
ENDBRANCH   1  12
BRANCH   5  22
ATOM     22  N   UNL     1      -3.143  13.355  21.014  0.00  0.00    +0.000 N 
ATOM     23  C   UNL     1      -4.500  13.058  21.007  0.00  0.00    +0.000 C 
ATOM     24  O   UNL     1      -5.023  12.152  20.379  0.00  0.00    +0.000 OA
ATOM     25  H   UNL     1      -2.847  14.203  21.485  0.00  0.00    +0.000 HD
BRANCH  23  26
ATOM     26  C   UNL     1      -5.349  13.945  21.852  0.00  0.00    +0.000 A 
ATOM     27  C   UNL     1      -5.453  13.744  23.242  0.00  0.00    +0.000 A 
ATOM     28 CL   UNL     1      -4.521  12.570  24.111  0.00  0.00    +0.000 Cl
ATOM     29  C   UNL     1      -6.321  14.528  24.011  0.00  0.00    +0.000 A 
ATOM     30  C   UNL     1      -7.061  15.542  23.417  0.00  0.00    +0.000 A 
ATOM     31  C   UNL     1      -6.924  15.790  22.055  0.00  0.00    +0.000 A 
ATOM     32  C   UNL     1      -6.078  14.999  21.271  0.00  0.00    +0.000 A 
ATOM     33 CL   UNL     1      -6.041  15.379  19.581  0.00  0.00    +0.000 Cl
ENDBRANCH  23  26
ENDBRANCH   5  22
TORSDOF 4
ENDMDL
MODEL 4
REMARK VINA RESULT:      -7.7      4.792     11.899
REMARK  Name = 
REMARK  5 active torsions:
REMARK  status: ('A' for Active; 'I' for Inactive)
REMARK    1  A    between atoms: C_1  and  N_2
REMARK    2  A    between atoms: N_5  and  C_6
REMARK    3  A    between atoms: C_9  and  N_10
REMARK    4  A    between atoms: C_14  and  N_15
REMARK    5  A    between atoms: C_16  and  C_18
REMARK                            x       y       z     vdW  Elec       q    Type
REMARK                         _______ _______ _______ _____ _____    ______ ____
ROOT
ATOM      1  N   UNL     1       0.442   8.645  22.007  0.00  0.00    +0.000 N 
ATOM      2  C   UNL     1       1.180   8.091  20.958  0.00  0.00    +0.000 A 
ATOM      3  N   UNL     1       1.646   8.910  19.999  0.00  0.00    +0.000 NA
ATOM      4  C   UNL     1       2.378   8.376  19.007  0.00  0.00    +0.000 A 
ATOM      5  C   UNL     1       2.693   7.041  18.937  0.00  0.00    +0.000 A 
ATOM      6  C   UNL     1       2.150   6.279  19.958  0.00  0.00    +0.000 A 
ATOM      7  N   UNL     1       1.394   6.771  20.967  0.00  0.00    +0.000 NA
ATOM      8  H   UNL     1      -0.037   7.896  22.490  0.00  0.00    +0.000 HD
ENDROOT
BRANCH   1  12
ATOM      9  C   UNL     1      -1.946  12.155  21.724  0.00  0.00    +0.000 A 
ATOM     10  C   UNL     1      -1.415  11.545  20.583  0.00  0.00    +0.000 A 
ATOM     11  C   UNL     1      -0.629  10.394  20.664  0.00  0.00    +0.000 A 
ATOM     12  C   UNL     1      -0.316   9.826  21.899  0.00  0.00    +0.000 A 
ATOM     13  C   UNL     1      -0.837  10.417  23.048  0.00  0.00    +0.000 A 
ATOM     14  C   UNL     1      -1.620  11.574  22.958  0.00  0.00    +0.000 A 
BRANCH   9  19
ATOM     15  C   UNL     1      -6.335  15.431  22.483  0.00  0.00    +0.000 C 
ATOM     16  N   UNL     1      -5.037  15.045  21.938  0.00  0.00    +0.000 NA
ATOM     17  C   UNL     1      -5.150  13.795  21.156  0.00  0.00    +0.000 C 
ATOM     18  C   UNL     1      -3.796  13.341  20.563  0.00  0.00    +0.000 C 
ATOM     19  N   UNL     1      -2.797  13.233  21.635  0.00  0.00    +0.000 N 
ATOM     20  C   UNL     1      -2.663  14.429  22.477  0.00  0.00    +0.000 C 
ATOM     21  C   UNL     1      -4.048  14.842  23.022  0.00  0.00    +0.000 C 
ENDBRANCH   9  19
ENDBRANCH   1  12
BRANCH   5  22
ATOM     22  N   UNL     1       3.514   6.449  17.962  0.00  0.00    +0.000 N 
ATOM     23  C   UNL     1       4.685   5.741  18.205  0.00  0.00    +0.000 C 
ATOM     24  O   UNL     1       5.199   5.577  19.300  0.00  0.00    +0.000 OA
ATOM     25  H   UNL     1       3.251   6.611  16.996  0.00  0.00    +0.000 HD
BRANCH  23  26
ATOM     26  C   UNL     1       5.331   5.148  17.000  0.00  0.00    +0.000 A 
ATOM     27  C   UNL     1       6.514   5.694  16.466  0.00  0.00    +0.000 A 
ATOM     28 CL   UNL     1       7.395   6.985  17.215  0.00  0.00    +0.000 Cl
ATOM     29  C   UNL     1       7.063   5.184  15.284  0.00  0.00    +0.000 A 
ATOM     30  C   UNL     1       6.467   4.104  14.645  0.00  0.00    +0.000 A 
ATOM     31  C   UNL     1       5.332   3.517  15.193  0.00  0.00    +0.000 A 
ATOM     32  C   UNL     1       4.760   4.033  16.361  0.00  0.00    +0.000 A 
ATOM     33 CL   UNL     1       3.317   3.244  16.906  0.00  0.00    +0.000 Cl
ENDBRANCH  23  26
ENDBRANCH   5  22
TORSDOF 4
ENDMDL
MODEL 5
REMARK VINA RESULT:      -7.7      2.737      3.421
REMARK  Name = 
REMARK  5 active torsions:
REMARK  status: ('A' for Active; 'I' for Inactive)
REMARK    1  A    between atoms: C_1  and  N_2
REMARK    2  A    between atoms: N_5  and  C_6
REMARK    3  A    between atoms: C_9  and  N_10
REMARK    4  A    between atoms: C_14  and  N_15
REMARK    5  A    between atoms: C_16  and  C_18
REMARK                            x       y       z     vdW  Elec       q    Type
REMARK                         _______ _______ _______ _____ _____    ______ ____
ROOT
ATOM      1  N   UNL     1       1.232  10.200  20.119  0.00  0.00    +0.000 N 
ATOM      2  C   UNL     1       0.019  10.808  19.787  0.00  0.00    +0.000 A 
ATOM      3  N   UNL     1      -1.035  10.023  19.503  0.00  0.00    +0.000 NA
ATOM      4  C   UNL     1      -2.207  10.612  19.210  0.00  0.00    +0.000 A 
ATOM      5  C   UNL     1      -2.386  11.974  19.210  0.00  0.00    +0.000 A 
ATOM      6  C   UNL     1      -1.239  12.694  19.494  0.00  0.00    +0.000 A 
ATOM      7  N   UNL     1      -0.035  12.144  19.778  0.00  0.00    +0.000 NA
ATOM      8  H   UNL     1       1.964  10.895  20.057  0.00  0.00    +0.000 HD
ENDROOT
BRANCH   1  12
ATOM      9  C   UNL     1       2.319   6.342  18.690  0.00  0.00    +0.000 A 
ATOM     10  C   UNL     1       1.878   6.531  20.004  0.00  0.00    +0.000 A 
ATOM     11  C   UNL     1       1.521   7.793  20.484  0.00  0.00    +0.000 A 
ATOM     12  C   UNL     1       1.622   8.923  19.673  0.00  0.00    +0.000 A 
ATOM     13  C   UNL     1       2.056   8.756  18.360  0.00  0.00    +0.000 A 
ATOM     14  C   UNL     1       2.419   7.488  17.888  0.00  0.00    +0.000 A 
BRANCH   9  19
ATOM     15  C   UNL     1       4.026   1.093  18.373  0.00  0.00    +0.000 C 
ATOM     16  N   UNL     1       3.434   2.335  17.885  0.00  0.00    +0.000 NA
ATOM     17  C   UNL     1       4.408   3.445  17.969  0.00  0.00    +0.000 C 
ATOM     18  C   UNL     1       3.824   4.786  17.469  0.00  0.00    +0.000 C 
ATOM     19  N   UNL     1       2.581   5.086  18.192  0.00  0.00    +0.000 N 
ATOM     20  C   UNL     1       1.584   4.007  18.182  0.00  0.00    +0.000 C 
ATOM     21  C   UNL     1       2.232   2.694  18.673  0.00  0.00    +0.000 C 
ENDBRANCH   9  19
ENDBRANCH   1  12
BRANCH   5  22
ATOM     22  N   UNL     1      -3.606  12.633  18.983  0.00  0.00    +0.000 N 
ATOM     23  C   UNL     1      -4.644  12.762  19.897  0.00  0.00    +0.000 C 
ATOM     24  O   UNL     1      -4.668  12.272  21.015  0.00  0.00    +0.000 OA
ATOM     25  H   UNL     1      -3.755  12.991  18.045  0.00  0.00    +0.000 HD
BRANCH  23  26
ATOM     26  C   UNL     1      -5.803  13.576  19.433  0.00  0.00    +0.000 A 
ATOM     27  C   UNL     1      -6.801  13.017  18.610  0.00  0.00    +0.000 A 
ATOM     28 CL   UNL     1      -6.860  11.340  18.182  0.00  0.00    +0.000 Cl
ATOM     29  C   UNL     1      -7.837  13.814  18.109  0.00  0.00    +0.000 A 
ATOM     30  C   UNL     1      -7.916  15.158  18.451  0.00  0.00    +0.000 A 
ATOM     31  C   UNL     1      -6.970  15.709  19.310  0.00  0.00    +0.000 A 
ATOM     32  C   UNL     1      -5.917  14.929  19.799  0.00  0.00    +0.000 A 
ATOM     33 CL   UNL     1      -4.779  15.751  20.815  0.00  0.00    +0.000 Cl
ENDBRANCH  23  26
ENDBRANCH   5  22
TORSDOF 4
ENDMDL
MODEL 6
REMARK VINA RESULT:      -7.7      1.450      1.679
REMARK  Name = 
REMARK  5 active torsions:
REMARK  status: ('A' for Active; 'I' for Inactive)
REMARK    1  A    between atoms: C_1  and  N_2
REMARK    2  A    between atoms: N_5  and  C_6
REMARK    3  A    between atoms: C_9  and  N_10
REMARK    4  A    between atoms: C_14  and  N_15
REMARK    5  A    between atoms: C_16  and  C_18
REMARK                            x       y       z     vdW  Elec       q    Type
REMARK                         _______ _______ _______ _____ _____    ______ ____
ROOT
ATOM      1  N   UNL     1       0.949  10.664  18.403  0.00  0.00    +0.000 N 
ATOM      2  C   UNL     1      -0.149  11.219  19.064  0.00  0.00    +0.000 A 
ATOM      3  N   UNL     1      -0.367  10.877  20.345  0.00  0.00    +0.000 NA
ATOM      4  C   UNL     1      -1.408  11.434  20.985  0.00  0.00    +0.000 A 
ATOM      5  C   UNL     1      -2.246  12.353  20.402  0.00  0.00    +0.000 A 
ATOM      6  C   UNL     1      -1.952  12.624  19.077  0.00  0.00    +0.000 A 
ATOM      7  N   UNL     1      -0.925  12.074  18.388  0.00  0.00    +0.000 NA
ATOM      8  H   UNL     1       0.833  10.814  17.409  0.00  0.00    +0.000 HD
ENDROOT
BRANCH   1  12
ATOM      9  C   UNL     1       2.580   6.837  19.295  0.00  0.00    +0.000 A 
ATOM     10  C   UNL     1       1.879   7.569  20.259  0.00  0.00    +0.000 A 
ATOM     11  C   UNL     1       1.342   8.827  19.977  0.00  0.00    +0.000 A 
ATOM     12  C   UNL     1       1.514   9.415  18.724  0.00  0.00    +0.000 A 
ATOM     13  C   UNL     1       2.206   8.701  17.750  0.00  0.00    +0.000 A 
ATOM     14  C   UNL     1       2.748   7.443  18.042  0.00  0.00    +0.000 A 
BRANCH   9  19
ATOM     15  C   UNL     1       3.664   1.453  18.650  0.00  0.00    +0.000 C 
ATOM     16  N   UNL     1       3.651   2.738  19.343  0.00  0.00    +0.000 NA
ATOM     17  C   UNL     1       2.264   3.215  19.534  0.00  0.00    +0.000 C 
ATOM     18  C   UNL     1       2.200   4.578  20.260  0.00  0.00    +0.000 C 
ATOM     19  N   UNL     1       3.028   5.559  19.546  0.00  0.00    +0.000 N 
ATOM     20  C   UNL     1       4.408   5.131  19.288  0.00  0.00    +0.000 C 
ATOM     21  C   UNL     1       4.406   3.758  18.579  0.00  0.00    +0.000 C 
ENDBRANCH   9  19
ENDBRANCH   1  12
BRANCH   5  22
ATOM     22  N   UNL     1      -3.302  13.017  21.051  0.00  0.00    +0.000 N 
ATOM     23  C   UNL     1      -3.171  14.057  21.963  0.00  0.00    +0.000 C 
ATOM     24  O   UNL     1      -2.114  14.509  22.375  0.00  0.00    +0.000 OA
ATOM     25  H   UNL     1      -4.234  12.658  20.875  0.00  0.00    +0.000 HD
BRANCH  23  26
ATOM     26  C   UNL     1      -4.453  14.641  22.450  0.00  0.00    +0.000 A 
ATOM     27  C   UNL     1      -5.171  14.041  23.502  0.00  0.00    +0.000 A 
ATOM     28 CL   UNL     1      -4.588  12.685  24.409  0.00  0.00    +0.000 Cl
ATOM     29  C   UNL     1      -6.416  14.548  23.892  0.00  0.00    +0.000 A 
ATOM     30  C   UNL     1      -6.940  15.675  23.271  0.00  0.00    +0.000 A 
ATOM     31  C   UNL     1      -6.214  16.312  22.271  0.00  0.00    +0.000 A 
ATOM     32  C   UNL     1      -4.979  15.802  21.856  0.00  0.00    +0.000 A 
ATOM     33 CL   UNL     1      -4.204  16.659  20.564  0.00  0.00    +0.000 Cl
ENDBRANCH  23  26
ENDBRANCH   5  22
TORSDOF 4
ENDMDL
MODEL 7
REMARK VINA RESULT:      -7.6      4.689     11.791
REMARK  Name = 
REMARK  5 active torsions:
REMARK  status: ('A' for Active; 'I' for Inactive)
REMARK    1  A    between atoms: C_1  and  N_2
REMARK    2  A    between atoms: N_5  and  C_6
REMARK    3  A    between atoms: C_9  and  N_10
REMARK    4  A    between atoms: C_14  and  N_15
REMARK    5  A    between atoms: C_16  and  C_18
REMARK                            x       y       z     vdW  Elec       q    Type
REMARK                         _______ _______ _______ _____ _____    ______ ____
ROOT
ATOM      1  N   UNL     1       0.372   8.923  22.075  0.00  0.00    +0.000 N 
ATOM      2  C   UNL     1       1.094   8.333  21.035  0.00  0.00    +0.000 A 
ATOM      3  N   UNL     1       1.516   9.112  20.024  0.00  0.00    +0.000 NA
ATOM      4  C   UNL     1       2.232   8.545  19.039  0.00  0.00    +0.000 A 
ATOM      5  C   UNL     1       2.573   7.214  19.026  0.00  0.00    +0.000 A 
ATOM      6  C   UNL     1       2.075   6.493  20.097  0.00  0.00    +0.000 A 
ATOM      7  N   UNL     1       1.336   7.019  21.103  0.00  0.00    +0.000 NA
ATOM      8  H   UNL     1      -0.077   8.190  22.608  0.00  0.00    +0.000 HD
ENDROOT
BRANCH   1  12
ATOM      9  C   UNL     1      -2.100  12.363  21.675  0.00  0.00    +0.000 A 
ATOM     10  C   UNL     1      -1.474  11.787  20.565  0.00  0.00    +0.000 A 
ATOM     11  C   UNL     1      -0.659  10.659  20.685  0.00  0.00    +0.000 A 
ATOM     12  C   UNL     1      -0.413  10.083  21.931  0.00  0.00    +0.000 A 
ATOM     13  C   UNL     1      -1.029  10.640  23.049  0.00  0.00    +0.000 A 
ATOM     14  C   UNL     1      -1.840  11.774  22.921  0.00  0.00    +0.000 A 
BRANCH   9  19
ATOM     15  C   UNL     1      -6.138  15.978  22.768  0.00  0.00    +0.000 C 
ATOM     16  N   UNL     1      -5.069  15.369  21.982  0.00  0.00    +0.000 NA
ATOM     17  C   UNL     1      -5.378  13.952  21.689  0.00  0.00    +0.000 C 
ATOM     18  C   UNL     1      -4.269  13.262  20.862  0.00  0.00    +0.000 C 
ATOM     19  N   UNL     1      -2.976  13.416  21.541  0.00  0.00    +0.000 N 
ATOM     20  C   UNL     1      -2.626  14.797  21.897  0.00  0.00    +0.000 C 
ATOM     21  C   UNL     1      -3.778  15.436  22.704  0.00  0.00    +0.000 C 
ENDBRANCH   9  19
ENDBRANCH   1  12
BRANCH   5  22
ATOM     22  N   UNL     1       3.381   6.591  18.059  0.00  0.00    +0.000 N 
ATOM     23  C   UNL     1       4.493   5.800  18.314  0.00  0.00    +0.000 C 
ATOM     24  O   UNL     1       4.964   5.575  19.418  0.00  0.00    +0.000 OA
ATOM     25  H   UNL     1       3.157   6.794  17.090  0.00  0.00    +0.000 HD
BRANCH  23  26
ATOM     26  C   UNL     1       5.132   5.193  17.112  0.00  0.00    +0.000 A 
ATOM     27  C   UNL     1       4.573   4.064  16.483  0.00  0.00    +0.000 A 
ATOM     28 CL   UNL     1       3.053   3.369  16.939  0.00  0.00    +0.000 Cl
ATOM     29  C   UNL     1       5.229   3.452  15.409  0.00  0.00    +0.000 A 
ATOM     30  C   UNL     1       6.421   3.975  14.924  0.00  0.00    +0.000 A 
ATOM     31  C   UNL     1       6.954   5.125  15.499  0.00  0.00    +0.000 A 
ATOM     32  C   UNL     1       6.321   5.733  16.588  0.00  0.00    +0.000 A 
ATOM     33 CL   UNL     1       7.118   7.125  17.242  0.00  0.00    +0.000 Cl
ENDBRANCH  23  26
ENDBRANCH   5  22
TORSDOF 4
ENDMDL
MODEL 8
REMARK VINA RESULT:      -7.5      0.950      2.123
REMARK  Name = 
REMARK  5 active torsions:
REMARK  status: ('A' for Active; 'I' for Inactive)
REMARK    1  A    between atoms: C_1  and  N_2
REMARK    2  A    between atoms: N_5  and  C_6
REMARK    3  A    between atoms: C_9  and  N_10
REMARK    4  A    between atoms: C_14  and  N_15
REMARK    5  A    between atoms: C_16  and  C_18
REMARK                            x       y       z     vdW  Elec       q    Type
REMARK                         _______ _______ _______ _____ _____    ______ ____
ROOT
ATOM      1  N   UNL     1       1.101  10.759  18.683  0.00  0.00    +0.000 N 
ATOM      2  C   UNL     1      -0.039  11.319  19.263  0.00  0.00    +0.000 A 
ATOM      3  N   UNL     1      -0.482  10.812  20.427  0.00  0.00    +0.000 NA
ATOM      4  C   UNL     1      -1.564  11.371  20.994  0.00  0.00    +0.000 A 
ATOM      5  C   UNL     1      -2.224  12.449  20.456  0.00  0.00    +0.000 A 
ATOM      6  C   UNL     1      -1.706  12.883  19.248  0.00  0.00    +0.000 A 
ATOM      7  N   UNL     1      -0.629  12.340  18.633  0.00  0.00    +0.000 NA
ATOM      8  H   UNL     1       1.155  11.068  17.721  0.00  0.00    +0.000 HD
ENDROOT
BRANCH   1  12
ATOM      9  C   UNL     1       2.421   6.766  19.331  0.00  0.00    +0.000 A 
ATOM     10  C   UNL     1       2.487   7.355  18.063  0.00  0.00    +0.000 A 
ATOM     11  C   UNL     1       2.054   8.664  17.839  0.00  0.00    +0.000 A 
ATOM     12  C   UNL     1       1.509   9.424  18.873  0.00  0.00    +0.000 A 
ATOM     13  C   UNL     1       1.437   8.857  20.143  0.00  0.00    +0.000 A 
ATOM     14  C   UNL     1       1.867   7.542  20.358  0.00  0.00    +0.000 A 
BRANCH   9  19
ATOM     15  C   UNL     1       3.711   1.431  18.665  0.00  0.00    +0.000 C 
ATOM     16  N   UNL     1       3.671   2.718  19.353  0.00  0.00    +0.000 NA
ATOM     17  C   UNL     1       2.273   3.135  19.599  0.00  0.00    +0.000 C 
ATOM     18  C   UNL     1       2.179   4.499  20.321  0.00  0.00    +0.000 C 
ATOM     19  N   UNL     1       2.934   5.511  19.569  0.00  0.00    +0.000 N 
ATOM     20  C   UNL     1       4.320   5.142  19.256  0.00  0.00    +0.000 C 
ATOM     21  C   UNL     1       4.349   3.765  18.555  0.00  0.00    +0.000 C 
ENDBRANCH   9  19
ENDBRANCH   1  12
BRANCH   5  22
ATOM     22  N   UNL     1      -3.313  13.113  21.047  0.00  0.00    +0.000 N 
ATOM     23  C   UNL     1      -3.808  12.887  22.326  0.00  0.00    +0.000 C 
ATOM     24  O   UNL     1      -3.401  12.037  23.102  0.00  0.00    +0.000 OA
ATOM     25  H   UNL     1      -3.810  13.772  20.457  0.00  0.00    +0.000 HD
BRANCH  23  26
ATOM     26  C   UNL     1      -4.926  13.781  22.742  0.00  0.00    +0.000 A 
ATOM     27  C   UNL     1      -4.688  14.923  23.530  0.00  0.00    +0.000 A 
ATOM     28 CL   UNL     1      -3.104  15.474  23.966  0.00  0.00    +0.000 Cl
ATOM     29  C   UNL     1      -5.755  15.705  23.988  0.00  0.00    +0.000 A 
ATOM     30  C   UNL     1      -7.060  15.385  23.636  0.00  0.00    +0.000 A 
ATOM     31  C   UNL     1      -7.304  14.293  22.809  0.00  0.00    +0.000 A 
ATOM     32  C   UNL     1      -6.249  13.490  22.364  0.00  0.00    +0.000 A 
ATOM     33 CL   UNL     1      -6.695  12.131  21.386  0.00  0.00    +0.000 Cl
ENDBRANCH  23  26
ENDBRANCH   5  22
TORSDOF 4
ENDMDL
MODEL 9
REMARK VINA RESULT:      -7.5      1.190      1.924
REMARK  Name = 
REMARK  5 active torsions:
REMARK  status: ('A' for Active; 'I' for Inactive)
REMARK    1  A    between atoms: C_1  and  N_2
REMARK    2  A    between atoms: N_5  and  C_6
REMARK    3  A    between atoms: C_9  and  N_10
REMARK    4  A    between atoms: C_14  and  N_15
REMARK    5  A    between atoms: C_16  and  C_18
REMARK                            x       y       z     vdW  Elec       q    Type
REMARK                         _______ _______ _______ _____ _____    ______ ____
ROOT
ATOM      1  N   UNL     1       0.680  10.709  18.397  0.00  0.00    +0.000 N 
ATOM      2  C   UNL     1      -0.128  11.444  19.266  0.00  0.00    +0.000 A 
ATOM      3  N   UNL     1       0.093  11.344  20.588  0.00  0.00    +0.000 NA
ATOM      4  C   UNL     1      -0.669  12.074  21.419  0.00  0.00    +0.000 A 
ATOM      5  C   UNL     1      -1.648  12.935  20.983  0.00  0.00    +0.000 A 
ATOM      6  C   UNL     1      -1.813  12.951  19.609  0.00  0.00    +0.000 A 
ATOM      7  N   UNL     1      -1.079  12.221  18.736  0.00  0.00    +0.000 NA
ATOM      8  H   UNL     1       0.239  10.693  17.487  0.00  0.00    +0.000 HD
ENDROOT
BRANCH   1  12
ATOM      9  C   UNL     1       2.516   6.993  19.360  0.00  0.00    +0.000 A 
ATOM     10  C   UNL     1       1.766   7.698  20.307  0.00  0.00    +0.000 A 
ATOM     11  C   UNL     1       1.161   8.919  20.002  0.00  0.00    +0.000 A 
ATOM     12  C   UNL     1       1.312   9.498  18.742  0.00  0.00    +0.000 A 
ATOM     13  C   UNL     1       2.052   8.810  17.784  0.00  0.00    +0.000 A 
ATOM     14  C   UNL     1       2.661   7.589  18.099  0.00  0.00    +0.000 A 
BRANCH   9  19
ATOM     15  C   UNL     1       3.719   1.615  18.906  0.00  0.00    +0.000 C 
ATOM     16  N   UNL     1       3.732   2.937  19.524  0.00  0.00    +0.000 NA
ATOM     17  C   UNL     1       2.355   3.383  19.832  0.00  0.00    +0.000 C 
ATOM     18  C   UNL     1       2.317   4.785  20.483  0.00  0.00    +0.000 C 
ATOM     19  N   UNL     1       3.032   5.746  19.633  0.00  0.00    +0.000 N 
ATOM     20  C   UNL     1       4.393   5.345  19.257  0.00  0.00    +0.000 C 
ATOM     21  C   UNL     1       4.367   3.933  18.630  0.00  0.00    +0.000 C 
ENDBRANCH   9  19
ENDBRANCH   1  12
BRANCH   5  22
ATOM     22  N   UNL     1      -2.420  13.772  21.806  0.00  0.00    +0.000 N 
ATOM     23  C   UNL     1      -2.196  15.125  22.029  0.00  0.00    +0.000 C 
ATOM     24  O   UNL     1      -1.261  15.771  21.584  0.00  0.00    +0.000 OA
ATOM     25  H   UNL     1      -3.168  13.325  22.325  0.00  0.00    +0.000 HD
BRANCH  23  26
ATOM     26  C   UNL     1      -3.208  15.804  22.888  0.00  0.00    +0.000 A 
ATOM     27  C   UNL     1      -3.039  15.887  24.283  0.00  0.00    +0.000 A 
ATOM     28 CL   UNL     1      -1.613  15.351  25.109  0.00  0.00    +0.000 Cl
ATOM     29  C   UNL     1      -4.037  16.449  25.087  0.00  0.00    +0.000 A 
ATOM     30  C   UNL     1      -5.190  16.969  24.513  0.00  0.00    +0.000 A 
ATOM     31  C   UNL     1      -5.343  16.947  23.131  0.00  0.00    +0.000 A 
ATOM     32  C   UNL     1      -4.364  16.367  22.317  0.00  0.00    +0.000 A 
ATOM     33 CL   UNL     1      -4.703  16.357  20.619  0.00  0.00    +0.000 Cl
ENDBRANCH  23  26
ENDBRANCH   5  22
TORSDOF 4
ENDMDL
