MODEL 1
REMARK VINA RESULT:      -7.9      0.000      0.000
REMARK  Name = 
REMARK  6 active torsions:
REMARK  status: ('A' for Active; 'I' for Inactive)
REMARK    1  A    between atoms: C_1  and  S_2
REMARK    2  A    between atoms: S_2  and  C_5
REMARK    3  A    between atoms: C_8  and  C_9
REMARK    4  A    between atoms: C_9  and  N_10
REMARK    5  A    between atoms: N_13  and  C_14
REMARK    6  A    between atoms: C_14  and  C_15
REMARK                            x       y       z     vdW  Elec       q    Type
REMARK                         _______ _______ _______ _____ _____    ______ ____
ROOT
ATOM      1  N   UNL     1       7.136   7.626  16.906  0.00  0.00    +0.000 N 
ATOM      2  C   UNL     1       7.973   8.048  17.921  0.00  0.00    +0.000 C 
ATOM      3  O   UNL     1       8.452   7.308  18.762  0.00  0.00    +0.000 OA
ATOM      4  N   UNL     1       8.185   9.404  17.863  0.00  0.00    +0.000 N 
ATOM      5  H   UNL     1       7.243   8.141  16.047  0.00  0.00    +0.000 HD
ATOM      6  H   UNL     1       7.630   9.946  17.216  0.00  0.00    +0.000 HD
ENDROOT
BRANCH   1   7
ATOM      7  C   UNL     1       6.833   6.216  16.774  0.00  0.00    +0.000 C 
BRANCH   7  11
ATOM      8  C   UNL     1       3.318   4.824  17.945  0.00  0.00    +0.000 A 
ATOM      9  C   UNL     1       3.185   6.194  17.872  0.00  0.00    +0.000 A 
ATOM     10  C   UNL     1       4.391   6.841  17.464  0.00  0.00    +0.000 A 
ATOM     11  C   UNL     1       5.418   5.946  17.219  0.00  0.00    +0.000 A 
ATOM     12  S   UNL     1       4.901   4.329  17.531  0.00  0.00    +0.000 S 
BRANCH   8  14
ATOM     13  C   UNL     1       2.978   2.025  18.126  0.00  0.00    +0.000 C 
ATOM     14  S   UNL     1       2.134   3.561  18.375  0.00  0.00    +0.000 S 
ATOM     15  O   UNL     1       1.048   3.682  17.425  0.00  0.00    +0.000 OA
ATOM     16  O   UNL     1       1.924   3.735  19.801  0.00  0.00    +0.000 OA
ENDBRANCH   8  14
ENDBRANCH   7  11
ENDBRANCH   1   7
BRANCH   4  17
ATOM     17  C   UNL     1       9.037  10.116  18.810  0.00  0.00    +0.000 C 
BRANCH  17  18
ATOM     18  C   UNL     1       9.695  11.358  18.189  0.00  0.00    +0.000 C 
ATOM     19  C   UNL     1       8.626  12.334  17.643  0.00  0.00    +0.000 C 
ATOM     20  C   UNL     1       9.240  13.721  17.790  0.00  0.00    +0.000 C 
ATOM     21  C   UNL     1       9.986  13.642  19.113  0.00  0.00    +0.000 C 
ATOM     22  C   UNL     1      10.513  12.227  19.153  0.00  0.00    +0.000 C 
ATOM     23  C   UNL     1      11.194  11.746  20.417  0.00  0.00    +0.000 C 
ATOM     24  C   UNL     1      12.013  12.007  19.191  0.00  0.00    +0.000 C 
ENDBRANCH  17  18
ENDBRANCH   4  17
TORSDOF 5
ENDMDL
MODEL 2
REMARK VINA RESULT:      -7.8      1.215      1.252
REMARK  Name = 
REMARK  6 active torsions:
REMARK  status: ('A' for Active; 'I' for Inactive)
REMARK    1  A    between atoms: C_1  and  S_2
REMARK    2  A    between atoms: S_2  and  C_5
REMARK    3  A    between atoms: C_8  and  C_9
REMARK    4  A    between atoms: C_9  and  N_10
REMARK    5  A    between atoms: N_13  and  C_14
REMARK    6  A    between atoms: C_14  and  C_15
REMARK                            x       y       z     vdW  Elec       q    Type
REMARK                         _______ _______ _______ _____ _____    ______ ____
ROOT
ATOM      1  N   UNL     1       7.045   7.515  16.976  0.00  0.00    +0.000 N 
ATOM      2  C   UNL     1       7.903   7.960  17.963  0.00  0.00    +0.000 C 
ATOM      3  O   UNL     1       8.388   7.243  18.820  0.00  0.00    +0.000 OA
ATOM      4  N   UNL     1       8.128   9.311  17.857  0.00  0.00    +0.000 N 
ATOM      5  H   UNL     1       7.143   8.000  16.100  0.00  0.00    +0.000 HD
ATOM      6  H   UNL     1       7.569   9.838  17.202  0.00  0.00    +0.000 HD
ENDROOT
BRANCH   1   7
ATOM      7  C   UNL     1       6.725   6.104  16.897  0.00  0.00    +0.000 C 
BRANCH   7  11
ATOM      8  C   UNL     1       3.578   4.907  18.976  0.00  0.00    +0.000 A 
ATOM      9  C   UNL     1       3.135   5.925  18.158  0.00  0.00    +0.000 A 
ATOM     10  C   UNL     1       4.175   6.466  17.344  0.00  0.00    +0.000 A 
ATOM     11  C   UNL     1       5.391   5.837  17.549  0.00  0.00    +0.000 A 
ATOM     12  S   UNL     1       5.249   4.620  18.764  0.00  0.00    +0.000 S 
BRANCH   8  14
ATOM     13  C   UNL     1       1.267   3.314  19.291  0.00  0.00    +0.000 C 
ATOM     14  S   UNL     1       2.699   3.894  20.153  0.00  0.00    +0.000 S 
ATOM     15  O   UNL     1       2.298   4.777  21.229  0.00  0.00    +0.000 OA
ATOM     16  O   UNL     1       3.579   2.763  20.382  0.00  0.00    +0.000 OA
ENDBRANCH   8  14
ENDBRANCH   7  11
ENDBRANCH   1   7
BRANCH   4  17
ATOM     17  C   UNL     1       9.004  10.044  18.766  0.00  0.00    +0.000 C 
BRANCH  17  18
ATOM     18  C   UNL     1       9.625  11.286  18.109  0.00  0.00    +0.000 C 
ATOM     19  C   UNL     1       8.528  12.282  17.662  0.00  0.00    +0.000 C 
ATOM     20  C   UNL     1       9.168  13.659  17.775  0.00  0.00    +0.000 C 
ATOM     21  C   UNL     1      10.016  13.555  19.033  0.00  0.00    +0.000 C 
ATOM     22  C   UNL     1      10.528  12.134  19.014  0.00  0.00    +0.000 C 
ATOM     23  C   UNL     1      11.301  11.630  20.214  0.00  0.00    +0.000 C 
ATOM     24  C   UNL     1      12.023  11.897  18.930  0.00  0.00    +0.000 C 
ENDBRANCH  17  18
ENDBRANCH   4  17
TORSDOF 5
ENDMDL
MODEL 3
REMARK VINA RESULT:      -7.6      1.433      1.923
REMARK  Name = 
REMARK  6 active torsions:
REMARK  status: ('A' for Active; 'I' for Inactive)
REMARK    1  A    between atoms: C_1  and  S_2
REMARK    2  A    between atoms: S_2  and  C_5
REMARK    3  A    between atoms: C_8  and  C_9
REMARK    4  A    between atoms: C_9  and  N_10
REMARK    5  A    between atoms: N_13  and  C_14
REMARK    6  A    between atoms: C_14  and  C_15
REMARK                            x       y       z     vdW  Elec       q    Type
REMARK                         _______ _______ _______ _____ _____    ______ ____
ROOT
ATOM      1  N   UNL     1       6.852   7.686  17.005  0.00  0.00    +0.000 N 
ATOM      2  C   UNL     1       7.835   7.812  17.969  0.00  0.00    +0.000 C 
ATOM      3  O   UNL     1       8.275   6.882  18.620  0.00  0.00    +0.000 OA
ATOM      4  N   UNL     1       8.240   9.118  18.101  0.00  0.00    +0.000 N 
ATOM      5  H   UNL     1       6.954   8.323  16.232  0.00  0.00    +0.000 HD
ATOM      6  H   UNL     1       7.714   9.832  17.617  0.00  0.00    +0.000 HD
ENDROOT
BRANCH   1   7
ATOM      7  C   UNL     1       6.332   6.371  16.690  0.00  0.00    +0.000 C 
BRANCH   7  11
ATOM      8  C   UNL     1       3.421   5.089  19.045  0.00  0.00    +0.000 A 
ATOM      9  C   UNL     1       2.957   6.244  18.452  0.00  0.00    +0.000 A 
ATOM     10  C   UNL     1       3.914   6.831  17.571  0.00  0.00    +0.000 A 
ATOM     11  C   UNL     1       5.087   6.099  17.496  0.00  0.00    +0.000 A 
ATOM     12  S   UNL     1       5.014   4.726  18.539  0.00  0.00    +0.000 S 
BRANCH   8  14
ATOM     13  C   UNL     1       1.200   3.371  19.347  0.00  0.00    +0.000 C 
ATOM     14  S   UNL     1       2.634   3.972  20.192  0.00  0.00    +0.000 S 
ATOM     15  O   UNL     1       2.233   4.774  21.328  0.00  0.00    +0.000 OA
ATOM     16  O   UNL     1       3.574   2.873  20.326  0.00  0.00    +0.000 OA
ENDBRANCH   8  14
ENDBRANCH   7  11
ENDBRANCH   1   7
BRANCH   4  17
ATOM     17  C   UNL     1       9.274   9.537  19.042  0.00  0.00    +0.000 C 
BRANCH  17  18
ATOM     18  C   UNL     1       9.155  11.021  19.422  0.00  0.00    +0.000 C 
ATOM     19  C   UNL     1       9.210  11.204  20.958  0.00  0.00    +0.000 C 
ATOM     20  C   UNL     1       9.847  12.570  21.175  0.00  0.00    +0.000 C 
ATOM     21  C   UNL     1      10.909  12.644  20.089  0.00  0.00    +0.000 C 
ATOM     22  C   UNL     1      10.284  11.928  18.915  0.00  0.00    +0.000 C 
ATOM     23  C   UNL     1      11.132  11.682  17.686  0.00  0.00    +0.000 C 
ATOM     24  C   UNL     1      10.037  12.702  17.634  0.00  0.00    +0.000 C 
ENDBRANCH  17  18
ENDBRANCH   4  17
TORSDOF 5
ENDMDL
MODEL 4
REMARK VINA RESULT:      -7.4      1.164      1.606
REMARK  Name = 
REMARK  6 active torsions:
REMARK  status: ('A' for Active; 'I' for Inactive)
REMARK    1  A    between atoms: C_1  and  S_2
REMARK    2  A    between atoms: S_2  and  C_5
REMARK    3  A    between atoms: C_8  and  C_9
REMARK    4  A    between atoms: C_9  and  N_10
REMARK    5  A    between atoms: N_13  and  C_14
REMARK    6  A    between atoms: C_14  and  C_15
REMARK                            x       y       z     vdW  Elec       q    Type
REMARK                         _______ _______ _______ _____ _____    ______ ____
ROOT
ATOM      1  N   UNL     1       7.211   7.824  17.000  0.00  0.00    +0.000 N 
ATOM      2  C   UNL     1       8.057   8.007  18.077  0.00  0.00    +0.000 C 
ATOM      3  O   UNL     1       8.389   7.118  18.841  0.00  0.00    +0.000 OA
ATOM      4  N   UNL     1       8.462   9.315  18.178  0.00  0.00    +0.000 N 
ATOM      5  H   UNL     1       7.427   8.408  16.208  0.00  0.00    +0.000 HD
ATOM      6  H   UNL     1       8.019   9.999  17.582  0.00  0.00    +0.000 HD
ENDROOT
BRANCH   1   7
ATOM      7  C   UNL     1       6.716   6.496  16.702  0.00  0.00    +0.000 C 
BRANCH   7  11
ATOM      8  C   UNL     1       3.486   5.342  18.675  0.00  0.00    +0.000 A 
ATOM      9  C   UNL     1       3.165   6.544  18.081  0.00  0.00    +0.000 A 
ATOM     10  C   UNL     1       4.250   7.091  17.332  0.00  0.00    +0.000 A 
ATOM     11  C   UNL     1       5.374   6.284  17.358  0.00  0.00    +0.000 A 
ATOM     12  S   UNL     1       5.098   4.887  18.333  0.00  0.00    +0.000 S 
BRANCH   8  14
ATOM     13  C   UNL     1       3.549   2.853  20.010  0.00  0.00    +0.000 C 
ATOM     14  S   UNL     1       2.506   4.246  19.686  0.00  0.00    +0.000 S 
ATOM     15  O   UNL     1       1.382   3.836  18.870  0.00  0.00    +0.000 OA
ATOM     16  O   UNL     1       2.322   4.972  20.930  0.00  0.00    +0.000 OA
ENDBRANCH   8  14
ENDBRANCH   7  11
ENDBRANCH   1   7
BRANCH   4  17
ATOM     17  C   UNL     1       9.367   9.788  19.221  0.00  0.00    +0.000 C 
BRANCH  17  18
ATOM     18  C   UNL     1       9.250  11.302  19.458  0.00  0.00    +0.000 C 
ATOM     19  C   UNL     1       9.248  11.625  20.971  0.00  0.00    +0.000 C 
ATOM     20  C   UNL     1       9.891  13.001  21.087  0.00  0.00    +0.000 C 
ATOM     21  C   UNL     1      10.995  12.967  20.041  0.00  0.00    +0.000 C 
ATOM     22  C   UNL     1      10.407  12.150  18.914  0.00  0.00    +0.000 C 
ATOM     23  C   UNL     1      11.300  11.784  17.747  0.00  0.00    +0.000 C 
ATOM     24  C   UNL     1      10.218  12.803  17.559  0.00  0.00    +0.000 C 
ENDBRANCH  17  18
ENDBRANCH   4  17
TORSDOF 5
ENDMDL
MODEL 5
REMARK VINA RESULT:      -7.3      1.282      1.365
REMARK  Name = 
REMARK  6 active torsions:
REMARK  status: ('A' for Active; 'I' for Inactive)
REMARK    1  A    between atoms: C_1  and  S_2
REMARK    2  A    between atoms: S_2  and  C_5
REMARK    3  A    between atoms: C_8  and  C_9
REMARK    4  A    between atoms: C_9  and  N_10
REMARK    5  A    between atoms: N_13  and  C_14
REMARK    6  A    between atoms: C_14  and  C_15
REMARK                            x       y       z     vdW  Elec       q    Type
REMARK                         _______ _______ _______ _____ _____    ______ ____
ROOT
ATOM      1  N   UNL     1       7.396   6.536  16.959  0.00  0.00    +0.000 N 
ATOM      2  C   UNL     1       7.962   7.195  18.033  0.00  0.00    +0.000 C 
ATOM      3  O   UNL     1       8.287   6.650  19.074  0.00  0.00    +0.000 OA
ATOM      4  N   UNL     1       8.102   8.537  17.779  0.00  0.00    +0.000 N 
ATOM      5  H   UNL     1       7.659   6.913  16.063  0.00  0.00    +0.000 HD
ATOM      6  H   UNL     1       7.674   8.911  16.945  0.00  0.00    +0.000 HD
ENDROOT
BRANCH   1   7
ATOM      7  C   UNL     1       7.213   5.100  17.023  0.00  0.00    +0.000 C 
BRANCH   7  11
ATOM      8  C   UNL     1       3.610   4.318  18.463  0.00  0.00    +0.000 A 
ATOM      9  C   UNL     1       3.500   4.249  17.090  0.00  0.00    +0.000 A 
ATOM     10  C   UNL     1       4.735   4.519  16.427  0.00  0.00    +0.000 A 
ATOM     11  C   UNL     1       5.768   4.774  17.311  0.00  0.00    +0.000 A 
ATOM     12  S   UNL     1       5.202   4.719  18.940  0.00  0.00    +0.000 S 
BRANCH   8  14
ATOM     13  C   UNL     1       3.046   2.735  20.733  0.00  0.00    +0.000 C 
ATOM     14  S   UNL     1       2.397   4.050  19.743  0.00  0.00    +0.000 S 
ATOM     15  O   UNL     1       1.191   3.610  19.074  0.00  0.00    +0.000 OA
ATOM     16  O   UNL     1       2.431   5.269  20.531  0.00  0.00    +0.000 OA
ENDBRANCH   8  14
ENDBRANCH   7  11
ENDBRANCH   1   7
BRANCH   4  17
ATOM     17  C   UNL     1       8.682   9.471  18.739  0.00  0.00    +0.000 C 
BRANCH  17  18
ATOM     18  C   UNL     1       9.210  10.749  18.070  0.00  0.00    +0.000 C 
ATOM     19  C   UNL     1       8.046  11.597  17.503  0.00  0.00    +0.000 C 
ATOM     20  C   UNL     1       8.522  13.041  17.596  0.00  0.00    +0.000 C 
ATOM     21  C   UNL     1       9.282  13.081  18.913  0.00  0.00    +0.000 C 
ATOM     22  C   UNL     1       9.946  11.727  18.994  0.00  0.00    +0.000 C 
ATOM     23  C   UNL     1      10.680  11.360  20.266  0.00  0.00    +0.000 C 
ATOM     24  C   UNL     1      11.461  11.656  19.023  0.00  0.00    +0.000 C 
ENDBRANCH  17  18
ENDBRANCH   4  17
TORSDOF 5
ENDMDL
MODEL 6
REMARK VINA RESULT:      -7.3      7.114     10.409
REMARK  Name = 
REMARK  6 active torsions:
REMARK  status: ('A' for Active; 'I' for Inactive)
REMARK    1  A    between atoms: C_1  and  S_2
REMARK    2  A    between atoms: S_2  and  C_5
REMARK    3  A    between atoms: C_8  and  C_9
REMARK    4  A    between atoms: C_9  and  N_10
REMARK    5  A    between atoms: N_13  and  C_14
REMARK    6  A    between atoms: C_14  and  C_15
REMARK                            x       y       z     vdW  Elec       q    Type
REMARK                         _______ _______ _______ _____ _____    ______ ____
ROOT
ATOM      1  N   UNL     1       1.221   8.531  20.548  0.00  0.00    +0.000 N 
ATOM      2  C   UNL     1       2.058   7.810  19.717  0.00  0.00    +0.000 C 
ATOM      3  O   UNL     1       2.387   8.171  18.601  0.00  0.00    +0.000 OA
ATOM      4  N   UNL     1       2.459   6.637  20.307  0.00  0.00    +0.000 N 
ATOM      5  H   UNL     1       1.441   8.441  21.526  0.00  0.00    +0.000 HD
ATOM      6  H   UNL     1       2.018   6.364  21.174  0.00  0.00    +0.000 HD
ENDROOT
BRANCH   1   7
ATOM      7  C   UNL     1       0.733   9.824  20.116  0.00  0.00    +0.000 C 
BRANCH   7  11
ATOM      8  C   UNL     1      -1.802  11.845  22.386  0.00  0.00    +0.000 A 
ATOM      9  C   UNL     1      -1.266  10.861  23.189  0.00  0.00    +0.000 A 
ATOM     10  C   UNL     1      -0.328  10.038  22.495  0.00  0.00    +0.000 A 
ATOM     11  C   UNL     1      -0.157  10.423  21.177  0.00  0.00    +0.000 A 
ATOM     12  S   UNL     1      -1.177  11.762  20.797  0.00  0.00    +0.000 S 
BRANCH   8  14
ATOM     13  C   UNL     1      -3.225  13.992  21.225  0.00  0.00    +0.000 C 
ATOM     14  S   UNL     1      -2.983  13.131  22.753  0.00  0.00    +0.000 S 
ATOM     15  O   UNL     1      -2.344  14.008  23.711  0.00  0.00    +0.000 OA
ATOM     16  O   UNL     1      -4.207  12.417  23.068  0.00  0.00    +0.000 OA
ENDBRANCH   8  14
ENDBRANCH   7  11
ENDBRANCH   1   7
BRANCH   4  17
ATOM     17  C   UNL     1       3.354   5.685  19.656  0.00  0.00    +0.000 C 
BRANCH  17  18
ATOM     18  C   UNL     1       2.925   4.227  19.880  0.00  0.00    +0.000 C 
ATOM     19  C   UNL     1       2.351   4.033  21.303  0.00  0.00    +0.000 C 
ATOM     20  C   UNL     1       1.319   2.920  21.169  0.00  0.00    +0.000 C 
ATOM     21  C   UNL     1       0.668   3.199  19.823  0.00  0.00    +0.000 C 
ATOM     22  C   UNL     1       1.800   3.719  18.969  0.00  0.00    +0.000 C 
ATOM     23  C   UNL     1       1.478   4.242  17.585  0.00  0.00    +0.000 C 
ATOM     24  C   UNL     1       2.201   2.939  17.732  0.00  0.00    +0.000 C 
ENDBRANCH  17  18
ENDBRANCH   4  17
TORSDOF 5
ENDMDL
MODEL 7
REMARK VINA RESULT:      -7.3      6.560      9.714
REMARK  Name = 
REMARK  6 active torsions:
REMARK  status: ('A' for Active; 'I' for Inactive)
REMARK    1  A    between atoms: C_1  and  S_2
REMARK    2  A    between atoms: S_2  and  C_5
REMARK    3  A    between atoms: C_8  and  C_9
REMARK    4  A    between atoms: C_9  and  N_10
REMARK    5  A    between atoms: N_13  and  C_14
REMARK    6  A    between atoms: C_14  and  C_15
REMARK                            x       y       z     vdW  Elec       q    Type
REMARK                         _______ _______ _______ _____ _____    ______ ____
ROOT
ATOM      1  N   UNL     1       1.814   8.261  19.323  0.00  0.00    +0.000 N 
ATOM      2  C   UNL     1       2.742   7.339  18.879  0.00  0.00    +0.000 C 
ATOM      3  O   UNL     1       3.350   7.435  17.827  0.00  0.00    +0.000 OA
ATOM      4  N   UNL     1       2.881   6.302  19.768  0.00  0.00    +0.000 N 
ATOM      5  H   UNL     1       1.796   8.373  20.323  0.00  0.00    +0.000 HD
ATOM      6  H   UNL     1       2.231   6.243  20.538  0.00  0.00    +0.000 HD
ENDROOT
BRANCH   1   7
ATOM      7  C   UNL     1       1.565   9.453  18.538  0.00  0.00    +0.000 C 
BRANCH   7  11
ATOM      8  C   UNL     1      -0.560  11.601  21.095  0.00  0.00    +0.000 A 
ATOM      9  C   UNL     1      -0.923  12.029  19.836  0.00  0.00    +0.000 A 
ATOM     10  C   UNL     1      -0.224  11.341  18.799  0.00  0.00    +0.000 A 
ATOM     11  C   UNL     1       0.650  10.387  19.290  0.00  0.00    +0.000 A 
ATOM     12  S   UNL     1       0.631  10.377  21.016  0.00  0.00    +0.000 S 
BRANCH   8  14
ATOM     13  C   UNL     1      -2.828  12.559  22.478  0.00  0.00    +0.000 C 
ATOM     14  S   UNL     1      -1.133  12.106  22.707  0.00  0.00    +0.000 S 
ATOM     15  O   UNL     1      -0.358  13.275  23.065  0.00  0.00    +0.000 OA
ATOM     16  O   UNL     1      -1.093  10.891  23.500  0.00  0.00    +0.000 OA
ENDBRANCH   8  14
ENDBRANCH   7  11
ENDBRANCH   1   7
BRANCH   4  17
ATOM     17  C   UNL     1       3.803   5.190  19.555  0.00  0.00    +0.000 C 
BRANCH  17  18
ATOM     18  C   UNL     1       3.187   3.835  19.933  0.00  0.00    +0.000 C 
ATOM     19  C   UNL     1       2.283   3.969  21.181  0.00  0.00    +0.000 C 
ATOM     20  C   UNL     1       1.201   2.910  21.006  0.00  0.00    +0.000 C 
ATOM     21  C   UNL     1       0.911   2.942  19.514  0.00  0.00    +0.000 C 
ATOM     22  C   UNL     1       2.257   3.213  18.884  0.00  0.00    +0.000 C 
ATOM     23  C   UNL     1       2.318   3.457  17.391  0.00  0.00    +0.000 C 
ATOM     24  C   UNL     1       2.850   2.174  17.951  0.00  0.00    +0.000 C 
ENDBRANCH  17  18
ENDBRANCH   4  17
TORSDOF 5
ENDMDL
MODEL 8
REMARK VINA RESULT:      -7.2      1.402      1.594
REMARK  Name = 
REMARK  6 active torsions:
REMARK  status: ('A' for Active; 'I' for Inactive)
REMARK    1  A    between atoms: C_1  and  S_2
REMARK    2  A    between atoms: S_2  and  C_5
REMARK    3  A    between atoms: C_8  and  C_9
REMARK    4  A    between atoms: C_9  and  N_10
REMARK    5  A    between atoms: N_13  and  C_14
REMARK    6  A    between atoms: C_14  and  C_15
REMARK                            x       y       z     vdW  Elec       q    Type
REMARK                         _______ _______ _______ _____ _____    ______ ____
ROOT
ATOM      1  N   UNL     1       7.199   7.577  16.867  0.00  0.00    +0.000 N 
ATOM      2  C   UNL     1       7.997   8.022  17.904  0.00  0.00    +0.000 C 
ATOM      3  O   UNL     1       8.530   7.288  18.718  0.00  0.00    +0.000 OA
ATOM      4  N   UNL     1       8.101   9.391  17.903  0.00  0.00    +0.000 N 
ATOM      5  H   UNL     1       7.268   8.133  16.031  0.00  0.00    +0.000 HD
ATOM      6  H   UNL     1       7.508   9.914  17.275  0.00  0.00    +0.000 HD
ENDROOT
BRANCH   1   7
ATOM      7  C   UNL     1       7.010   6.153  16.677  0.00  0.00    +0.000 C 
BRANCH   7  11
ATOM      8  C   UNL     1       3.945   5.204  18.993  0.00  0.00    +0.000 A 
ATOM      9  C   UNL     1       5.005   4.436  19.423  0.00  0.00    +0.000 A 
ATOM     10  C   UNL     1       6.193   4.667  18.666  0.00  0.00    +0.000 A 
ATOM     11  C   UNL     1       6.017   5.624  17.681  0.00  0.00    +0.000 A 
ATOM     12  S   UNL     1       4.388   6.194  17.672  0.00  0.00    +0.000 S 
BRANCH   8  14
ATOM     13  C   UNL     1       2.263   4.428  21.126  0.00  0.00    +0.000 C 
ATOM     14  S   UNL     1       2.269   5.317  19.595  0.00  0.00    +0.000 S 
ATOM     15  O   UNL     1       1.442   4.629  18.626  0.00  0.00    +0.000 OA
ATOM     16  O   UNL     1       2.086   6.727  19.891  0.00  0.00    +0.000 OA
ENDBRANCH   8  14
ENDBRANCH   7  11
ENDBRANCH   1   7
BRANCH   4  17
ATOM     17  C   UNL     1       8.891  10.129  18.884  0.00  0.00    +0.000 C 
BRANCH  17  18
ATOM     18  C   UNL     1       9.623  11.329  18.265  0.00  0.00    +0.000 C 
ATOM     19  C   UNL     1       8.621  12.314  17.617  0.00  0.00    +0.000 C 
ATOM     20  C   UNL     1       9.265  13.688  17.755  0.00  0.00    +0.000 C 
ATOM     21  C   UNL     1       9.922  13.636  19.126  0.00  0.00    +0.000 C 
ATOM     22  C   UNL     1      10.403  12.210  19.249  0.00  0.00    +0.000 C 
ATOM     23  C   UNL     1      10.987  11.757  20.571  0.00  0.00    +0.000 C 
ATOM     24  C   UNL     1      11.891  11.951  19.392  0.00  0.00    +0.000 C 
ENDBRANCH  17  18
ENDBRANCH   4  17
TORSDOF 5
ENDMDL
MODEL 9
REMARK VINA RESULT:      -7.2      4.716      7.878
REMARK  Name = 
REMARK  6 active torsions:
REMARK  status: ('A' for Active; 'I' for Inactive)
REMARK    1  A    between atoms: C_1  and  S_2
REMARK    2  A    between atoms: S_2  and  C_5
REMARK    3  A    between atoms: C_8  and  C_9
REMARK    4  A    between atoms: C_9  and  N_10
REMARK    5  A    between atoms: N_13  and  C_14
REMARK    6  A    between atoms: C_14  and  C_15
REMARK                            x       y       z     vdW  Elec       q    Type
REMARK                         _______ _______ _______ _____ _____    ______ ____
ROOT
ATOM      1  N   UNL     1       2.469   5.351  20.790  0.00  0.00    +0.000 N 
ATOM      2  C   UNL     1       2.009   6.436  20.069  0.00  0.00    +0.000 C 
ATOM      3  O   UNL     1       1.723   6.397  18.885  0.00  0.00    +0.000 OA
ATOM      4  N   UNL     1       1.924   7.559  20.855  0.00  0.00    +0.000 N 
ATOM      5  H   UNL     1       2.169   5.341  21.751  0.00  0.00    +0.000 HD
ATOM      6  H   UNL     1       2.317   7.521  21.785  0.00  0.00    +0.000 HD
ENDROOT
BRANCH   1   7
ATOM      7  C   UNL     1       2.580   4.061  20.139  0.00  0.00    +0.000 C 
BRANCH   7  11
ATOM      8  C   UNL     1       5.643   4.510  17.675  0.00  0.00    +0.000 A 
ATOM      9  C   UNL     1       4.617   3.982  16.921  0.00  0.00    +0.000 A 
ATOM     10  C   UNL     1       3.434   3.757  17.688  0.00  0.00    +0.000 A 
ATOM     11  C   UNL     1       3.579   4.133  19.012  0.00  0.00    +0.000 A 
ATOM     12  S   UNL     1       5.175   4.720  19.305  0.00  0.00    +0.000 S 
BRANCH   8  14
ATOM     13  C   UNL     1       7.337   6.753  17.384  0.00  0.00    +0.000 C 
ATOM     14  S   UNL     1       7.298   4.991  17.213  0.00  0.00    +0.000 S 
ATOM     15  O   UNL     1       7.451   4.632  15.819  0.00  0.00    +0.000 OA
ATOM     16  O   UNL     1       8.142   4.418  18.246  0.00  0.00    +0.000 OA
ENDBRANCH   8  14
ENDBRANCH   7  11
ENDBRANCH   1   7
BRANCH   4  17
ATOM     17  C   UNL     1       1.458   8.847  20.353  0.00  0.00    +0.000 C 
BRANCH  17  18
ATOM     18  C   UNL     1       0.122   9.274  20.981  0.00  0.00    +0.000 C 
ATOM     19  C   UNL     1       0.149   9.088  22.517  0.00  0.00    +0.000 C 
ATOM     20  C   UNL     1      -0.770  10.172  23.066  0.00  0.00    +0.000 C 
ATOM     21  C   UNL     1      -0.490  11.366  22.166  0.00  0.00    +0.000 C 
ATOM     22  C   UNL     1      -0.251  10.752  20.807  0.00  0.00    +0.000 C 
ATOM     23  C   UNL     1       0.206  11.653  19.679  0.00  0.00    +0.000 C 
ATOM     24  C   UNL     1      -1.189  11.107  19.669  0.00  0.00    +0.000 C 
ENDBRANCH  17  18
ENDBRANCH   4  17
TORSDOF 5
ENDMDL
