MODEL 1
REMARK VINA RESULT:      -8.6      0.000      0.000
REMARK  Name = 
REMARK  3 active torsions:
REMARK  status: ('A' for Active; 'I' for Inactive)
REMARK    1  A    between atoms: C_2  and  C_12
REMARK    2  A    between atoms: N_3  and  C_4
REMARK    3  A    between atoms: C_16  and  C_17
REMARK                            x       y       z     vdW  Elec       q    Type
REMARK                         _______ _______ _______ _____ _____    ______ ____
ROOT
ATOM      1  C   UNL     1       3.292   6.273  19.217  0.00  0.00    +0.000 A 
ATOM      2  C   UNL     1       3.311   6.407  17.841  0.00  0.00    +0.000 A 
ATOM      3  N   UNL     1       4.425   5.748  17.411  0.00  0.00    +0.000 N 
ATOM      4  C   UNL     1       4.887   5.572  16.112  0.00  0.00    +0.000 A 
ATOM      5  C   UNL     1       6.010   4.856  15.880  0.00  0.00    +0.000 A 
ATOM      6  C   UNL     1       6.668   4.267  17.064  0.00  0.00    +0.000 A 
ATOM      7  C   UNL     1       6.219   4.459  18.320  0.00  0.00    +0.000 A 
ATOM      8  C   UNL     1       5.051   5.239  18.542  0.00  0.00    +0.000 A 
ATOM      9  N   UNL     1       4.406   5.567  19.647  0.00  0.00    +0.000 NA
ENDROOT
BRANCH   5  10
ATOM     10  C   UNL     1       6.483   4.681  14.481  0.00  0.00    +0.000 A 
ATOM     11  C   UNL     1       5.887   3.758  13.624  0.00  0.00    +0.000 A 
ATOM     12  C   UNL     1       6.365   3.632  12.321  0.00  0.00    +0.000 A 
ATOM     13  C   UNL     1       7.426   4.423  11.905  0.00  0.00    +0.000 A 
ATOM     14  C   UNL     1       7.971   5.309  12.816  0.00  0.00    +0.000 A 
ATOM     15  N   UNL     1       7.529   5.452  14.086  0.00  0.00    +0.000 NA
ENDBRANCH   5  10
BRANCH   1  17
ATOM     16  O   UNL     1       1.469   6.008  20.653  0.00  0.00    +0.000 OA
ATOM     17  C   UNL     1       2.225   6.784  20.077  0.00  0.00    +0.000 C 
ATOM     18  N   UNL     1       2.148   8.164  20.128  0.00  0.00    +0.000 N 
ATOM     19  H   UNL     1       2.733   8.669  19.466  0.00  0.00    +0.000 HD
BRANCH  18  20
ATOM     20  C   UNL     1       1.212   8.902  20.892  0.00  0.00    +0.000 A 
ATOM     21  C   UNL     1       1.126   8.805  22.288  0.00  0.00    +0.000 A 
ATOM     22  C   UNL     1       0.150   9.506  23.004  0.00  0.00    +0.000 A 
ATOM     23  C   UNL     1      -0.751  10.324  22.330  0.00  0.00    +0.000 A 
ATOM     24  C   UNL     1      -0.651  10.453  20.949  0.00  0.00    +0.000 A 
ATOM     25  F   UNL     1      -1.522  11.244  20.307  0.00  0.00    +0.000 F 
ATOM     26  C   UNL     1       0.327   9.762  20.235  0.00  0.00    +0.000 A 
ATOM     27  F   UNL     1       0.393   9.897  18.900  0.00  0.00    +0.000 F 
ENDBRANCH  18  20
ENDBRANCH   1  17
TORSDOF 3
ENDMDL
MODEL 2
REMARK VINA RESULT:      -8.5      3.089      5.520
REMARK  Name = 
REMARK  3 active torsions:
REMARK  status: ('A' for Active; 'I' for Inactive)
REMARK    1  A    between atoms: C_2  and  C_12
REMARK    2  A    between atoms: N_3  and  C_4
REMARK    3  A    between atoms: C_16  and  C_17
REMARK                            x       y       z     vdW  Elec       q    Type
REMARK                         _______ _______ _______ _____ _____    ______ ____
ROOT
ATOM      1  C   UNL     1       0.313   9.947  21.280  0.00  0.00    +0.000 A 
ATOM      2  C   UNL     1       0.914   8.703  21.357  0.00  0.00    +0.000 A 
ATOM      3  N   UNL     1       1.455   8.466  20.128  0.00  0.00    +0.000 N 
ATOM      4  C   UNL     1       2.180   7.364  19.692  0.00  0.00    +0.000 A 
ATOM      5  C   UNL     1       2.664   7.323  18.430  0.00  0.00    +0.000 A 
ATOM      6  C   UNL     1       2.402   8.508  17.589  0.00  0.00    +0.000 A 
ATOM      7  C   UNL     1       1.682   9.563  18.018  0.00  0.00    +0.000 A 
ATOM      8  C   UNL     1       1.160   9.573  19.341  0.00  0.00    +0.000 A 
ATOM      9  N   UNL     1       0.446  10.466  20.001  0.00  0.00    +0.000 NA
ENDROOT
BRANCH   5  10
ATOM     10  C   UNL     1       3.439   6.133  17.989  0.00  0.00    +0.000 A 
ATOM     11  C   UNL     1       4.346   6.208  16.935  0.00  0.00    +0.000 A 
ATOM     12  C   UNL     1       5.050   5.064  16.559  0.00  0.00    +0.000 A 
ATOM     13  C   UNL     1       4.828   3.875  17.239  0.00  0.00    +0.000 A 
ATOM     14  C   UNL     1       3.905   3.877  18.268  0.00  0.00    +0.000 A 
ATOM     15  N   UNL     1       3.208   4.970  18.653  0.00  0.00    +0.000 NA
ENDBRANCH   5  10
BRANCH   1  17
ATOM     16  O   UNL     1      -0.163  10.209  23.551  0.00  0.00    +0.000 OA
ATOM     17  C   UNL     1      -0.339  10.615  22.407  0.00  0.00    +0.000 C 
ATOM     18  N   UNL     1      -1.158  11.669  22.046  0.00  0.00    +0.000 N 
ATOM     19  H   UNL     1      -1.335  11.776  21.050  0.00  0.00    +0.000 HD
BRANCH  18  20
ATOM     20  C   UNL     1      -1.891  12.478  22.947  0.00  0.00    +0.000 A 
ATOM     21  C   UNL     1      -3.144  12.108  23.453  0.00  0.00    +0.000 A 
ATOM     22  C   UNL     1      -3.865  12.959  24.298  0.00  0.00    +0.000 A 
ATOM     23  C   UNL     1      -3.335  14.195  24.654  0.00  0.00    +0.000 A 
ATOM     24  C   UNL     1      -2.077  14.556  24.183  0.00  0.00    +0.000 A 
ATOM     25  F   UNL     1      -1.571  15.748  24.532  0.00  0.00    +0.000 F 
ATOM     26  C   UNL     1      -1.353  13.704  23.349  0.00  0.00    +0.000 A 
ATOM     27  F   UNL     1      -0.145  14.084  22.902  0.00  0.00    +0.000 F 
ENDBRANCH  18  20
ENDBRANCH   1  17
TORSDOF 3
ENDMDL
MODEL 3
REMARK VINA RESULT:      -8.2      3.365     10.348
REMARK  Name = 
REMARK  3 active torsions:
REMARK  status: ('A' for Active; 'I' for Inactive)
REMARK    1  A    between atoms: C_2  and  C_12
REMARK    2  A    between atoms: N_3  and  C_4
REMARK    3  A    between atoms: C_16  and  C_17
REMARK                            x       y       z     vdW  Elec       q    Type
REMARK                         _______ _______ _______ _____ _____    ______ ____
ROOT
ATOM      1  C   UNL     1       1.433   8.820  19.554  0.00  0.00    +0.000 A 
ATOM      2  C   UNL     1       0.924  10.105  19.576  0.00  0.00    +0.000 A 
ATOM      3  N   UNL     1       0.323  10.255  20.791  0.00  0.00    +0.000 N 
ATOM      4  C   UNL     1      -0.323  11.369  21.313  0.00  0.00    +0.000 A 
ATOM      5  C   UNL     1      -0.838  11.335  22.562  0.00  0.00    +0.000 A 
ATOM      6  C   UNL     1      -0.643  10.081  23.317  0.00  0.00    +0.000 A 
ATOM      7  C   UNL     1      -0.030   9.001  22.793  0.00  0.00    +0.000 A 
ATOM      8  C   UNL     1       0.481   9.051  21.467  0.00  0.00    +0.000 A 
ATOM      9  N   UNL     1       1.119   8.158  20.732  0.00  0.00    +0.000 NA
ENDROOT
BRANCH   5  10
ATOM     10  C   UNL     1      -1.523  12.541  23.098  0.00  0.00    +0.000 A 
ATOM     11  C   UNL     1      -2.907  12.581  23.254  0.00  0.00    +0.000 A 
ATOM     12  C   UNL     1      -3.502  13.735  23.761  0.00  0.00    +0.000 A 
ATOM     13  C   UNL     1      -2.706  14.821  24.095  0.00  0.00    +0.000 A 
ATOM     14  C   UNL     1      -1.341  14.710  23.902  0.00  0.00    +0.000 A 
ATOM     15  N   UNL     1      -0.737  13.604  23.412  0.00  0.00    +0.000 NA
ENDBRANCH   5  10
BRANCH   1  17
ATOM     16  O   UNL     1       2.242   8.836  17.364  0.00  0.00    +0.000 OA
ATOM     17  C   UNL     1       2.214   8.264  18.449  0.00  0.00    +0.000 C 
ATOM     18  N   UNL     1       2.846   7.070  18.742  0.00  0.00    +0.000 N 
ATOM     19  H   UNL     1       2.591   6.635  19.627  0.00  0.00    +0.000 HD
BRANCH  18  20
ATOM     20  C   UNL     1       3.665   6.338  17.849  0.00  0.00    +0.000 A 
ATOM     21  C   UNL     1       4.559   6.953  16.962  0.00  0.00    +0.000 A 
ATOM     22  C   UNL     1       5.311   6.201  16.054  0.00  0.00    +0.000 A 
ATOM     23  C   UNL     1       5.183   4.816  16.026  0.00  0.00    +0.000 A 
ATOM     24  C   UNL     1       4.324   4.195  16.926  0.00  0.00    +0.000 A 
ATOM     25  F   UNL     1       4.207   2.860  16.895  0.00  0.00    +0.000 F 
ATOM     26  C   UNL     1       3.581   4.943  17.839  0.00  0.00    +0.000 A 
ATOM     27  F   UNL     1       2.751   4.316  18.688  0.00  0.00    +0.000 F 
ENDBRANCH  18  20
ENDBRANCH   1  17
TORSDOF 3
ENDMDL
MODEL 4
REMARK VINA RESULT:      -8.2      3.166      5.636
REMARK  Name = 
REMARK  3 active torsions:
REMARK  status: ('A' for Active; 'I' for Inactive)
REMARK    1  A    between atoms: C_2  and  C_12
REMARK    2  A    between atoms: N_3  and  C_4
REMARK    3  A    between atoms: C_16  and  C_17
REMARK                            x       y       z     vdW  Elec       q    Type
REMARK                         _______ _______ _______ _____ _____    ______ ____
ROOT
ATOM      1  C   UNL     1       0.258  10.218  21.245  0.00  0.00    +0.000 A 
ATOM      2  C   UNL     1       0.805   8.955  21.385  0.00  0.00    +0.000 A 
ATOM      3  N   UNL     1       1.321   8.627  20.166  0.00  0.00    +0.000 N 
ATOM      4  C   UNL     1       1.993   7.472  19.786  0.00  0.00    +0.000 A 
ATOM      5  C   UNL     1       2.460   7.341  18.523  0.00  0.00    +0.000 A 
ATOM      6  C   UNL     1       2.239   8.488  17.620  0.00  0.00    +0.000 A 
ATOM      7  C   UNL     1       1.570   9.595  17.996  0.00  0.00    +0.000 A 
ATOM      8  C   UNL     1       1.065   9.701  19.321  0.00  0.00    +0.000 A 
ATOM      9  N   UNL     1       0.397  10.660  19.938  0.00  0.00    +0.000 NA
ENDROOT
BRANCH   5  10
ATOM     10  C   UNL     1       3.178   6.095  18.142  0.00  0.00    +0.000 A 
ATOM     11  C   UNL     1       2.488   4.917  17.865  0.00  0.00    +0.000 A 
ATOM     12  C   UNL     1       3.205   3.775  17.511  0.00  0.00    +0.000 A 
ATOM     13  C   UNL     1       4.590   3.834  17.447  0.00  0.00    +0.000 A 
ATOM     14  C   UNL     1       5.204   5.037  17.746  0.00  0.00    +0.000 A 
ATOM     15  N   UNL     1       4.534   6.159  18.093  0.00  0.00    +0.000 NA
ENDBRANCH   5  10
BRANCH   1  17
ATOM     16  O   UNL     1      -0.352  10.521  23.479  0.00  0.00    +0.000 OA
ATOM     17  C   UNL     1      -0.351  10.974  22.339  0.00  0.00    +0.000 C 
ATOM     18  N   UNL     1      -0.927  12.171  21.951  0.00  0.00    +0.000 N 
ATOM     19  H   UNL     1      -0.995  12.329  20.948  0.00  0.00    +0.000 HD
BRANCH  18  20
ATOM     20  C   UNL     1      -1.570  13.086  22.819  0.00  0.00    +0.000 A 
ATOM     21  C   UNL     1      -0.885  14.115  23.479  0.00  0.00    +0.000 A 
ATOM     22  C   UNL     1      -1.543  14.966  24.374  0.00  0.00    +0.000 A 
ATOM     23  C   UNL     1      -2.904  14.802  24.614  0.00  0.00    +0.000 A 
ATOM     24  C   UNL     1      -3.598  13.805  23.937  0.00  0.00    +0.000 A 
ATOM     25  F   UNL     1      -4.909  13.653  24.172  0.00  0.00    +0.000 F 
ATOM     26  C   UNL     1      -2.945  12.962  23.038  0.00  0.00    +0.000 A 
ATOM     27  F   UNL     1      -3.639  12.001  22.407  0.00  0.00    +0.000 F 
ENDBRANCH  18  20
ENDBRANCH   1  17
TORSDOF 3
ENDMDL
MODEL 5
REMARK VINA RESULT:      -8.1      1.453      1.556
REMARK  Name = 
REMARK  3 active torsions:
REMARK  status: ('A' for Active; 'I' for Inactive)
REMARK    1  A    between atoms: C_2  and  C_12
REMARK    2  A    between atoms: N_3  and  C_4
REMARK    3  A    between atoms: C_16  and  C_17
REMARK                            x       y       z     vdW  Elec       q    Type
REMARK                         _______ _______ _______ _____ _____    ______ ____
ROOT
ATOM      1  C   UNL     1       2.730   7.195  18.989  0.00  0.00    +0.000 A 
ATOM      2  C   UNL     1       3.252   7.487  17.742  0.00  0.00    +0.000 A 
ATOM      3  N   UNL     1       3.978   6.394  17.369  0.00  0.00    +0.000 N 
ATOM      4  C   UNL     1       4.685   6.177  16.193  0.00  0.00    +0.000 A 
ATOM      5  C   UNL     1       5.327   5.004  15.991  0.00  0.00    +0.000 A 
ATOM      6  C   UNL     1       5.198   3.994  17.061  0.00  0.00    +0.000 A 
ATOM      7  C   UNL     1       4.523   4.223  18.205  0.00  0.00    +0.000 A 
ATOM      8  C   UNL     1       3.878   5.474  18.407  0.00  0.00    +0.000 A 
ATOM      9  N   UNL     1       3.158   5.944  19.409  0.00  0.00    +0.000 NA
ENDROOT
BRANCH   5  10
ATOM     10  C   UNL     1       6.076   4.796  14.724  0.00  0.00    +0.000 A 
ATOM     11  C   UNL     1       5.637   3.889  13.762  0.00  0.00    +0.000 A 
ATOM     12  C   UNL     1       6.373   3.730  12.589  0.00  0.00    +0.000 A 
ATOM     13  C   UNL     1       7.529   4.474  12.405  0.00  0.00    +0.000 A 
ATOM     14  C   UNL     1       7.906   5.348  13.409  0.00  0.00    +0.000 A 
ATOM     15  N   UNL     1       7.212   5.522  14.557  0.00  0.00    +0.000 NA
ENDBRANCH   5  10
BRANCH   1  17
ATOM     16  O   UNL     1       1.429   7.760  20.845  0.00  0.00    +0.000 OA
ATOM     17  C   UNL     1       1.833   8.081  19.731  0.00  0.00    +0.000 C 
ATOM     18  N   UNL     1       1.484   9.234  19.053  0.00  0.00    +0.000 N 
ATOM     19  H   UNL     1       1.761   9.279  18.075  0.00  0.00    +0.000 HD
BRANCH  18  20
ATOM     20  C   UNL     1       0.638  10.253  19.556  0.00  0.00    +0.000 A 
ATOM     21  C   UNL     1       0.991  11.064  20.644  0.00  0.00    +0.000 A 
ATOM     22  C   UNL     1       0.106  12.022  21.149  0.00  0.00    +0.000 A 
ATOM     23  C   UNL     1      -1.145  12.188  20.565  0.00  0.00    +0.000 A 
ATOM     24  C   UNL     1      -1.490  11.411  19.465  0.00  0.00    +0.000 A 
ATOM     25  F   UNL     1      -2.697  11.577  18.905  0.00  0.00    +0.000 F 
ATOM     26  C   UNL     1      -0.605  10.462  18.953  0.00  0.00    +0.000 A 
ATOM     27  F   UNL     1      -0.970   9.719  17.896  0.00  0.00    +0.000 F 
ENDBRANCH  18  20
ENDBRANCH   1  17
TORSDOF 3
ENDMDL
MODEL 6
REMARK VINA RESULT:      -8.0      4.000      5.412
REMARK  Name = 
REMARK  3 active torsions:
REMARK  status: ('A' for Active; 'I' for Inactive)
REMARK    1  A    between atoms: C_2  and  C_12
REMARK    2  A    between atoms: N_3  and  C_4
REMARK    3  A    between atoms: C_16  and  C_17
REMARK                            x       y       z     vdW  Elec       q    Type
REMARK                         _______ _______ _______ _____ _____    ______ ____
ROOT
ATOM      1  C   UNL     1       0.624   9.224  21.414  0.00  0.00    +0.000 A 
ATOM      2  C   UNL     1       0.777   7.867  21.635  0.00  0.00    +0.000 A 
ATOM      3  N   UNL     1       1.389   7.368  20.522  0.00  0.00    +0.000 N 
ATOM      4  C   UNL     1       1.780   6.062  20.254  0.00  0.00    +0.000 A 
ATOM      5  C   UNL     1       2.406   5.763  19.093  0.00  0.00    +0.000 A 
ATOM      6  C   UNL     1       2.663   6.893  18.178  0.00  0.00    +0.000 A 
ATOM      7  C   UNL     1       2.263   8.153  18.442  0.00  0.00    +0.000 A 
ATOM      8  C   UNL     1       1.583   8.439  19.658  0.00  0.00    +0.000 A 
ATOM      9  N   UNL     1       1.103   9.563  20.157  0.00  0.00    +0.000 NA
ENDROOT
BRANCH   5  10
ATOM     10  C   UNL     1       2.816   4.358  18.831  0.00  0.00    +0.000 A 
ATOM     11  C   UNL     1       2.245   3.616  17.799  0.00  0.00    +0.000 A 
ATOM     12  C   UNL     1       2.663   2.303  17.592  0.00  0.00    +0.000 A 
ATOM     13  C   UNL     1       3.634   1.759  18.421  0.00  0.00    +0.000 A 
ATOM     14  C   UNL     1       4.146   2.554  19.430  0.00  0.00    +0.000 A 
ATOM     15  N   UNL     1       3.759   3.831  19.654  0.00  0.00    +0.000 NA
ENDBRANCH   5  10
BRANCH   1  17
ATOM     16  O   UNL     1       0.264   9.992  23.590  0.00  0.00    +0.000 OA
ATOM     17  C   UNL     1       0.062  10.156  22.391  0.00  0.00    +0.000 C 
ATOM     18  N   UNL     1      -0.712  11.160  21.839  0.00  0.00    +0.000 N 
ATOM     19  H   UNL     1      -0.926  11.065  20.848  0.00  0.00    +0.000 HD
BRANCH  18  20
ATOM     20  C   UNL     1      -1.358  12.188  22.568  0.00  0.00    +0.000 A 
ATOM     21  C   UNL     1      -2.608  12.016  23.177  0.00  0.00    +0.000 A 
ATOM     22  C   UNL     1      -3.241  13.072  23.841  0.00  0.00    +0.000 A 
ATOM     23  C   UNL     1      -2.625  14.317  23.911  0.00  0.00    +0.000 A 
ATOM     24  C   UNL     1      -1.369  14.487  23.338  0.00  0.00    +0.000 A 
ATOM     25  F   UNL     1      -0.780  15.689  23.410  0.00  0.00    +0.000 F 
ATOM     26  C   UNL     1      -0.732  13.432  22.684  0.00  0.00    +0.000 A 
ATOM     27  F   UNL     1       0.476  13.629  22.131  0.00  0.00    +0.000 F 
ENDBRANCH  18  20
ENDBRANCH   1  17
TORSDOF 3
ENDMDL
MODEL 7
REMARK VINA RESULT:      -8.0      3.234      9.544
REMARK  Name = 
REMARK  3 active torsions:
REMARK  status: ('A' for Active; 'I' for Inactive)
REMARK    1  A    between atoms: C_2  and  C_12
REMARK    2  A    between atoms: N_3  and  C_4
REMARK    3  A    between atoms: C_16  and  C_17
REMARK                            x       y       z     vdW  Elec       q    Type
REMARK                         _______ _______ _______ _____ _____    ______ ____
ROOT
ATOM      1  C   UNL     1       2.327   7.367  19.099  0.00  0.00    +0.000 A 
ATOM      2  C   UNL     1       1.905   8.572  18.567  0.00  0.00    +0.000 A 
ATOM      3  N   UNL     1       1.246   9.219  19.571  0.00  0.00    +0.000 N 
ATOM      4  C   UNL     1       0.648  10.473  19.554  0.00  0.00    +0.000 A 
ATOM      5  C   UNL     1       0.060  10.962  20.670  0.00  0.00    +0.000 A 
ATOM      6  C   UNL     1       0.127  10.109  21.873  0.00  0.00    +0.000 A 
ATOM      7  C   UNL     1       0.695   8.887  21.872  0.00  0.00    +0.000 A 
ATOM      8  C   UNL     1       1.284   8.382  20.680  0.00  0.00    +0.000 A 
ATOM      9  N   UNL     1       1.902   7.245  20.413  0.00  0.00    +0.000 NA
ENDROOT
BRANCH   5  10
ATOM     10  C   UNL     1      -0.571  12.308  20.626  0.00  0.00    +0.000 A 
ATOM     11  C   UNL     1      -1.838  12.532  21.161  0.00  0.00    +0.000 A 
ATOM     12  C   UNL     1      -2.387  13.812  21.097  0.00  0.00    +0.000 A 
ATOM     13  C   UNL     1      -1.665  14.833  20.497  0.00  0.00    +0.000 A 
ATOM     14  C   UNL     1      -0.418  14.530  19.980  0.00  0.00    +0.000 A 
ATOM     15  N   UNL     1       0.139  13.299  20.027  0.00  0.00    +0.000 NA
ENDBRANCH   5  10
BRANCH   1  17
ATOM     16  O   UNL     1       2.762   5.217  18.295  0.00  0.00    +0.000 OA
ATOM     17  C   UNL     1       3.131   6.385  18.370  0.00  0.00    +0.000 C 
ATOM     18  N   UNL     1       4.305   6.891  17.843  0.00  0.00    +0.000 N 
ATOM     19  H   UNL     1       4.555   7.834  18.133  0.00  0.00    +0.000 HD
BRANCH  18  20
ATOM     20  C   UNL     1       5.248   6.149  17.091  0.00  0.00    +0.000 A 
ATOM     21  C   UNL     1       5.158   5.995  15.701  0.00  0.00    +0.000 A 
ATOM     22  C   UNL     1       6.076   5.207  14.998  0.00  0.00    +0.000 A 
ATOM     23  C   UNL     1       7.106   4.567  15.680  0.00  0.00    +0.000 A 
ATOM     24  C   UNL     1       7.223   4.743  17.055  0.00  0.00    +0.000 A 
ATOM     25  F   UNL     1       8.219   4.125  17.706  0.00  0.00    +0.000 F 
ATOM     26  C   UNL     1       6.314   5.536  17.755  0.00  0.00    +0.000 A 
ATOM     27  F   UNL     1       6.446   5.678  19.084  0.00  0.00    +0.000 F 
ENDBRANCH  18  20
ENDBRANCH   1  17
TORSDOF 3
ENDMDL
MODEL 8
REMARK VINA RESULT:      -8.0      3.205      9.918
REMARK  Name = 
REMARK  3 active torsions:
REMARK  status: ('A' for Active; 'I' for Inactive)
REMARK    1  A    between atoms: C_2  and  C_12
REMARK    2  A    between atoms: N_3  and  C_4
REMARK    3  A    between atoms: C_16  and  C_17
REMARK                            x       y       z     vdW  Elec       q    Type
REMARK                         _______ _______ _______ _____ _____    ______ ____
ROOT
ATOM      1  C   UNL     1       2.519   8.052  18.301  0.00  0.00    +0.000 A 
ATOM      2  C   UNL     1       1.688   8.061  19.406  0.00  0.00    +0.000 A 
ATOM      3  N   UNL     1       1.128   9.304  19.450  0.00  0.00    +0.000 N 
ATOM      4  C   UNL     1       0.208   9.813  20.358  0.00  0.00    +0.000 A 
ATOM      5  C   UNL     1      -0.258  11.075  20.219  0.00  0.00    +0.000 A 
ATOM      6  C   UNL     1       0.240  11.833  19.054  0.00  0.00    +0.000 A 
ATOM      7  C   UNL     1       1.146  11.333  18.190  0.00  0.00    +0.000 A 
ATOM      8  C   UNL     1       1.642  10.013  18.371  0.00  0.00    +0.000 A 
ATOM      9  N   UNL     1       2.507   9.293  17.681  0.00  0.00    +0.000 NA
ENDROOT
BRANCH   5  10
ATOM     10  C   UNL     1      -1.243  11.596  21.204  0.00  0.00    +0.000 A 
ATOM     11  C   UNL     1      -1.126  11.319  22.564  0.00  0.00    +0.000 A 
ATOM     12  C   UNL     1      -2.074  11.831  23.448  0.00  0.00    +0.000 A 
ATOM     13  C   UNL     1      -3.118  12.601  22.955  0.00  0.00    +0.000 A 
ATOM     14  C   UNL     1      -3.173  12.825  21.591  0.00  0.00    +0.000 A 
ATOM     15  N   UNL     1      -2.268  12.341  20.711  0.00  0.00    +0.000 NA
ENDBRANCH   5  10
BRANCH   1  17
ATOM     16  O   UNL     1       2.857   5.752  18.081  0.00  0.00    +0.000 OA
ATOM     17  C   UNL     1       3.274   6.883  17.850  0.00  0.00    +0.000 C 
ATOM     18  N   UNL     1       4.460   7.184  17.206  0.00  0.00    +0.000 N 
ATOM     19  H   UNL     1       4.751   8.159  17.240  0.00  0.00    +0.000 HD
BRANCH  18  20
ATOM     20  C   UNL     1       5.362   6.234  16.669  0.00  0.00    +0.000 A 
ATOM     21  C   UNL     1       5.293   5.786  15.343  0.00  0.00    +0.000 A 
ATOM     22  C   UNL     1       6.166   4.804  14.864  0.00  0.00    +0.000 A 
ATOM     23  C   UNL     1       7.129   4.260  15.708  0.00  0.00    +0.000 A 
ATOM     24  C   UNL     1       7.226   4.724  17.015  0.00  0.00    +0.000 A 
ATOM     25  F   UNL     1       8.158   4.197  17.823  0.00  0.00    +0.000 F 
ATOM     26  C   UNL     1       6.363   5.710  17.492  0.00  0.00    +0.000 A 
ATOM     27  F   UNL     1       6.474   6.130  18.763  0.00  0.00    +0.000 F 
ENDBRANCH  18  20
ENDBRANCH   1  17
TORSDOF 3
ENDMDL
MODEL 9
REMARK VINA RESULT:      -7.9      3.901      5.911
REMARK  Name = 
REMARK  3 active torsions:
REMARK  status: ('A' for Active; 'I' for Inactive)
REMARK    1  A    between atoms: C_2  and  C_12
REMARK    2  A    between atoms: N_3  and  C_4
REMARK    3  A    between atoms: C_16  and  C_17
REMARK                            x       y       z     vdW  Elec       q    Type
REMARK                         _______ _______ _______ _____ _____    ______ ____
ROOT
ATOM      1  C   UNL     1       0.405  10.769  20.486  0.00  0.00    +0.000 A 
ATOM      2  C   UNL     1       0.705   9.491  20.922  0.00  0.00    +0.000 A 
ATOM      3  N   UNL     1       1.348   8.877  19.888  0.00  0.00    +0.000 N 
ATOM      4  C   UNL     1       1.871   7.592  19.826  0.00  0.00    +0.000 A 
ATOM      5  C   UNL     1       2.505   7.168  18.710  0.00  0.00    +0.000 A 
ATOM      6  C   UNL     1       2.626   8.148  17.612  0.00  0.00    +0.000 A 
ATOM      7  C   UNL     1       2.099   9.387  17.678  0.00  0.00    +0.000 A 
ATOM      8  C   UNL     1       1.413   9.802  18.852  0.00  0.00    +0.000 A 
ATOM      9  N   UNL     1       0.824  10.940  19.175  0.00  0.00    +0.000 NA
ENDROOT
BRANCH   5  10
ATOM     10  C   UNL     1       3.058   5.788  18.670  0.00  0.00    +0.000 A 
ATOM     11  C   UNL     1       2.377   4.753  18.031  0.00  0.00    +0.000 A 
ATOM     12  C   UNL     1       2.936   3.476  18.020  0.00  0.00    +0.000 A 
ATOM     13  C   UNL     1       4.155   3.260  18.648  0.00  0.00    +0.000 A 
ATOM     14  C   UNL     1       4.764   4.335  19.269  0.00  0.00    +0.000 A 
ATOM     15  N   UNL     1       4.246   5.584  19.296  0.00  0.00    +0.000 NA
ENDBRANCH   5  10
BRANCH   1  17
ATOM     16  O   UNL     1       0.443  12.568  21.974  0.00  0.00    +0.000 OA
ATOM     17  C   UNL     1      -0.237  11.789  21.314  0.00  0.00    +0.000 C 
ATOM     18  N   UNL     1      -1.619  11.748  21.297  0.00  0.00    +0.000 N 
ATOM     19  H   UNL     1      -2.037  10.942  20.838  0.00  0.00    +0.000 HD
BRANCH  18  20
ATOM     20  C   UNL     1      -2.471  12.631  22.004  0.00  0.00    +0.000 A 
ATOM     21  C   UNL     1      -2.885  13.865  21.486  0.00  0.00    +0.000 A 
ATOM     22  C   UNL     1      -3.681  14.737  22.237  0.00  0.00    +0.000 A 
ATOM     23  C   UNL     1      -4.081  14.379  23.521  0.00  0.00    +0.000 A 
ATOM     24  C   UNL     1      -3.703  13.141  24.029  0.00  0.00    +0.000 A 
ATOM     25  F   UNL     1      -4.095  12.801  25.266  0.00  0.00    +0.000 F 
ATOM     26  C   UNL     1      -2.918  12.267  23.278  0.00  0.00    +0.000 A 
ATOM     27  F   UNL     1      -2.560  11.083  23.800  0.00  0.00    +0.000 F 
ENDBRANCH  18  20
ENDBRANCH   1  17
TORSDOF 3
ENDMDL
