MODEL 1
REMARK VINA RESULT:      -6.7      0.000      0.000
REMARK  Name = 
REMARK  8 active torsions:
REMARK  status: ('A' for Active; 'I' for Inactive)
REMARK    1  A    between atoms: C_1  and  O_2
REMARK    2  A    between atoms: O_2  and  C_3
REMARK    3  A    between atoms: C_6  and  C_7
REMARK    4  A    between atoms: N_11  and  S_12
REMARK    5  A    between atoms: S_12  and  C_13
REMARK    6  A    between atoms: C_16  and  C_17
REMARK    7  A    between atoms: N_20  and  C_21
REMARK    8  A    between atoms: C_21  and  C_22
REMARK                            x       y       z     vdW  Elec       q    Type
REMARK                         _______ _______ _______ _____ _____    ______ ____
ROOT
ATOM      1  C   UNL     1      -0.743  10.394  20.252  0.00  0.00    +0.000 C 
ATOM      2  C   UNL     1      -0.625  10.802  21.712  0.00  0.00    +0.000 C 
ATOM      3  C   UNL     1      -0.629  12.008  22.325  0.00  0.00    +0.000 C 
ATOM      4  C   UNL     1      -0.820  13.395  21.773  0.00  0.00    +0.000 C 
ATOM      5  N   UNL     1       0.375  13.919  21.063  0.00  0.00    +0.000 NA
ATOM      6  C   UNL     1       0.960  12.998  20.012  0.00  0.00    +0.000 C 
ATOM      7  C   UNL     1       2.049  12.143  20.653  0.00  0.00    +0.000 C 
ATOM      8  C   UNL     1      -0.174  12.523  19.054  0.00  0.00    +0.000 C 
ATOM      9  O   UNL     1      -0.354  13.166  18.010  0.00  0.00    +0.000 OA
ATOM     10  N   UNL     1      -1.088  11.545  19.428  0.00  0.00    +0.000 N 
ENDROOT
BRANCH   1  14
ATOM     11  C   UNL     1       2.497   7.971  18.557  0.00  0.00    +0.000 A 
ATOM     12  C   UNL     1       1.859   8.938  17.782  0.00  0.00    +0.000 A 
ATOM     13  C   UNL     1       0.843   9.745  18.321  0.00  0.00    +0.000 A 
ATOM     14  C   UNL     1       0.414   9.575  19.645  0.00  0.00    +0.000 A 
ATOM     15  C   UNL     1       1.126   8.641  20.429  0.00  0.00    +0.000 A 
ATOM     16  C   UNL     1       2.132   7.831  19.890  0.00  0.00    +0.000 A 
BRANCH  11  18
ATOM     17  C   UNL     1       3.265   5.809  17.959  0.00  0.00    +0.000 C 
ATOM     18  O   UNL     1       3.434   7.221  17.901  0.00  0.00    +0.000 OA
ENDBRANCH  11  18
ENDBRANCH   1  14
BRANCH   5  19
ATOM     19  S   UNL     1       0.149  15.515  20.431  0.00  0.00    +0.000 S 
ATOM     20  C   UNL     1       0.513  16.526  21.844  0.00  0.00    +0.000 C 
ATOM     21  O   UNL     1       1.189  15.789  19.468  0.00  0.00    +0.000 OA
ATOM     22  O   UNL     1      -1.256  15.679  20.114  0.00  0.00    +0.000 OA
ENDBRANCH   5  19
BRANCH  10  23
ATOM     23  C   UNL     1      -2.511  11.750  19.134  0.00  0.00    +0.000 C 
BRANCH  23  24
ATOM     24  C   UNL     1      -3.074  11.190  17.851  0.00  0.00    +0.000 A 
ATOM     25  C   UNL     1      -4.213  11.734  17.240  0.00  0.00    +0.000 A 
ATOM     26  C   UNL     1      -4.605  11.295  15.972  0.00  0.00    +0.000 A 
ATOM     27  C   UNL     1      -3.869  10.308  15.318  0.00  0.00    +0.000 A 
ATOM     28  F   UNL     1      -4.233   9.915  14.092  0.00  0.00    +0.000 F 
ATOM     29  C   UNL     1      -2.757   9.739  15.918  0.00  0.00    +0.000 A 
ATOM     30  C   UNL     1      -2.363  10.176  17.180  0.00  0.00    +0.000 A 
ENDBRANCH  23  24
ENDBRANCH  10  23
TORSDOF 5
ENDMDL
MODEL 2
REMARK VINA RESULT:      -6.6      3.487      5.355
REMARK  Name = 
REMARK  8 active torsions:
REMARK  status: ('A' for Active; 'I' for Inactive)
REMARK    1  A    between atoms: C_1  and  O_2
REMARK    2  A    between atoms: O_2  and  C_3
REMARK    3  A    between atoms: C_6  and  C_7
REMARK    4  A    between atoms: N_11  and  S_12
REMARK    5  A    between atoms: S_12  and  C_13
REMARK    6  A    between atoms: C_16  and  C_17
REMARK    7  A    between atoms: N_20  and  C_21
REMARK    8  A    between atoms: C_21  and  C_22
REMARK                            x       y       z     vdW  Elec       q    Type
REMARK                         _______ _______ _______ _____ _____    ______ ____
ROOT
ATOM      1  C   UNL     1      -1.306  11.717  20.562  0.00  0.00    +0.000 C 
ATOM      2  C   UNL     1       0.202  11.532  20.564  0.00  0.00    +0.000 C 
ATOM      3  C   UNL     1       1.226  12.387  20.796  0.00  0.00    +0.000 C 
ATOM      4  C   UNL     1       1.229  13.835  21.205  0.00  0.00    +0.000 C 
ATOM      5  N   UNL     1       0.892  14.764  20.095  0.00  0.00    +0.000 NA
ATOM      6  C   UNL     1      -0.368  14.425  19.326  0.00  0.00    +0.000 C 
ATOM      7  C   UNL     1       0.001  13.556  18.128  0.00  0.00    +0.000 C 
ATOM      8  C   UNL     1      -1.541  14.203  20.329  0.00  0.00    +0.000 C 
ATOM      9  O   UNL     1      -2.273  15.170  20.583  0.00  0.00    +0.000 OA
ATOM     10  N   UNL     1      -1.659  13.035  21.073  0.00  0.00    +0.000 N 
ENDROOT
BRANCH   1  14
ATOM     11  C   UNL     1      -3.475  10.868  16.844  0.00  0.00    +0.000 A 
ATOM     12  C   UNL     1      -2.229  10.290  17.082  0.00  0.00    +0.000 A 
ATOM     13  C   UNL     1      -1.537  10.525  18.283  0.00  0.00    +0.000 A 
ATOM     14  C   UNL     1      -2.064  11.380  19.261  0.00  0.00    +0.000 A 
ATOM     15  C   UNL     1      -3.358  11.894  19.027  0.00  0.00    +0.000 A 
ATOM     16  C   UNL     1      -4.043  11.666  17.827  0.00  0.00    +0.000 A 
BRANCH  11  18
ATOM     17  C   UNL     1      -3.116  10.162  14.609  0.00  0.00    +0.000 C 
ATOM     18  O   UNL     1      -4.019  10.599  15.618  0.00  0.00    +0.000 OA
ENDBRANCH  11  18
ENDBRANCH   1  14
BRANCH   5  19
ATOM     19  S   UNL     1       0.897  16.428  20.572  0.00  0.00    +0.000 S 
ATOM     20  C   UNL     1       2.616  16.848  20.427  0.00  0.00    +0.000 C 
ATOM     21  O   UNL     1       0.211  17.206  19.568  0.00  0.00    +0.000 OA
ATOM     22  O   UNL     1       0.538  16.496  21.975  0.00  0.00    +0.000 OA
ENDBRANCH   5  19
BRANCH  10  23
ATOM     23  C   UNL     1      -1.990  13.129  22.499  0.00  0.00    +0.000 C 
BRANCH  23  24
ATOM     24  C   UNL     1      -3.406  12.844  22.935  0.00  0.00    +0.000 A 
ATOM     25  C   UNL     1      -3.716  12.456  24.247  0.00  0.00    +0.000 A 
ATOM     26  C   UNL     1      -5.050  12.363  24.653  0.00  0.00    +0.000 A 
ATOM     27  C   UNL     1      -6.074  12.647  23.752  0.00  0.00    +0.000 A 
ATOM     28  F   UNL     1      -7.347  12.586  24.158  0.00  0.00    +0.000 F 
ATOM     29  C   UNL     1      -5.789  13.006  22.444  0.00  0.00    +0.000 A 
ATOM     30  C   UNL     1      -4.460  13.101  22.037  0.00  0.00    +0.000 A 
ENDBRANCH  23  24
ENDBRANCH  10  23
TORSDOF 5
ENDMDL
MODEL 3
REMARK VINA RESULT:      -6.3      4.149      6.936
REMARK  Name = 
REMARK  8 active torsions:
REMARK  status: ('A' for Active; 'I' for Inactive)
REMARK    1  A    between atoms: C_1  and  O_2
REMARK    2  A    between atoms: O_2  and  C_3
REMARK    3  A    between atoms: C_6  and  C_7
REMARK    4  A    between atoms: N_11  and  S_12
REMARK    5  A    between atoms: S_12  and  C_13
REMARK    6  A    between atoms: C_16  and  C_17
REMARK    7  A    between atoms: N_20  and  C_21
REMARK    8  A    between atoms: C_21  and  C_22
REMARK                            x       y       z     vdW  Elec       q    Type
REMARK                         _______ _______ _______ _____ _____    ______ ____
ROOT
ATOM      1  C   UNL     1      -1.143  14.007  22.870  0.00  0.00    +0.000 C 
ATOM      2  C   UNL     1      -1.622  14.738  24.113  0.00  0.00    +0.000 C 
ATOM      3  C   UNL     1      -2.787  14.702  24.801  0.00  0.00    +0.000 C 
ATOM      4  C   UNL     1      -4.020  13.861  24.609  0.00  0.00    +0.000 C 
ATOM      5  N   UNL     1      -4.869  14.305  23.474  0.00  0.00    +0.000 NA
ATOM      6  C   UNL     1      -4.142  14.500  22.159  0.00  0.00    +0.000 C 
ATOM      7  C   UNL     1      -3.701  15.957  22.049  0.00  0.00    +0.000 C 
ATOM      8  C   UNL     1      -3.296  13.230  21.843  0.00  0.00    +0.000 C 
ATOM      9  O   UNL     1      -3.809  12.359  21.126  0.00  0.00    +0.000 OA
ATOM     10  N   UNL     1      -2.093  12.970  22.491  0.00  0.00    +0.000 N 
ENDROOT
BRANCH   1  14
ATOM     11  C   UNL     1       0.183  16.462  19.484  0.00  0.00    +0.000 A 
ATOM     12  C   UNL     1      -0.307  15.174  19.273  0.00  0.00    +0.000 A 
ATOM     13  C   UNL     1      -0.767  14.389  20.344  0.00  0.00    +0.000 A 
ATOM     14  C   UNL     1      -0.711  14.864  21.661  0.00  0.00    +0.000 A 
ATOM     15  C   UNL     1      -0.280  16.196  21.840  0.00  0.00    +0.000 A 
ATOM     16  C   UNL     1       0.187  16.976  20.774  0.00  0.00    +0.000 A 
BRANCH  11  18
ATOM     17  C   UNL     1      -0.335  17.738  17.554  0.00  0.00    +0.000 C 
ATOM     18  O   UNL     1       0.645  17.102  18.367  0.00  0.00    +0.000 OA
ENDBRANCH  11  18
ENDBRANCH   1  14
BRANCH   5  19
ATOM     19  S   UNL     1      -6.286  13.334  23.259  0.00  0.00    +0.000 S 
ATOM     20  C   UNL     1      -7.489  14.221  24.215  0.00  0.00    +0.000 C 
ATOM     21  O   UNL     1      -6.718  13.432  21.886  0.00  0.00    +0.000 OA
ATOM     22  O   UNL     1      -6.058  12.056  23.904  0.00  0.00    +0.000 OA
ENDBRANCH   5  19
BRANCH  10  23
ATOM     23  C   UNL     1      -1.826  11.612  22.978  0.00  0.00    +0.000 C 
BRANCH  23  24
ATOM     24  C   UNL     1      -0.763  10.791  22.291  0.00  0.00    +0.000 A 
ATOM     25  C   UNL     1      -0.015   9.822  22.974  0.00  0.00    +0.000 A 
ATOM     26  C   UNL     1       0.841   8.971  22.268  0.00  0.00    +0.000 A 
ATOM     27  C   UNL     1       0.958   9.092  20.885  0.00  0.00    +0.000 A 
ATOM     28  F   UNL     1       1.756   8.254  20.214  0.00  0.00    +0.000 F 
ATOM     29  C   UNL     1       0.249  10.062  20.195  0.00  0.00    +0.000 A 
ATOM     30  C   UNL     1      -0.606  10.910  20.896  0.00  0.00    +0.000 A 
ENDBRANCH  23  24
ENDBRANCH  10  23
TORSDOF 5
ENDMDL
MODEL 4
REMARK VINA RESULT:      -6.1      4.084      6.686
REMARK  Name = 
REMARK  8 active torsions:
REMARK  status: ('A' for Active; 'I' for Inactive)
REMARK    1  A    between atoms: C_1  and  O_2
REMARK    2  A    between atoms: O_2  and  C_3
REMARK    3  A    between atoms: C_6  and  C_7
REMARK    4  A    between atoms: N_11  and  S_12
REMARK    5  A    between atoms: S_12  and  C_13
REMARK    6  A    between atoms: C_16  and  C_17
REMARK    7  A    between atoms: N_20  and  C_21
REMARK    8  A    between atoms: C_21  and  C_22
REMARK                            x       y       z     vdW  Elec       q    Type
REMARK                         _______ _______ _______ _____ _____    ______ ____
ROOT
ATOM      1  C   UNL     1      -0.755  13.915  22.759  0.00  0.00    +0.000 C 
ATOM      2  C   UNL     1      -1.211  14.732  23.957  0.00  0.00    +0.000 C 
ATOM      3  C   UNL     1      -2.402  14.836  24.591  0.00  0.00    +0.000 C 
ATOM      4  C   UNL     1      -3.704  14.117  24.366  0.00  0.00    +0.000 C 
ATOM      5  N   UNL     1      -4.454  14.605  23.179  0.00  0.00    +0.000 NA
ATOM      6  C   UNL     1      -3.654  14.683  21.895  0.00  0.00    +0.000 C 
ATOM      7  C   UNL     1      -3.062  16.083  21.763  0.00  0.00    +0.000 C 
ATOM      8  C   UNL     1      -2.928  13.323  21.656  0.00  0.00    +0.000 C 
ATOM      9  O   UNL     1      -3.495  12.485  20.942  0.00  0.00    +0.000 OA
ATOM     10  N   UNL     1      -1.788  12.967  22.366  0.00  0.00    +0.000 N 
ENDROOT
BRANCH   1  14
ATOM     11  C   UNL     1       0.768  16.082  19.261  0.00  0.00    +0.000 A 
ATOM     12  C   UNL     1       0.833  16.656  20.531  0.00  0.00    +0.000 A 
ATOM     13  C   UNL     1       0.380  15.961  21.665  0.00  0.00    +0.000 A 
ATOM     14  C   UNL     1      -0.185  14.683  21.548  0.00  0.00    +0.000 A 
ATOM     15  C   UNL     1      -0.171  14.096  20.264  0.00  0.00    +0.000 A 
ATOM     16  C   UNL     1       0.271  14.792  19.133  0.00  0.00    +0.000 A 
BRANCH  11  18
ATOM     17  C   UNL     1       0.939  18.274  18.373  0.00  0.00    +0.000 C 
ATOM     18  O   UNL     1       1.195  16.881  18.236  0.00  0.00    +0.000 OA
ENDBRANCH  11  18
ENDBRANCH   1  14
BRANCH   5  19
ATOM     19  S   UNL     1      -5.951  13.774  22.927  0.00  0.00    +0.000 S 
ATOM     20  C   UNL     1      -7.063  14.696  23.959  0.00  0.00    +0.000 C 
ATOM     21  O   UNL     1      -6.389  14.000  21.570  0.00  0.00    +0.000 OA
ATOM     22  O   UNL     1      -5.826  12.442  23.484  0.00  0.00    +0.000 OA
ENDBRANCH   5  19
BRANCH  10  23
ATOM     23  C   UNL     1      -1.681  11.606  22.905  0.00  0.00    +0.000 C 
BRANCH  23  24
ATOM     24  C   UNL     1      -0.798  10.611  22.194  0.00  0.00    +0.000 A 
ATOM     25  C   UNL     1      -0.637  10.625  20.800  0.00  0.00    +0.000 A 
ATOM     26  C   UNL     1       0.315   9.797  20.197  0.00  0.00    +0.000 A 
ATOM     27  C   UNL     1       1.097   8.950  20.980  0.00  0.00    +0.000 A 
ATOM     28  F   UNL     1       2.027   8.184  20.398  0.00  0.00    +0.000 F 
ATOM     29  C   UNL     1       0.934   8.902  22.355  0.00  0.00    +0.000 A 
ATOM     30  C   UNL     1      -0.013   9.727  22.958  0.00  0.00    +0.000 A 
ENDBRANCH  23  24
ENDBRANCH  10  23
TORSDOF 5
ENDMDL
MODEL 5
REMARK VINA RESULT:      -6.1      3.329      5.170
REMARK  Name = 
REMARK  8 active torsions:
REMARK  status: ('A' for Active; 'I' for Inactive)
REMARK    1  A    between atoms: C_1  and  O_2
REMARK    2  A    between atoms: O_2  and  C_3
REMARK    3  A    between atoms: C_6  and  C_7
REMARK    4  A    between atoms: N_11  and  S_12
REMARK    5  A    between atoms: S_12  and  C_13
REMARK    6  A    between atoms: C_16  and  C_17
REMARK    7  A    between atoms: N_20  and  C_21
REMARK    8  A    between atoms: C_21  and  C_22
REMARK                            x       y       z     vdW  Elec       q    Type
REMARK                         _______ _______ _______ _____ _____    ______ ____
ROOT
ATOM      1  C   UNL     1      -0.872  12.195  20.882  0.00  0.00    +0.000 C 
ATOM      2  C   UNL     1       0.632  12.027  21.015  0.00  0.00    +0.000 C 
ATOM      3  C   UNL     1       1.642  12.918  21.157  0.00  0.00    +0.000 C 
ATOM      4  C   UNL     1       1.622  14.416  21.298  0.00  0.00    +0.000 C 
ATOM      5  N   UNL     1       1.362  15.128  20.020  0.00  0.00    +0.000 NA
ATOM      6  C   UNL     1       0.155  14.645  19.244  0.00  0.00    +0.000 C 
ATOM      7  C   UNL     1       0.599  13.579  18.248  0.00  0.00    +0.000 C 
ATOM      8  C   UNL     1      -1.083  14.597  20.191  0.00  0.00    +0.000 C 
ATOM      9  O   UNL     1      -1.827  15.588  20.219  0.00  0.00    +0.000 OA
ATOM     10  N   UNL     1      -1.253  13.581  21.123  0.00  0.00    +0.000 N 
ENDROOT
BRANCH   1  14
ATOM     11  C   UNL     1      -2.766  10.468  17.321  0.00  0.00    +0.000 A 
ATOM     12  C   UNL     1      -3.414  11.463  18.053  0.00  0.00    +0.000 A 
ATOM     13  C   UNL     1      -2.806  12.049  19.176  0.00  0.00    +0.000 A 
ATOM     14  C   UNL     1      -1.544  11.624  19.615  0.00  0.00    +0.000 A 
ATOM     15  C   UNL     1      -0.879  10.670  18.815  0.00  0.00    +0.000 A 
ATOM     16  C   UNL     1      -1.489  10.079  17.702  0.00  0.00    +0.000 A 
BRANCH  11  18
ATOM     17  C   UNL     1      -3.149  10.417  14.982  0.00  0.00    +0.000 C 
ATOM     18  O   UNL     1      -3.485   9.946  16.281  0.00  0.00    +0.000 OA
ENDBRANCH  11  18
ENDBRANCH   1  14
BRANCH   5  19
ATOM     19  S   UNL     1       1.342  16.851  20.190  0.00  0.00    +0.000 S 
ATOM     20  C   UNL     1       3.070  17.248  20.119  0.00  0.00    +0.000 C 
ATOM     21  O   UNL     1       0.752  17.431  19.007  0.00  0.00    +0.000 OA
ATOM     22  O   UNL     1       0.865  17.167  21.522  0.00  0.00    +0.000 OA
ENDBRANCH   5  19
BRANCH  10  23
ATOM     23  C   UNL     1      -1.678  13.926  22.485  0.00  0.00    +0.000 C 
BRANCH  23  24
ATOM     24  C   UNL     1      -3.096  13.625  22.901  0.00  0.00    +0.000 A 
ATOM     25  C   UNL     1      -4.186  13.857  22.049  0.00  0.00    +0.000 A 
ATOM     26  C   UNL     1      -5.462  13.412  22.406  0.00  0.00    +0.000 A 
ATOM     27  C   UNL     1      -5.653  12.745  23.614  0.00  0.00    +0.000 A 
ATOM     28  F   UNL     1      -6.872  12.295  23.935  0.00  0.00    +0.000 F 
ATOM     29  C   UNL     1      -4.595  12.530  24.482  0.00  0.00    +0.000 A 
ATOM     30  C   UNL     1      -3.322  12.971  24.128  0.00  0.00    +0.000 A 
ENDBRANCH  23  24
ENDBRANCH  10  23
TORSDOF 5
ENDMDL
MODEL 6
REMARK VINA RESULT:      -6.1      3.891      6.919
REMARK  Name = 
REMARK  8 active torsions:
REMARK  status: ('A' for Active; 'I' for Inactive)
REMARK    1  A    between atoms: C_1  and  O_2
REMARK    2  A    between atoms: O_2  and  C_3
REMARK    3  A    between atoms: C_6  and  C_7
REMARK    4  A    between atoms: N_11  and  S_12
REMARK    5  A    between atoms: S_12  and  C_13
REMARK    6  A    between atoms: C_16  and  C_17
REMARK    7  A    between atoms: N_20  and  C_21
REMARK    8  A    between atoms: C_21  and  C_22
REMARK                            x       y       z     vdW  Elec       q    Type
REMARK                         _______ _______ _______ _____ _____    ______ ____
ROOT
ATOM      1  C   UNL     1      -1.552  13.408  19.845  0.00  0.00    +0.000 C 
ATOM      2  C   UNL     1      -1.302  12.461  18.683  0.00  0.00    +0.000 C 
ATOM      3  C   UNL     1      -0.958  11.153  18.629  0.00  0.00    +0.000 C 
ATOM      4  C   UNL     1      -0.760  10.140  19.724  0.00  0.00    +0.000 C 
ATOM      5  N   UNL     1       0.523  10.301  20.456  0.00  0.00    +0.000 NA
ATOM      6  C   UNL     1       0.809  11.700  20.961  0.00  0.00    +0.000 C 
ATOM      7  C   UNL     1       1.624  12.448  19.911  0.00  0.00    +0.000 C 
ATOM      8  C   UNL     1      -0.427  12.227  21.751  0.00  0.00    +0.000 C 
ATOM      9  O   UNL     1      -0.436  12.070  22.980  0.00  0.00    +0.000 OA
ATOM     10  N   UNL     1      -1.573  12.675  21.104  0.00  0.00    +0.000 N 
ENDROOT
BRANCH   1  14
ATOM     11  C   UNL     1       0.985  16.972  20.172  0.00  0.00    +0.000 A 
ATOM     12  C   UNL     1       0.797  16.350  18.938  0.00  0.00    +0.000 A 
ATOM     13  C   UNL     1      -0.040  15.228  18.812  0.00  0.00    +0.000 A 
ATOM     14  C   UNL     1      -0.680  14.678  19.931  0.00  0.00    +0.000 A 
ATOM     15  C   UNL     1      -0.532  15.370  21.153  0.00  0.00    +0.000 A 
ATOM     16  C   UNL     1       0.308  16.482  21.281  0.00  0.00    +0.000 A 
BRANCH  11  18
ATOM     17  C   UNL     1       2.943  17.945  21.088  0.00  0.00    +0.000 C 
ATOM     18  O   UNL     1       1.860  18.023  20.169  0.00  0.00    +0.000 OA
ENDBRANCH  11  18
ENDBRANCH   1  14
BRANCH   5  19
ATOM     19  S   UNL     1       0.744   9.131  21.713  0.00  0.00    +0.000 S 
ATOM     20  C   UNL     1       1.489   7.781  20.834  0.00  0.00    +0.000 C 
ATOM     21  O   UNL     1       1.750   9.612  22.629  0.00  0.00    +0.000 OA
ATOM     22  O   UNL     1      -0.565   8.702  22.164  0.00  0.00    +0.000 OA
ENDBRANCH   5  19
BRANCH  10  23
ATOM     23  C   UNL     1      -2.886  12.254  21.607  0.00  0.00    +0.000 C 
BRANCH  23  24
ATOM     24  C   UNL     1      -3.789  13.288  22.231  0.00  0.00    +0.000 A 
ATOM     25  C   UNL     1      -5.110  13.479  21.799  0.00  0.00    +0.000 A 
ATOM     26  C   UNL     1      -5.963  14.328  22.509  0.00  0.00    +0.000 A 
ATOM     27  C   UNL     1      -5.499  14.993  23.643  0.00  0.00    +0.000 A 
ATOM     28  F   UNL     1      -6.332  15.780  24.334  0.00  0.00    +0.000 F 
ATOM     29  C   UNL     1      -4.190  14.839  24.070  0.00  0.00    +0.000 A 
ATOM     30  C   UNL     1      -3.338  13.992  23.365  0.00  0.00    +0.000 A 
ENDBRANCH  23  24
ENDBRANCH  10  23
TORSDOF 5
ENDMDL
MODEL 7
REMARK VINA RESULT:      -6.1      3.183      4.244
REMARK  Name = 
REMARK  8 active torsions:
REMARK  status: ('A' for Active; 'I' for Inactive)
REMARK    1  A    between atoms: C_1  and  O_2
REMARK    2  A    between atoms: O_2  and  C_3
REMARK    3  A    between atoms: C_6  and  C_7
REMARK    4  A    between atoms: N_11  and  S_12
REMARK    5  A    between atoms: S_12  and  C_13
REMARK    6  A    between atoms: C_16  and  C_17
REMARK    7  A    between atoms: N_20  and  C_21
REMARK    8  A    between atoms: C_21  and  C_22
REMARK                            x       y       z     vdW  Elec       q    Type
REMARK                         _______ _______ _______ _____ _____    ______ ____
ROOT
ATOM      1  C   UNL     1      -3.028  12.543  21.422  0.00  0.00    +0.000 C 
ATOM      2  C   UNL     1      -3.033  12.346  22.929  0.00  0.00    +0.000 C 
ATOM      3  C   UNL     1      -3.248  13.197  23.959  0.00  0.00    +0.000 C 
ATOM      4  C   UNL     1      -3.627  14.653  23.974  0.00  0.00    +0.000 C 
ATOM      5  N   UNL     1      -2.499  15.562  23.644  0.00  0.00    +0.000 NA
ATOM      6  C   UNL     1      -1.738  15.218  22.380  0.00  0.00    +0.000 C 
ATOM      7  C   UNL     1      -0.557  14.322  22.742  0.00  0.00    +0.000 C 
ATOM      8  C   UNL     1      -2.746  15.026  21.206  0.00  0.00    +0.000 C 
ATOM      9  O   UNL     1      -2.981  16.003  20.482  0.00  0.00    +0.000 OA
ATOM     10  N   UNL     1      -3.513  13.874  21.080  0.00  0.00    +0.000 N 
ENDROOT
BRANCH   1  14
ATOM     11  C   UNL     1       0.623  11.420  19.264  0.00  0.00    +0.000 A 
ATOM     12  C   UNL     1      -0.248  12.370  18.731  0.00  0.00    +0.000 A 
ATOM     13  C   UNL     1      -1.404  12.764  19.426  0.00  0.00    +0.000 A 
ATOM     14  C   UNL     1      -1.735  12.186  20.660  0.00  0.00    +0.000 A 
ATOM     15  C   UNL     1      -0.800  11.283  21.211  0.00  0.00    +0.000 A 
ATOM     16  C   UNL     1       0.348  10.884  20.515  0.00  0.00    +0.000 A 
BRANCH  11  18
ATOM     17  C   UNL     1       1.764   9.729  18.056  0.00  0.00    +0.000 C 
ATOM     18  O   UNL     1       1.684  11.089  18.467  0.00  0.00    +0.000 OA
ENDBRANCH  11  18
ENDBRANCH   1  14
BRANCH   5  19
ATOM     19  S   UNL     1      -2.943  17.236  23.663  0.00  0.00    +0.000 S 
ATOM     20  C   UNL     1      -2.783  17.640  25.384  0.00  0.00    +0.000 C 
ATOM     21  O   UNL     1      -1.926  17.998  22.979  0.00  0.00    +0.000 OA
ATOM     22  O   UNL     1      -4.346  17.334  23.309  0.00  0.00    +0.000 OA
ENDBRANCH   5  19
BRANCH  10  23
ATOM     23  C   UNL     1      -4.937  13.999  20.750  0.00  0.00    +0.000 C 
BRANCH  23  24
ATOM     24  C   UNL     1      -5.646  12.818  20.135  0.00  0.00    +0.000 A 
ATOM     25  C   UNL     1      -5.283  12.304  18.882  0.00  0.00    +0.000 A 
ATOM     26  C   UNL     1      -5.850  11.112  18.422  0.00  0.00    +0.000 A 
ATOM     27  C   UNL     1      -6.785  10.438  19.206  0.00  0.00    +0.000 A 
ATOM     28  F   UNL     1      -7.300   9.282  18.772  0.00  0.00    +0.000 F 
ATOM     29  C   UNL     1      -7.177  10.944  20.435  0.00  0.00    +0.000 A 
ATOM     30  C   UNL     1      -6.612  12.131  20.896  0.00  0.00    +0.000 A 
ENDBRANCH  23  24
ENDBRANCH  10  23
TORSDOF 5
ENDMDL
MODEL 8
REMARK VINA RESULT:      -6.0      3.234      4.775
REMARK  Name = 
REMARK  8 active torsions:
REMARK  status: ('A' for Active; 'I' for Inactive)
REMARK    1  A    between atoms: C_1  and  O_2
REMARK    2  A    between atoms: O_2  and  C_3
REMARK    3  A    between atoms: C_6  and  C_7
REMARK    4  A    between atoms: N_11  and  S_12
REMARK    5  A    between atoms: S_12  and  C_13
REMARK    6  A    between atoms: C_16  and  C_17
REMARK    7  A    between atoms: N_20  and  C_21
REMARK    8  A    between atoms: C_21  and  C_22
REMARK                            x       y       z     vdW  Elec       q    Type
REMARK                         _______ _______ _______ _____ _____    ______ ____
ROOT
ATOM      1  C   UNL     1      -0.385  11.840  20.207  0.00  0.00    +0.000 C 
ATOM      2  C   UNL     1       0.074  11.255  21.533  0.00  0.00    +0.000 C 
ATOM      3  C   UNL     1      -0.563  11.047  22.709  0.00  0.00    +0.000 C 
ATOM      4  C   UNL     1      -1.997  11.269  23.105  0.00  0.00    +0.000 C 
ATOM      5  N   UNL     1      -2.333  12.697  23.339  0.00  0.00    +0.000 NA
ATOM      6  C   UNL     1      -1.929  13.647  22.230  0.00  0.00    +0.000 C 
ATOM      7  C   UNL     1      -0.541  14.202  22.534  0.00  0.00    +0.000 C 
ATOM      8  C   UNL     1      -2.451  13.100  20.866  0.00  0.00    +0.000 C 
ATOM      9  O   UNL     1      -3.547  13.513  20.461  0.00  0.00    +0.000 OA
ATOM     10  N   UNL     1      -1.828  12.044  20.213  0.00  0.00    +0.000 N 
ENDROOT
BRANCH   1  14
ATOM     11  C   UNL     1       1.689  15.417  18.741  0.00  0.00    +0.000 A 
ATOM     12  C   UNL     1       2.395  14.411  19.399  0.00  0.00    +0.000 A 
ATOM     13  C   UNL     1       1.751  13.245  19.845  0.00  0.00    +0.000 A 
ATOM     14  C   UNL     1       0.370  13.075  19.673  0.00  0.00    +0.000 A 
ATOM     15  C   UNL     1      -0.308  14.073  18.940  0.00  0.00    +0.000 A 
ATOM     16  C   UNL     1       0.333  15.239  18.503  0.00  0.00    +0.000 A 
BRANCH  11  18
ATOM     17  C   UNL     1       3.830  16.423  18.584  0.00  0.00    +0.000 C 
ATOM     18  O   UNL     1       2.422  16.521  18.402  0.00  0.00    +0.000 OA
ENDBRANCH  11  18
ENDBRANCH   1  14
BRANCH   5  19
ATOM     19  S   UNL     1      -3.985  12.945  23.796  0.00  0.00    +0.000 S 
ATOM     20  C   UNL     1      -4.155  14.704  23.624  0.00  0.00    +0.000 C 
ATOM     21  O   UNL     1      -4.841  12.363  22.790  0.00  0.00    +0.000 OA
ATOM     22  O   UNL     1      -4.117  12.619  25.202  0.00  0.00    +0.000 OA
ENDBRANCH   5  19
BRANCH  10  23
ATOM     23  C   UNL     1      -2.653  10.975  19.639  0.00  0.00    +0.000 C 
BRANCH  23  24
ATOM     24  C   UNL     1      -2.834  10.924  18.142  0.00  0.00    +0.000 A 
ATOM     25  C   UNL     1      -2.010  10.142  17.320  0.00  0.00    +0.000 A 
ATOM     26  C   UNL     1      -2.313   9.992  15.963  0.00  0.00    +0.000 A 
ATOM     27  C   UNL     1      -3.430  10.628  15.425  0.00  0.00    +0.000 A 
ATOM     28  F   UNL     1      -3.731  10.455  14.133  0.00  0.00    +0.000 F 
ATOM     29  C   UNL     1      -4.241  11.427  16.215  0.00  0.00    +0.000 A 
ATOM     30  C   UNL     1      -3.942  11.576  17.567  0.00  0.00    +0.000 A 
ENDBRANCH  23  24
ENDBRANCH  10  23
TORSDOF 5
ENDMDL
MODEL 9
REMARK VINA RESULT:      -6.0      4.145      6.855
REMARK  Name = 
REMARK  8 active torsions:
REMARK  status: ('A' for Active; 'I' for Inactive)
REMARK    1  A    between atoms: C_1  and  O_2
REMARK    2  A    between atoms: O_2  and  C_3
REMARK    3  A    between atoms: C_6  and  C_7
REMARK    4  A    between atoms: N_11  and  S_12
REMARK    5  A    between atoms: S_12  and  C_13
REMARK    6  A    between atoms: C_16  and  C_17
REMARK    7  A    between atoms: N_20  and  C_21
REMARK    8  A    between atoms: C_21  and  C_22
REMARK                            x       y       z     vdW  Elec       q    Type
REMARK                         _______ _______ _______ _____ _____    ______ ____
ROOT
ATOM      1  C   UNL     1      -0.937  14.021  22.812  0.00  0.00    +0.000 C 
ATOM      2  C   UNL     1      -1.330  14.773  24.072  0.00  0.00    +0.000 C 
ATOM      3  C   UNL     1      -2.482  14.826  24.782  0.00  0.00    +0.000 C 
ATOM      4  C   UNL     1      -3.783  14.093  24.604  0.00  0.00    +0.000 C 
ATOM      5  N   UNL     1      -4.613  14.621  23.490  0.00  0.00    +0.000 NA
ATOM      6  C   UNL     1      -3.896  14.771  22.164  0.00  0.00    +0.000 C 
ATOM      7  C   UNL     1      -3.337  16.187  22.062  0.00  0.00    +0.000 C 
ATOM      8  C   UNL     1      -3.165  13.438  21.818  0.00  0.00    +0.000 C 
ATOM      9  O   UNL     1      -3.762  12.622  21.101  0.00  0.00    +0.000 OA
ATOM     10  N   UNL     1      -1.977  13.072  22.439  0.00  0.00    +0.000 N 
ENDROOT
BRANCH   1  14
ATOM     11  C   UNL     1       0.328  16.379  19.335  0.00  0.00    +0.000 A 
ATOM     12  C   UNL     1       0.533  16.861  20.627  0.00  0.00    +0.000 A 
ATOM     13  C   UNL     1       0.164  16.102  21.751  0.00  0.00    +0.000 A 
ATOM     14  C   UNL     1      -0.456  14.854  21.605  0.00  0.00    +0.000 A 
ATOM     15  C   UNL     1      -0.585  14.357  20.289  0.00  0.00    +0.000 A 
ATOM     16  C   UNL     1      -0.226  15.117  19.169  0.00  0.00    +0.000 A 
BRANCH  11  18
ATOM     17  C   UNL     1      -0.374  17.746  17.529  0.00  0.00    +0.000 C 
ATOM     18  O   UNL     1       0.686  17.234  18.329  0.00  0.00    +0.000 OA
ENDBRANCH  11  18
ENDBRANCH   1  14
BRANCH   5  19
ATOM     19  S   UNL     1      -6.110  13.773  23.292  0.00  0.00    +0.000 S 
ATOM     20  C   UNL     1      -6.567  14.216  21.635  0.00  0.00    +0.000 C 
ATOM     21  O   UNL     1      -5.845  12.355  23.266  0.00  0.00    +0.000 OA
ATOM     22  O   UNL     1      -7.082  14.359  24.194  0.00  0.00    +0.000 OA
ENDBRANCH   5  19
BRANCH  10  23
ATOM     23  C   UNL     1      -1.815  11.690  22.906  0.00  0.00    +0.000 C 
BRANCH  23  24
ATOM     24  C   UNL     1      -0.764  10.824  22.258  0.00  0.00    +0.000 A 
ATOM     25  C   UNL     1      -0.034   9.871  22.984  0.00  0.00    +0.000 A 
ATOM     26  C   UNL     1       0.809   8.977  22.317  0.00  0.00    +0.000 A 
ATOM     27  C   UNL     1       0.932   9.039  20.930  0.00  0.00    +0.000 A 
ATOM     28  F   UNL     1       1.718   8.160  20.297  0.00  0.00    +0.000 F 
ATOM     29  C   UNL     1       0.241   9.990  20.198  0.00  0.00    +0.000 A 
ATOM     30  C   UNL     1      -0.601  10.881  20.860  0.00  0.00    +0.000 A 
ENDBRANCH  23  24
ENDBRANCH  10  23
TORSDOF 5
ENDMDL
