MODEL 1
REMARK VINA RESULT:      -8.1      0.000      0.000
REMARK  Name = 
REMARK  5 active torsions:
REMARK  status: ('A' for Active; 'I' for Inactive)
REMARK    1  A    between atoms: C_2  and  O_16
REMARK    2  A    between atoms: N_3  and  C_4
REMARK    3  A    between atoms: C_4  and  C_5
REMARK    4  A    between atoms: O_16  and  C_17
REMARK    5  A    between atoms: C_17  and  C_18
REMARK                            x       y       z     vdW  Elec       q    Type
REMARK                         _______ _______ _______ _____ _____    ______ ____
ROOT
ATOM      1  C   UNL     1       5.937   4.715  18.830  0.00  0.00    +0.000 A 
ATOM      2  N   UNL     1       4.972   5.467  19.324  0.00  0.00    +0.000 NA
ATOM      3  C   UNL     1       3.882   4.630  19.484  0.00  0.00    +0.000 A 
ATOM      4  C   UNL     1       2.580   4.893  19.936  0.00  0.00    +0.000 A 
ATOM      5  F   UNL     1       2.207   6.126  20.310  0.00  0.00    +0.000 F 
ATOM      6  C   UNL     1       1.665   3.844  19.983  0.00  0.00    +0.000 A 
ATOM      7  F   UNL     1       0.405   4.073  20.400  0.00  0.00    +0.000 F 
ATOM      8  C   UNL     1       2.007   2.550  19.596  0.00  0.00    +0.000 A 
ATOM      9  C   UNL     1       3.302   2.261  19.146  0.00  0.00    +0.000 A 
ATOM     10  C   UNL     1       4.209   3.326  19.100  0.00  0.00    +0.000 A 
ATOM     11  N   UNL     1       5.520   3.410  18.709  0.00  0.00    +0.000 N 
ATOM     12  H   UNL     1       6.079   2.642  18.359  0.00  0.00    +0.000 HD
ENDROOT
BRANCH   1  13
ATOM     13  C   UNL     1       7.303   5.140  18.395  0.00  0.00    +0.000 C 
BRANCH  13  16
ATOM     14  O   UNL     1       6.504   6.369  16.000  0.00  0.00    +0.000 OA
ATOM     15  C   UNL     1       7.130   5.320  15.968  0.00  0.00    +0.000 C 
ATOM     16  N   UNL     1       7.587   4.663  17.070  0.00  0.00    +0.000 N 
ATOM     17  H   UNL     1       8.053   3.770  16.952  0.00  0.00    +0.000 HD
BRANCH  15  18
ATOM     18  O   UNL     1       7.381   4.589  14.855  0.00  0.00    +0.000 OA
BRANCH  18  19
ATOM     19  C   UNL     1       6.236   3.922  14.304  0.00  0.00    +0.000 C 
BRANCH  19  20
ATOM     20  C   UNL     1       6.241   3.913  12.807  0.00  0.00    +0.000 C 
ATOM     21  C   UNL     1       6.303   2.644  11.993  0.00  0.00    +0.000 C 
ATOM     22  C   UNL     1       5.011   3.404  12.085  0.00  0.00    +0.000 C 
ENDBRANCH  19  20
ENDBRANCH  18  19
ENDBRANCH  15  18
ENDBRANCH  13  16
ENDBRANCH   1  13
TORSDOF 5
ENDMDL
MODEL 2
REMARK VINA RESULT:      -8.0      1.480      2.013
REMARK  Name = 
REMARK  5 active torsions:
REMARK  status: ('A' for Active; 'I' for Inactive)
REMARK    1  A    between atoms: C_2  and  O_16
REMARK    2  A    between atoms: N_3  and  C_4
REMARK    3  A    between atoms: C_4  and  C_5
REMARK    4  A    between atoms: O_16  and  C_17
REMARK    5  A    between atoms: C_17  and  C_18
REMARK                            x       y       z     vdW  Elec       q    Type
REMARK                         _______ _______ _______ _____ _____    ______ ____
ROOT
ATOM      1  C   UNL     1       5.117   4.897  18.904  0.00  0.00    +0.000 A 
ATOM      2  N   UNL     1       4.552   3.937  18.197  0.00  0.00    +0.000 NA
ATOM      3  C   UNL     1       3.280   3.780  18.717  0.00  0.00    +0.000 A 
ATOM      4  C   UNL     1       2.253   2.885  18.381  0.00  0.00    +0.000 A 
ATOM      5  F   UNL     1       2.409   1.981  17.402  0.00  0.00    +0.000 F 
ATOM      6  C   UNL     1       1.058   2.941  19.093  0.00  0.00    +0.000 A 
ATOM      7  F   UNL     1       0.062   2.084  18.798  0.00  0.00    +0.000 F 
ATOM      8  C   UNL     1       0.857   3.858  20.123  0.00  0.00    +0.000 A 
ATOM      9  C   UNL     1       1.864   4.766  20.474  0.00  0.00    +0.000 A 
ATOM     10  C   UNL     1       3.062   4.694  19.753  0.00  0.00    +0.000 A 
ATOM     11  N   UNL     1       4.235   5.398  19.833  0.00  0.00    +0.000 N 
ATOM     12  H   UNL     1       4.430   6.142  20.491  0.00  0.00    +0.000 HD
ENDROOT
BRANCH   1  13
ATOM     13  C   UNL     1       6.520   5.406  18.808  0.00  0.00    +0.000 C 
BRANCH  13  16
ATOM     14  O   UNL     1       6.470   6.622  16.277  0.00  0.00    +0.000 OA
ATOM     15  C   UNL     1       7.055   5.561  16.432  0.00  0.00    +0.000 C 
ATOM     16  N   UNL     1       7.162   4.908  17.622  0.00  0.00    +0.000 N 
ATOM     17  H   UNL     1       7.622   4.005  17.647  0.00  0.00    +0.000 HD
BRANCH  15  18
ATOM     18  O   UNL     1       7.598   4.812  15.442  0.00  0.00    +0.000 OA
BRANCH  18  19
ATOM     19  C   UNL     1       6.993   4.990  14.153  0.00  0.00    +0.000 C 
BRANCH  19  20
ATOM     20  C   UNL     1       6.319   3.747  13.657  0.00  0.00    +0.000 C 
ATOM     21  C   UNL     1       5.121   3.772  12.741  0.00  0.00    +0.000 C 
ATOM     22  C   UNL     1       6.465   3.383  12.195  0.00  0.00    +0.000 C 
ENDBRANCH  19  20
ENDBRANCH  18  19
ENDBRANCH  15  18
ENDBRANCH  13  16
ENDBRANCH   1  13
TORSDOF 5
ENDMDL
MODEL 3
REMARK VINA RESULT:      -7.9      1.916      2.325
REMARK  Name = 
REMARK  5 active torsions:
REMARK  status: ('A' for Active; 'I' for Inactive)
REMARK    1  A    between atoms: C_2  and  O_16
REMARK    2  A    between atoms: N_3  and  C_4
REMARK    3  A    between atoms: C_4  and  C_5
REMARK    4  A    between atoms: O_16  and  C_17
REMARK    5  A    between atoms: C_17  and  C_18
REMARK                            x       y       z     vdW  Elec       q    Type
REMARK                         _______ _______ _______ _____ _____    ______ ____
ROOT
ATOM      1  C   UNL     1       4.269   5.908  17.407  0.00  0.00    +0.000 A 
ATOM      2  N   UNL     1       3.710   4.739  17.160  0.00  0.00    +0.000 NA
ATOM      3  C   UNL     1       2.831   4.510  18.202  0.00  0.00    +0.000 A 
ATOM      4  C   UNL     1       1.996   3.415  18.478  0.00  0.00    +0.000 A 
ATOM      5  F   UNL     1       1.952   2.350  17.664  0.00  0.00    +0.000 F 
ATOM      6  C   UNL     1       1.212   3.446  19.628  0.00  0.00    +0.000 A 
ATOM      7  F   UNL     1       0.413   2.403  19.922  0.00  0.00    +0.000 F 
ATOM      8  C   UNL     1       1.233   4.529  20.505  0.00  0.00    +0.000 A 
ATOM      9  C   UNL     1       2.053   5.636  20.250  0.00  0.00    +0.000 A 
ATOM     10  C   UNL     1       2.839   5.588  19.093  0.00  0.00    +0.000 A 
ATOM     11  N   UNL     1       3.745   6.463  18.551  0.00  0.00    +0.000 N 
ATOM     12  H   UNL     1       4.008   7.357  18.947  0.00  0.00    +0.000 HD
ENDROOT
BRANCH   1  13
ATOM     13  C   UNL     1       5.353   6.591  16.635  0.00  0.00    +0.000 C 
BRANCH  13  16
ATOM     14  O   UNL     1       7.645   5.022  16.220  0.00  0.00    +0.000 OA
ATOM     15  C   UNL     1       6.820   5.145  15.327  0.00  0.00    +0.000 C 
ATOM     16  N   UNL     1       5.665   5.857  15.439  0.00  0.00    +0.000 N 
ATOM     17  H   UNL     1       5.063   5.949  14.628  0.00  0.00    +0.000 HD
BRANCH  15  18
ATOM     18  O   UNL     1       6.961   4.688  14.059  0.00  0.00    +0.000 OA
BRANCH  18  19
ATOM     19  C   UNL     1       6.028   3.665  13.682  0.00  0.00    +0.000 C 
BRANCH  19  20
ATOM     20  C   UNL     1       5.941   3.484  12.198  0.00  0.00    +0.000 C 
ATOM     21  C   UNL     1       5.633   2.158  11.549  0.00  0.00    +0.000 C 
ATOM     22  C   UNL     1       4.582   3.230  11.581  0.00  0.00    +0.000 C 
ENDBRANCH  19  20
ENDBRANCH  18  19
ENDBRANCH  15  18
ENDBRANCH  13  16
ENDBRANCH   1  13
TORSDOF 5
ENDMDL
MODEL 4
REMARK VINA RESULT:      -7.9      1.186      1.831
REMARK  Name = 
REMARK  5 active torsions:
REMARK  status: ('A' for Active; 'I' for Inactive)
REMARK    1  A    between atoms: C_2  and  O_16
REMARK    2  A    between atoms: N_3  and  C_4
REMARK    3  A    between atoms: C_4  and  C_5
REMARK    4  A    between atoms: O_16  and  C_17
REMARK    5  A    between atoms: C_17  and  C_18
REMARK                            x       y       z     vdW  Elec       q    Type
REMARK                         _______ _______ _______ _____ _____    ______ ____
ROOT
ATOM      1  C   UNL     1       6.032   4.896  18.413  0.00  0.00    +0.000 A 
ATOM      2  N   UNL     1       5.521   3.823  18.986  0.00  0.00    +0.000 NA
ATOM      3  C   UNL     1       4.279   4.201  19.463  0.00  0.00    +0.000 A 
ATOM      4  C   UNL     1       3.312   3.482  20.184  0.00  0.00    +0.000 A 
ATOM      5  F   UNL     1       3.509   2.200  20.526  0.00  0.00    +0.000 F 
ATOM      6  C   UNL     1       2.136   4.130  20.552  0.00  0.00    +0.000 A 
ATOM      7  F   UNL     1       1.199   3.466  21.256  0.00  0.00    +0.000 F 
ATOM      8  C   UNL     1       1.895   5.462  20.225  0.00  0.00    +0.000 A 
ATOM      9  C   UNL     1       2.840   6.200  19.501  0.00  0.00    +0.000 A 
ATOM     10  C   UNL     1       4.020   5.537  19.142  0.00  0.00    +0.000 A 
ATOM     11  N   UNL     1       5.140   5.942  18.463  0.00  0.00    +0.000 N 
ATOM     12  H   UNL     1       5.296   6.869  18.087  0.00  0.00    +0.000 HD
ENDROOT
BRANCH   1  13
ATOM     13  C   UNL     1       7.390   5.057  17.809  0.00  0.00    +0.000 C 
BRANCH  13  16
ATOM     14  O   UNL     1       6.215   6.028  15.450  0.00  0.00    +0.000 OA
ATOM     15  C   UNL     1       6.821   4.967  15.437  0.00  0.00    +0.000 C 
ATOM     16  N   UNL     1       7.450   4.427  16.518  0.00  0.00    +0.000 N 
ATOM     17  H   UNL     1       7.885   3.516  16.429  0.00  0.00    +0.000 HD
BRANCH  15  18
ATOM     18  O   UNL     1       6.882   4.110  14.390  0.00  0.00    +0.000 OA
BRANCH  18  19
ATOM     19  C   UNL     1       5.626   3.862  13.743  0.00  0.00    +0.000 C 
BRANCH  19  20
ATOM     20  C   UNL     1       5.774   3.615  12.273  0.00  0.00    +0.000 C 
ATOM     21  C   UNL     1       5.662   2.243  11.655  0.00  0.00    +0.000 C 
ATOM     22  C   UNL     1       4.544   3.230  11.479  0.00  0.00    +0.000 C 
ENDBRANCH  19  20
ENDBRANCH  18  19
ENDBRANCH  15  18
ENDBRANCH  13  16
ENDBRANCH   1  13
TORSDOF 5
ENDMDL
MODEL 5
REMARK VINA RESULT:      -7.8      1.555      1.750
REMARK  Name = 
REMARK  5 active torsions:
REMARK  status: ('A' for Active; 'I' for Inactive)
REMARK    1  A    between atoms: C_2  and  O_16
REMARK    2  A    between atoms: N_3  and  C_4
REMARK    3  A    between atoms: C_4  and  C_5
REMARK    4  A    between atoms: O_16  and  C_17
REMARK    5  A    between atoms: C_17  and  C_18
REMARK                            x       y       z     vdW  Elec       q    Type
REMARK                         _______ _______ _______ _____ _____    ______ ____
ROOT
ATOM      1  C   UNL     1       5.001   5.530  18.017  0.00  0.00    +0.000 A 
ATOM      2  N   UNL     1       3.772   5.513  17.538  0.00  0.00    +0.000 NA
ATOM      3  C   UNL     1       3.134   4.458  18.164  0.00  0.00    +0.000 A 
ATOM      4  C   UNL     1       1.833   3.952  18.018  0.00  0.00    +0.000 A 
ATOM      5  F   UNL     1       0.963   4.503  17.158  0.00  0.00    +0.000 F 
ATOM      6  C   UNL     1       1.455   2.850  18.781  0.00  0.00    +0.000 A 
ATOM      7  F   UNL     1       0.216   2.338  18.649  0.00  0.00    +0.000 F 
ATOM      8  C   UNL     1       2.329   2.242  19.679  0.00  0.00    +0.000 A 
ATOM      9  C   UNL     1       3.630   2.731  19.848  0.00  0.00    +0.000 A 
ATOM     10  C   UNL     1       3.998   3.836  19.071  0.00  0.00    +0.000 A 
ATOM     11  N   UNL     1       5.164   4.549  18.967  0.00  0.00    +0.000 N 
ATOM     12  H   UNL     1       6.014   4.363  19.483  0.00  0.00    +0.000 HD
ENDROOT
BRANCH   1  13
ATOM     13  C   UNL     1       6.132   6.422  17.615  0.00  0.00    +0.000 C 
BRANCH  13  16
ATOM     14  O   UNL     1       7.737   4.283  16.756  0.00  0.00    +0.000 OA
ATOM     15  C   UNL     1       7.335   5.107  15.948  0.00  0.00    +0.000 C 
ATOM     16  N   UNL     1       6.530   6.160  16.259  0.00  0.00    +0.000 N 
ATOM     17  H   UNL     1       6.287   6.824  15.533  0.00  0.00    +0.000 HD
BRANCH  15  18
ATOM     18  O   UNL     1       7.701   5.172  14.645  0.00  0.00    +0.000 OA
BRANCH  18  19
ATOM     19  C   UNL     1       6.613   5.105  13.712  0.00  0.00    +0.000 C 
BRANCH  19  20
ATOM     20  C   UNL     1       6.268   3.698  13.330  0.00  0.00    +0.000 C 
ATOM     21  C   UNL     1       5.178   3.358  12.345  0.00  0.00    +0.000 C 
ATOM     22  C   UNL     1       6.616   3.224  11.935  0.00  0.00    +0.000 C 
ENDBRANCH  19  20
ENDBRANCH  18  19
ENDBRANCH  15  18
ENDBRANCH  13  16
ENDBRANCH   1  13
TORSDOF 5
ENDMDL
MODEL 6
REMARK VINA RESULT:      -7.8      1.173      1.208
REMARK  Name = 
REMARK  5 active torsions:
REMARK  status: ('A' for Active; 'I' for Inactive)
REMARK    1  A    between atoms: C_2  and  O_16
REMARK    2  A    between atoms: N_3  and  C_4
REMARK    3  A    between atoms: C_4  and  C_5
REMARK    4  A    between atoms: O_16  and  C_17
REMARK    5  A    between atoms: C_17  and  C_18
REMARK                            x       y       z     vdW  Elec       q    Type
REMARK                         _______ _______ _______ _____ _____    ______ ____
ROOT
ATOM      1  C   UNL     1       5.278   3.988  18.223  0.00  0.00    +0.000 A 
ATOM      2  N   UNL     1       4.759   4.316  19.391  0.00  0.00    +0.000 NA
ATOM      3  C   UNL     1       3.544   3.660  19.465  0.00  0.00    +0.000 A 
ATOM      4  C   UNL     1       2.553   3.669  20.459  0.00  0.00    +0.000 A 
ATOM      5  F   UNL     1       2.694   4.396  21.578  0.00  0.00    +0.000 F 
ATOM      6  C   UNL     1       1.402   2.910  20.262  0.00  0.00    +0.000 A 
ATOM      7  F   UNL     1       0.431   2.912  21.195  0.00  0.00    +0.000 F 
ATOM      8  C   UNL     1       1.212   2.147  19.112  0.00  0.00    +0.000 A 
ATOM      9  C   UNL     1       2.187   2.116  18.108  0.00  0.00    +0.000 A 
ATOM     10  C   UNL     1       3.336   2.888  18.318  0.00  0.00    +0.000 A 
ATOM     11  N   UNL     1       4.459   3.103  17.561  0.00  0.00    +0.000 N 
ATOM     12  H   UNL     1       4.640   2.700  16.650  0.00  0.00    +0.000 HD
ENDROOT
BRANCH   1  13
ATOM     13  C   UNL     1       6.546   4.487  17.607  0.00  0.00    +0.000 C 
BRANCH  13  16
ATOM     14  O   UNL     1       7.773   6.257  15.806  0.00  0.00    +0.000 OA
ATOM     15  C   UNL     1       7.091   5.335  15.385  0.00  0.00    +0.000 C 
ATOM     16  N   UNL     1       6.481   4.407  16.174  0.00  0.00    +0.000 N 
ATOM     17  H   UNL     1       5.891   3.706  15.741  0.00  0.00    +0.000 HD
BRANCH  15  18
ATOM     18  O   UNL     1       6.746   5.140  14.090  0.00  0.00    +0.000 OA
BRANCH  18  19
ATOM     19  C   UNL     1       6.252   3.826  13.790  0.00  0.00    +0.000 C 
BRANCH  19  20
ATOM     20  C   UNL     1       6.120   3.583  12.318  0.00  0.00    +0.000 C 
ATOM     21  C   UNL     1       5.789   2.232  11.736  0.00  0.00    +0.000 C 
ATOM     22  C   UNL     1       4.743   3.309  11.753  0.00  0.00    +0.000 C 
ENDBRANCH  19  20
ENDBRANCH  18  19
ENDBRANCH  15  18
ENDBRANCH  13  16
ENDBRANCH   1  13
TORSDOF 5
ENDMDL
MODEL 7
REMARK VINA RESULT:      -7.7      1.246      1.277
REMARK  Name = 
REMARK  5 active torsions:
REMARK  status: ('A' for Active; 'I' for Inactive)
REMARK    1  A    between atoms: C_2  and  O_16
REMARK    2  A    between atoms: N_3  and  C_4
REMARK    3  A    between atoms: C_4  and  C_5
REMARK    4  A    between atoms: O_16  and  C_17
REMARK    5  A    between atoms: C_17  and  C_18
REMARK                            x       y       z     vdW  Elec       q    Type
REMARK                         _______ _______ _______ _____ _____    ______ ____
ROOT
ATOM      1  C   UNL     1       5.354   5.523  18.124  0.00  0.00    +0.000 A 
ATOM      2  N   UNL     1       4.145   5.822  18.559  0.00  0.00    +0.000 NA
ATOM      3  C   UNL     1       3.722   4.727  19.290  0.00  0.00    +0.000 A 
ATOM      4  C   UNL     1       2.509   4.475  19.951  0.00  0.00    +0.000 A 
ATOM      5  F   UNL     1       1.514   5.375  19.949  0.00  0.00    +0.000 F 
ATOM      6  C   UNL     1       2.347   3.259  20.610  0.00  0.00    +0.000 A 
ATOM      7  F   UNL     1       1.189   2.988  21.240  0.00  0.00    +0.000 F 
ATOM      8  C   UNL     1       3.352   2.294  20.630  0.00  0.00    +0.000 A 
ATOM      9  C   UNL     1       4.573   2.523  19.984  0.00  0.00    +0.000 A 
ATOM     10  C   UNL     1       4.719   3.747  19.321  0.00  0.00    +0.000 A 
ATOM     11  N   UNL     1       5.744   4.289  18.591  0.00  0.00    +0.000 N 
ATOM     12  H   UNL     1       6.631   3.840  18.400  0.00  0.00    +0.000 HD
ENDROOT
BRANCH   1  13
ATOM     13  C   UNL     1       6.231   6.327  17.219  0.00  0.00    +0.000 C 
BRANCH  13  16
ATOM     14  O   UNL     1       7.960   4.339  16.248  0.00  0.00    +0.000 OA
ATOM     15  C   UNL     1       7.125   4.836  15.507  0.00  0.00    +0.000 C 
ATOM     16  N   UNL     1       6.224   5.783  15.889  0.00  0.00    +0.000 N 
ATOM     17  H   UNL     1       5.602   6.178  15.193  0.00  0.00    +0.000 HD
BRANCH  15  18
ATOM     18  O   UNL     1       7.024   4.611  14.175  0.00  0.00    +0.000 OA
BRANCH  18  19
ATOM     19  C   UNL     1       5.895   3.816  13.784  0.00  0.00    +0.000 C 
BRANCH  19  20
ATOM     20  C   UNL     1       5.815   3.619  12.302  0.00  0.00    +0.000 C 
ATOM     21  C   UNL     1       5.581   2.272  11.664  0.00  0.00    +0.000 C 
ATOM     22  C   UNL     1       4.471   3.283  11.691  0.00  0.00    +0.000 C 
ENDBRANCH  19  20
ENDBRANCH  18  19
ENDBRANCH  15  18
ENDBRANCH  13  16
ENDBRANCH   1  13
TORSDOF 5
ENDMDL
MODEL 8
REMARK VINA RESULT:      -7.6      3.800      7.065
REMARK  Name = 
REMARK  5 active torsions:
REMARK  status: ('A' for Active; 'I' for Inactive)
REMARK    1  A    between atoms: C_2  and  O_16
REMARK    2  A    between atoms: N_3  and  C_4
REMARK    3  A    between atoms: C_4  and  C_5
REMARK    4  A    between atoms: O_16  and  C_17
REMARK    5  A    between atoms: C_17  and  C_18
REMARK                            x       y       z     vdW  Elec       q    Type
REMARK                         _______ _______ _______ _____ _____    ______ ____
ROOT
ATOM      1  C   UNL     1       6.788   4.643  16.565  0.00  0.00    +0.000 A 
ATOM      2  N   UNL     1       7.553   5.291  15.707  0.00  0.00    +0.000 NA
ATOM      3  C   UNL     1       7.184   4.842  14.453  0.00  0.00    +0.000 A 
ATOM      4  C   UNL     1       7.681   5.158  13.179  0.00  0.00    +0.000 A 
ATOM      5  F   UNL     1       8.683   6.035  13.020  0.00  0.00    +0.000 F 
ATOM      6  C   UNL     1       7.119   4.533  12.069  0.00  0.00    +0.000 A 
ATOM      7  F   UNL     1       7.588   4.809  10.837  0.00  0.00    +0.000 F 
ATOM      8  C   UNL     1       6.083   3.609  12.189  0.00  0.00    +0.000 A 
ATOM      9  C   UNL     1       5.565   3.281  13.448  0.00  0.00    +0.000 A 
ATOM     10  C   UNL     1       6.143   3.913  14.555  0.00  0.00    +0.000 A 
ATOM     11  N   UNL     1       5.904   3.824  15.902  0.00  0.00    +0.000 N 
ATOM     12  H   UNL     1       5.212   3.228  16.338  0.00  0.00    +0.000 HD
ENDROOT
BRANCH   1  13
ATOM     13  C   UNL     1       6.832   4.696  18.059  0.00  0.00    +0.000 C 
BRANCH  13  16
ATOM     14  O   UNL     1       4.442   5.237  19.430  0.00  0.00    +0.000 OA
ATOM     15  C   UNL     1       4.823   4.083  19.300  0.00  0.00    +0.000 C 
ATOM     16  N   UNL     1       5.949   3.715  18.629  0.00  0.00    +0.000 N 
ATOM     17  H   UNL     1       6.216   2.738  18.616  0.00  0.00    +0.000 HD
BRANCH  15  18
ATOM     18  O   UNL     1       4.255   2.999  19.881  0.00  0.00    +0.000 OA
BRANCH  18  19
ATOM     19  C   UNL     1       3.035   2.558  19.267  0.00  0.00    +0.000 C 
BRANCH  19  20
ATOM     20  C   UNL     1       1.885   2.533  20.226  0.00  0.00    +0.000 C 
ATOM     21  C   UNL     1       1.927   3.202  21.577  0.00  0.00    +0.000 C 
ATOM     22  C   UNL     1       1.122   3.818  20.470  0.00  0.00    +0.000 C 
ENDBRANCH  19  20
ENDBRANCH  18  19
ENDBRANCH  15  18
ENDBRANCH  13  16
ENDBRANCH   1  13
TORSDOF 5
ENDMDL
MODEL 9
REMARK VINA RESULT:      -7.6      1.288      1.570
REMARK  Name = 
REMARK  5 active torsions:
REMARK  status: ('A' for Active; 'I' for Inactive)
REMARK    1  A    between atoms: C_2  and  O_16
REMARK    2  A    between atoms: N_3  and  C_4
REMARK    3  A    between atoms: C_4  and  C_5
REMARK    4  A    between atoms: O_16  and  C_17
REMARK    5  A    between atoms: C_17  and  C_18
REMARK                            x       y       z     vdW  Elec       q    Type
REMARK                         _______ _______ _______ _____ _____    ______ ____
ROOT
ATOM      1  C   UNL     1       5.791   4.323  18.538  0.00  0.00    +0.000 A 
ATOM      2  N   UNL     1       5.334   3.664  19.586  0.00  0.00    +0.000 NA
ATOM      3  C   UNL     1       3.960   3.610  19.432  0.00  0.00    +0.000 A 
ATOM      4  C   UNL     1       2.963   3.066  20.255  0.00  0.00    +0.000 A 
ATOM      5  F   UNL     1       3.268   2.464  21.414  0.00  0.00    +0.000 F 
ATOM      6  C   UNL     1       1.634   3.168  19.851  0.00  0.00    +0.000 A 
ATOM      7  F   UNL     1       0.657   2.665  20.630  0.00  0.00    +0.000 F 
ATOM      8  C   UNL     1       1.272   3.792  18.659  0.00  0.00    +0.000 A 
ATOM      9  C   UNL     1       2.249   4.339  17.817  0.00  0.00    +0.000 A 
ATOM     10  C   UNL     1       3.580   4.233  18.239  0.00  0.00    +0.000 A 
ATOM     11  N   UNL     1       4.762   4.656  17.689  0.00  0.00    +0.000 N 
ATOM     12  H   UNL     1       4.857   5.159  16.815  0.00  0.00    +0.000 HD
ENDROOT
BRANCH   1  13
ATOM     13  C   UNL     1       7.201   4.731  18.252  0.00  0.00    +0.000 C 
BRANCH  13  16
ATOM     14  O   UNL     1       6.843   6.749  16.333  0.00  0.00    +0.000 OA
ATOM     15  C   UNL     1       7.254   5.649  15.992  0.00  0.00    +0.000 C 
ATOM     16  N   UNL     1       7.489   4.617  16.849  0.00  0.00    +0.000 N 
ATOM     17  H   UNL     1       7.780   3.722  16.472  0.00  0.00    +0.000 HD
BRANCH  15  18
ATOM     18  O   UNL     1       7.444   5.243  14.714  0.00  0.00    +0.000 OA
BRANCH  18  19
ATOM     19  C   UNL     1       6.239   4.955  13.990  0.00  0.00    +0.000 C 
BRANCH  19  20
ATOM     20  C   UNL     1       6.291   3.632  13.290  0.00  0.00    +0.000 C 
ATOM     21  C   UNL     1       5.390   3.279  12.133  0.00  0.00    +0.000 C 
ATOM     22  C   UNL     1       6.838   3.584  11.879  0.00  0.00    +0.000 C 
ENDBRANCH  19  20
ENDBRANCH  18  19
ENDBRANCH  15  18
ENDBRANCH  13  16
ENDBRANCH   1  13
TORSDOF 5
ENDMDL
