MODEL 1
REMARK VINA RESULT:      -7.2      0.000      0.000
REMARK  Name = 
REMARK  7 active torsions:
REMARK  status: ('A' for Active; 'I' for Inactive)
REMARK    1  A    between atoms: C_4  and  O_5
REMARK    2  A    between atoms: O_5  and  C_6
REMARK    3  A    between atoms: C_6  and  C_7
REMARK    4  A    between atoms: C_7  and  C_8
REMARK    5  A    between atoms: C_17  and  C_18
REMARK    6  A    between atoms: C_21  and  O_22
REMARK    7  A    between atoms: O_22  and  C_23
REMARK                            x       y       z     vdW  Elec       q    Type
REMARK                         _______ _______ _______ _____ _____    ______ ____
ROOT
ATOM      1  O   UNL     1       1.049  12.633  18.865  0.00  0.00    +0.000 OA
ATOM      2  N   UNL     1       1.288  11.390  18.999  0.00  0.00    +0.000 N 
ATOM      3  C   UNL     1       1.919  10.604  17.932  0.00  0.00    +0.000 A 
ATOM      4  C   UNL     1       2.162   9.284  18.109  0.00  0.00    +0.000 A 
ATOM      5  N   UNL     1       1.818   8.662  19.333  0.00  0.00    +0.000 N 
ATOM      6  C   UNL     1       1.916   7.379  19.880  0.00  0.00    +0.000 A 
ATOM      7  N   UNL     1       1.359   7.407  21.086  0.00  0.00    +0.000 NA
ATOM      8  N   UNL     1       0.933   8.682  21.367  0.00  0.00    +0.000 NA
ATOM      9  C   UNL     1       1.215   9.406  20.320  0.00  0.00    +0.000 A 
ATOM     10  C   UNL     1       0.958  10.788  20.123  0.00  0.00    +0.000 A 
ENDROOT
BRANCH   6  11
ATOM     11  C   UNL     1       2.453   6.163  19.256  0.00  0.00    +0.000 A 
ATOM     12  C   UNL     1       1.879   5.590  18.121  0.00  0.00    +0.000 A 
ATOM     13  C   UNL     1       2.273   4.327  17.676  0.00  0.00    +0.000 A 
ATOM     14  C   UNL     1       3.335   3.664  18.278  0.00  0.00    +0.000 A 
ATOM     15  C   UNL     1       4.022   4.283  19.319  0.00  0.00    +0.000 A 
ATOM     16  C   UNL     1       3.578   5.526  19.804  0.00  0.00    +0.000 A 
BRANCH  14  17
ATOM     17  O   UNL     1       3.563   2.412  17.794  0.00  0.00    +0.000 OA
BRANCH  17  18
ATOM     18  C   UNL     1       3.399   1.359  18.722  0.00  0.00    +0.000 C 
ATOM     19  F   UNL     1       4.516   1.268  19.484  0.00  0.00    +0.000 F 
ATOM     20  F   UNL     1       2.386   1.717  19.551  0.00  0.00    +0.000 F 
ENDBRANCH  17  18
ENDBRANCH  14  17
ENDBRANCH   6  11
BRANCH   4  21
ATOM     21  O   UNL     1       2.714   8.496  17.125  0.00  0.00    +0.000 OA
BRANCH  21  22
ATOM     22  C   UNL     1       4.119   8.227  17.145  0.00  0.00    +0.000 C 
BRANCH  22  23
ATOM     23  C   UNL     1       4.443   7.069  16.189  0.00  0.00    +0.000 C 
BRANCH  23  24
ATOM     24  C   UNL     1       5.615   6.219  16.614  0.00  0.00    +0.000 A 
ATOM     25  C   UNL     1       5.967   5.044  15.929  0.00  0.00    +0.000 A 
ATOM     26  C   UNL     1       7.032   4.243  16.354  0.00  0.00    +0.000 A 
ATOM     27  C   UNL     1       7.752   4.609  17.479  0.00  0.00    +0.000 A 
ATOM     28  F   UNL     1       8.766   3.841  17.886  0.00  0.00    +0.000 F 
ATOM     29  C   UNL     1       7.417   5.762  18.174  0.00  0.00    +0.000 A 
ATOM     30  F   UNL     1       8.111   6.114  19.266  0.00  0.00    +0.000 F 
ATOM     31  C   UNL     1       6.358   6.569  17.758  0.00  0.00    +0.000 A 
ENDBRANCH  23  24
ENDBRANCH  22  23
ENDBRANCH  21  22
ENDBRANCH   4  21
TORSDOF 7
ENDMDL
MODEL 2
REMARK VINA RESULT:      -7.1      3.834      7.275
REMARK  Name = 
REMARK  7 active torsions:
REMARK  status: ('A' for Active; 'I' for Inactive)
REMARK    1  A    between atoms: C_4  and  O_5
REMARK    2  A    between atoms: O_5  and  C_6
REMARK    3  A    between atoms: C_6  and  C_7
REMARK    4  A    between atoms: C_7  and  C_8
REMARK    5  A    between atoms: C_17  and  C_18
REMARK    6  A    between atoms: C_21  and  O_22
REMARK    7  A    between atoms: O_22  and  C_23
REMARK                            x       y       z     vdW  Elec       q    Type
REMARK                         _______ _______ _______ _____ _____    ______ ____
ROOT
ATOM      1  O   UNL     1      -0.198   2.599  19.359  0.00  0.00    +0.000 OA
ATOM      2  N   UNL     1       1.013   2.960  19.211  0.00  0.00    +0.000 N 
ATOM      3  C   UNL     1       1.368   4.233  18.573  0.00  0.00    +0.000 A 
ATOM      4  C   UNL     1       2.668   4.587  18.434  0.00  0.00    +0.000 A 
ATOM      5  N   UNL     1       3.687   3.733  18.917  0.00  0.00    +0.000 N 
ATOM      6  C   UNL     1       5.084   3.751  18.971  0.00  0.00    +0.000 A 
ATOM      7  N   UNL     1       5.486   2.608  19.515  0.00  0.00    +0.000 NA
ATOM      8  N   UNL     1       4.392   1.853  19.861  0.00  0.00    +0.000 NA
ATOM      9  C   UNL     1       3.342   2.537  19.501  0.00  0.00    +0.000 A 
ATOM     10  C   UNL     1       1.977   2.169  19.636  0.00  0.00    +0.000 A 
ENDROOT
BRANCH   6  11
ATOM     11  C   UNL     1       6.000   4.780  18.462  0.00  0.00    +0.000 A 
ATOM     12  C   UNL     1       6.847   5.506  19.299  0.00  0.00    +0.000 A 
ATOM     13  C   UNL     1       7.547   6.616  18.825  0.00  0.00    +0.000 A 
ATOM     14  C   UNL     1       7.515   6.951  17.477  0.00  0.00    +0.000 A 
ATOM     15  C   UNL     1       6.794   6.151  16.594  0.00  0.00    +0.000 A 
ATOM     16  C   UNL     1       6.040   5.073  17.089  0.00  0.00    +0.000 A 
BRANCH  14  17
ATOM     17  O   UNL     1       8.181   8.098  17.167  0.00  0.00    +0.000 OA
BRANCH  17  18
ATOM     18  C   UNL     1       8.208   9.081  18.181  0.00  0.00    +0.000 C 
ATOM     19  F   UNL     1       9.300   8.880  18.959  0.00  0.00    +0.000 F 
ATOM     20  F   UNL     1       8.380  10.279  17.566  0.00  0.00    +0.000 F 
ENDBRANCH  17  18
ENDBRANCH  14  17
ENDBRANCH   6  11
BRANCH   4  21
ATOM     21  O   UNL     1       3.053   5.751  17.808  0.00  0.00    +0.000 OA
BRANCH  21  22
ATOM     22  C   UNL     1       3.133   6.963  18.563  0.00  0.00    +0.000 C 
BRANCH  22  23
ATOM     23  C   UNL     1       2.504   8.117  17.768  0.00  0.00    +0.000 C 
BRANCH  23  24
ATOM     24  C   UNL     1       1.457   8.896  18.523  0.00  0.00    +0.000 A 
ATOM     25  C   UNL     1       0.494   9.679  17.863  0.00  0.00    +0.000 A 
ATOM     26  C   UNL     1      -0.449  10.429  18.575  0.00  0.00    +0.000 A 
ATOM     27  C   UNL     1      -0.432  10.407  19.959  0.00  0.00    +0.000 A 
ATOM     28  F   UNL     1      -1.331  11.126  20.637  0.00  0.00    +0.000 F 
ATOM     29  C   UNL     1       0.514   9.645  20.630  0.00  0.00    +0.000 A 
ATOM     30  F   UNL     1       0.534   9.628  21.971  0.00  0.00    +0.000 F 
ATOM     31  C   UNL     1       1.458   8.894  19.932  0.00  0.00    +0.000 A 
ENDBRANCH  23  24
ENDBRANCH  22  23
ENDBRANCH  21  22
ENDBRANCH   4  21
TORSDOF 7
ENDMDL
MODEL 3
REMARK VINA RESULT:      -7.0      3.946      7.434
REMARK  Name = 
REMARK  7 active torsions:
REMARK  status: ('A' for Active; 'I' for Inactive)
REMARK    1  A    between atoms: C_4  and  O_5
REMARK    2  A    between atoms: O_5  and  C_6
REMARK    3  A    between atoms: C_6  and  C_7
REMARK    4  A    between atoms: C_7  and  C_8
REMARK    5  A    between atoms: C_17  and  C_18
REMARK    6  A    between atoms: C_21  and  O_22
REMARK    7  A    between atoms: O_22  and  C_23
REMARK                            x       y       z     vdW  Elec       q    Type
REMARK                         _______ _______ _______ _____ _____    ______ ____
ROOT
ATOM      1  O   UNL     1       0.663   2.505  21.984  0.00  0.00    +0.000 OA
ATOM      2  N   UNL     1       1.536   2.849  21.126  0.00  0.00    +0.000 N 
ATOM      3  C   UNL     1       2.150   4.183  21.139  0.00  0.00    +0.000 A 
ATOM      4  C   UNL     1       3.079   4.516  20.212  0.00  0.00    +0.000 A 
ATOM      5  N   UNL     1       3.469   3.571  19.234  0.00  0.00    +0.000 N 
ATOM      6  C   UNL     1       4.366   3.533  18.163  0.00  0.00    +0.000 A 
ATOM      7  N   UNL     1       4.243   2.350  17.569  0.00  0.00    +0.000 NA
ATOM      8  N   UNL     1       3.320   1.590  18.245  0.00  0.00    +0.000 NA
ATOM      9  C   UNL     1       2.877   2.330  19.224  0.00  0.00    +0.000 A 
ATOM     10  C   UNL     1       1.899   1.991  20.195  0.00  0.00    +0.000 A 
ENDROOT
BRANCH   6  11
ATOM     11  C   UNL     1       5.252   4.600  17.680  0.00  0.00    +0.000 A 
ATOM     12  C   UNL     1       6.580   4.714  18.095  0.00  0.00    +0.000 A 
ATOM     13  C   UNL     1       7.332   5.849  17.792  0.00  0.00    +0.000 A 
ATOM     14  C   UNL     1       6.818   6.838  16.962  0.00  0.00    +0.000 A 
ATOM     15  C   UNL     1       5.549   6.675  16.413  0.00  0.00    +0.000 A 
ATOM     16  C   UNL     1       4.772   5.561  16.775  0.00  0.00    +0.000 A 
BRANCH  14  17
ATOM     17  O   UNL     1       7.629   7.922  16.811  0.00  0.00    +0.000 OA
BRANCH  17  18
ATOM     18  C   UNL     1       7.758   8.751  17.948  0.00  0.00    +0.000 C 
ATOM     19  F   UNL     1       8.800   8.312  18.695  0.00  0.00    +0.000 F 
ATOM     20  F   UNL     1       8.090   9.988  17.501  0.00  0.00    +0.000 F 
ENDBRANCH  17  18
ENDBRANCH  14  17
ENDBRANCH   6  11
BRANCH   4  21
ATOM     21  O   UNL     1       3.654   5.765  20.157  0.00  0.00    +0.000 OA
BRANCH  21  22
ATOM     22  C   UNL     1       2.936   6.843  19.549  0.00  0.00    +0.000 C 
BRANCH  22  23
ATOM     23  C   UNL     1       1.880   7.385  20.525  0.00  0.00    +0.000 C 
BRANCH  23  24
ATOM     24  C   UNL     1       1.189   8.642  20.060  0.00  0.00    +0.000 A 
ATOM     25  C   UNL     1       1.425   9.191  18.788  0.00  0.00    +0.000 A 
ATOM     26  C   UNL     1       0.808  10.380  18.381  0.00  0.00    +0.000 A 
ATOM     27  C   UNL     1      -0.048  11.035  19.251  0.00  0.00    +0.000 A 
ATOM     28  F   UNL     1      -0.633  12.171  18.862  0.00  0.00    +0.000 F 
ATOM     29  C   UNL     1      -0.290  10.512  20.513  0.00  0.00    +0.000 A 
ATOM     30  F   UNL     1      -1.114  11.149  21.356  0.00  0.00    +0.000 F 
ATOM     31  C   UNL     1       0.319   9.329  20.929  0.00  0.00    +0.000 A 
ENDBRANCH  23  24
ENDBRANCH  22  23
ENDBRANCH  21  22
ENDBRANCH   4  21
TORSDOF 7
ENDMDL
MODEL 4
REMARK VINA RESULT:      -7.0      4.099      7.706
REMARK  Name = 
REMARK  7 active torsions:
REMARK  status: ('A' for Active; 'I' for Inactive)
REMARK    1  A    between atoms: C_4  and  O_5
REMARK    2  A    between atoms: O_5  and  C_6
REMARK    3  A    between atoms: C_6  and  C_7
REMARK    4  A    between atoms: C_7  and  C_8
REMARK    5  A    between atoms: C_17  and  C_18
REMARK    6  A    between atoms: C_21  and  O_22
REMARK    7  A    between atoms: O_22  and  C_23
REMARK                            x       y       z     vdW  Elec       q    Type
REMARK                         _______ _______ _______ _____ _____    ______ ____
ROOT
ATOM      1  O   UNL     1      -0.106   2.688  19.825  0.00  0.00    +0.000 OA
ATOM      2  N   UNL     1       0.991   3.175  19.403  0.00  0.00    +0.000 N 
ATOM      3  C   UNL     1       1.449   4.512  19.804  0.00  0.00    +0.000 A 
ATOM      4  C   UNL     1       2.623   4.999  19.338  0.00  0.00    +0.000 A 
ATOM      5  N   UNL     1       3.419   4.212  18.472  0.00  0.00    +0.000 N 
ATOM      6  C   UNL     1       4.647   4.351  17.818  0.00  0.00    +0.000 A 
ATOM      7  N   UNL     1       4.845   3.261  17.086  0.00  0.00    +0.000 NA
ATOM      8  N   UNL     1       3.801   2.386  17.271  0.00  0.00    +0.000 NA
ATOM      9  C   UNL     1       2.973   2.968  18.093  0.00  0.00    +0.000 A 
ATOM     10  C   UNL     1       1.737   2.467  18.580  0.00  0.00    +0.000 A 
ENDROOT
BRANCH   6  11
ATOM     11  C   UNL     1       5.559   5.502  17.833  0.00  0.00    +0.000 A 
ATOM     12  C   UNL     1       5.262   6.700  17.184  0.00  0.00    +0.000 A 
ATOM     13  C   UNL     1       6.229   7.694  17.033  0.00  0.00    +0.000 A 
ATOM     14  C   UNL     1       7.474   7.569  17.635  0.00  0.00    +0.000 A 
ATOM     15  C   UNL     1       7.743   6.447  18.415  0.00  0.00    +0.000 A 
ATOM     16  C   UNL     1       6.788   5.419  18.509  0.00  0.00    +0.000 A 
BRANCH  14  17
ATOM     17  O   UNL     1       8.344   8.576  17.344  0.00  0.00    +0.000 OA
BRANCH  17  18
ATOM     18  C   UNL     1       8.459   9.586  18.326  0.00  0.00    +0.000 C 
ATOM     19  F   UNL     1       9.216   9.119  19.349  0.00  0.00    +0.000 F 
ATOM     20  F   UNL     1       9.150  10.609  17.762  0.00  0.00    +0.000 F 
ENDBRANCH  17  18
ENDBRANCH  14  17
ENDBRANCH   6  11
BRANCH   4  21
ATOM     21  O   UNL     1       3.076   6.260  19.652  0.00  0.00    +0.000 OA
BRANCH  21  22
ATOM     22  C   UNL     1       2.139   7.263  20.056  0.00  0.00    +0.000 C 
BRANCH  22  23
ATOM     23  C   UNL     1       1.976   8.306  18.940  0.00  0.00    +0.000 C 
BRANCH  23  24
ATOM     24  C   UNL     1       0.925   9.353  19.215  0.00  0.00    +0.000 A 
ATOM     25  C   UNL     1       0.644   9.798  20.517  0.00  0.00    +0.000 A 
ATOM     26  C   UNL     1      -0.360  10.742  20.765  0.00  0.00    +0.000 A 
ATOM     27  C   UNL     1      -1.099  11.242  19.707  0.00  0.00    +0.000 A 
ATOM     28  F   UNL     1      -2.060  12.140  19.945  0.00  0.00    +0.000 F 
ATOM     29  C   UNL     1      -0.841  10.811  18.413  0.00  0.00    +0.000 A 
ATOM     30  F   UNL     1      -1.561  11.292  17.390  0.00  0.00    +0.000 F 
ATOM     31  C   UNL     1       0.157   9.873  18.155  0.00  0.00    +0.000 A 
ENDBRANCH  23  24
ENDBRANCH  22  23
ENDBRANCH  21  22
ENDBRANCH   4  21
TORSDOF 7
ENDMDL
MODEL 5
REMARK VINA RESULT:      -7.0      2.083      4.455
REMARK  Name = 
REMARK  7 active torsions:
REMARK  status: ('A' for Active; 'I' for Inactive)
REMARK    1  A    between atoms: C_4  and  O_5
REMARK    2  A    between atoms: O_5  and  C_6
REMARK    3  A    between atoms: C_6  and  C_7
REMARK    4  A    between atoms: C_7  and  C_8
REMARK    5  A    between atoms: C_17  and  C_18
REMARK    6  A    between atoms: C_21  and  O_22
REMARK    7  A    between atoms: O_22  and  C_23
REMARK                            x       y       z     vdW  Elec       q    Type
REMARK                         _______ _______ _______ _____ _____    ______ ____
ROOT
ATOM      1  O   UNL     1      -0.681  10.214  22.380  0.00  0.00    +0.000 OA
ATOM      2  N   UNL     1       0.046   9.736  21.452  0.00  0.00    +0.000 N 
ATOM      3  C   UNL     1       0.649   8.402  21.551  0.00  0.00    +0.000 A 
ATOM      4  C   UNL     1       1.415   7.922  20.543  0.00  0.00    +0.000 A 
ATOM      5  N   UNL     1       1.626   8.705  19.384  0.00  0.00    +0.000 N 
ATOM      6  C   UNL     1       2.314   8.562  18.175  0.00  0.00    +0.000 A 
ATOM      7  N   UNL     1       2.176   9.692  17.491  0.00  0.00    +0.000 NA
ATOM      8  N   UNL     1       1.381  10.563  18.196  0.00  0.00    +0.000 NA
ATOM      9  C   UNL     1       1.067   9.959  19.308  0.00  0.00    +0.000 A 
ATOM     10  C   UNL     1       0.270  10.457  20.372  0.00  0.00    +0.000 A 
ENDROOT
BRANCH   6  11
ATOM     11  C   UNL     1       3.126   7.426  17.721  0.00  0.00    +0.000 A 
ATOM     12  C   UNL     1       2.620   6.128  17.646  0.00  0.00    +0.000 A 
ATOM     13  C   UNL     1       3.464   5.040  17.418  0.00  0.00    +0.000 A 
ATOM     14  C   UNL     1       4.810   5.235  17.133  0.00  0.00    +0.000 A 
ATOM     15  C   UNL     1       5.308   6.533  17.055  0.00  0.00    +0.000 A 
ATOM     16  C   UNL     1       4.467   7.621  17.350  0.00  0.00    +0.000 A 
BRANCH  14  17
ATOM     17  O   UNL     1       5.530   4.086  17.006  0.00  0.00    +0.000 OA
BRANCH  17  18
ATOM     18  C   UNL     1       6.014   3.809  15.708  0.00  0.00    +0.000 C 
ATOM     19  F   UNL     1       5.102   4.236  14.800  0.00  0.00    +0.000 F 
ATOM     20  F   UNL     1       7.127   4.565  15.531  0.00  0.00    +0.000 F 
ENDBRANCH  17  18
ENDBRANCH  14  17
ENDBRANCH   6  11
BRANCH   4  21
ATOM     21  O   UNL     1       2.036   6.695  20.606  0.00  0.00    +0.000 OA
BRANCH  21  22
ATOM     22  C   UNL     1       1.250   5.521  20.834  0.00  0.00    +0.000 C 
BRANCH  22  23
ATOM     23  C   UNL     1       2.119   4.425  21.468  0.00  0.00    +0.000 C 
BRANCH  23  24
ATOM     24  C   UNL     1       2.641   3.401  20.491  0.00  0.00    +0.000 A 
ATOM     25  C   UNL     1       3.964   2.931  20.544  0.00  0.00    +0.000 A 
ATOM     26  C   UNL     1       4.449   2.009  19.609  0.00  0.00    +0.000 A 
ATOM     27  C   UNL     1       3.612   1.555  18.605  0.00  0.00    +0.000 A 
ATOM     28  F   UNL     1       4.077   0.678  17.711  0.00  0.00    +0.000 F 
ATOM     29  C   UNL     1       2.303   2.010  18.531  0.00  0.00    +0.000 A 
ATOM     30  F   UNL     1       1.494   1.574  17.555  0.00  0.00    +0.000 F 
ATOM     31  C   UNL     1       1.809   2.928  19.457  0.00  0.00    +0.000 A 
ENDBRANCH  23  24
ENDBRANCH  22  23
ENDBRANCH  21  22
ENDBRANCH   4  21
TORSDOF 7
ENDMDL
MODEL 6
REMARK VINA RESULT:      -6.7      4.039      6.965
REMARK  Name = 
REMARK  7 active torsions:
REMARK  status: ('A' for Active; 'I' for Inactive)
REMARK    1  A    between atoms: C_4  and  O_5
REMARK    2  A    between atoms: O_5  and  C_6
REMARK    3  A    between atoms: C_6  and  C_7
REMARK    4  A    between atoms: C_7  and  C_8
REMARK    5  A    between atoms: C_17  and  C_18
REMARK    6  A    between atoms: C_21  and  O_22
REMARK    7  A    between atoms: O_22  and  C_23
REMARK                            x       y       z     vdW  Elec       q    Type
REMARK                         _______ _______ _______ _____ _____    ______ ____
ROOT
ATOM      1  O   UNL     1       1.706   3.506  22.206  0.00  0.00    +0.000 OA
ATOM      2  N   UNL     1       2.356   3.506  21.112  0.00  0.00    +0.000 N 
ATOM      3  C   UNL     1       3.186   4.647  20.705  0.00  0.00    +0.000 A 
ATOM      4  C   UNL     1       3.866   4.612  19.535  0.00  0.00    +0.000 A 
ATOM      5  N   UNL     1       3.788   3.467  18.707  0.00  0.00    +0.000 N 
ATOM      6  C   UNL     1       4.330   3.062  17.484  0.00  0.00    +0.000 A 
ATOM      7  N   UNL     1       3.830   1.866  17.192  0.00  0.00    +0.000 NA
ATOM      8  N   UNL     1       3.005   1.451  18.210  0.00  0.00    +0.000 NA
ATOM      9  C   UNL     1       2.996   2.411  19.093  0.00  0.00    +0.000 A 
ATOM     10  C   UNL     1       2.280   2.458  20.318  0.00  0.00    +0.000 A 
ENDROOT
BRANCH   6  11
ATOM     11  C   UNL     1       5.229   3.809  16.596  0.00  0.00    +0.000 A 
ATOM     12  C   UNL     1       4.937   4.029  15.249  0.00  0.00    +0.000 A 
ATOM     13  C   UNL     1       5.897   4.552  14.382  0.00  0.00    +0.000 A 
ATOM     14  C   UNL     1       7.127   4.984  14.864  0.00  0.00    +0.000 A 
ATOM     15  C   UNL     1       7.385   4.913  16.230  0.00  0.00    +0.000 A 
ATOM     16  C   UNL     1       6.439   4.326  17.088  0.00  0.00    +0.000 A 
BRANCH  14  17
ATOM     17  O   UNL     1       7.993   5.402  13.899  0.00  0.00    +0.000 OA
BRANCH  17  18
ATOM     18  C   UNL     1       7.472   5.440  12.586  0.00  0.00    +0.000 C 
ATOM     19  F   UNL     1       8.090   6.432  11.899  0.00  0.00    +0.000 F 
ATOM     20  F   UNL     1       7.819   4.273  11.988  0.00  0.00    +0.000 F 
ENDBRANCH  17  18
ENDBRANCH  14  17
ENDBRANCH   6  11
BRANCH   4  21
ATOM     21  O   UNL     1       4.625   5.671  19.090  0.00  0.00    +0.000 OA
BRANCH  21  22
ATOM     22  C   UNL     1       4.078   6.567  18.117  0.00  0.00    +0.000 C 
BRANCH  22  23
ATOM     23  C   UNL     1       2.545   6.556  18.200  0.00  0.00    +0.000 C 
BRANCH  23  24
ATOM     24  C   UNL     1       1.941   7.832  18.730  0.00  0.00    +0.000 A 
ATOM     25  C   UNL     1       1.671   8.929  17.894  0.00  0.00    +0.000 A 
ATOM     26  C   UNL     1       1.146  10.123  18.403  0.00  0.00    +0.000 A 
ATOM     27  C   UNL     1       0.894  10.231  19.760  0.00  0.00    +0.000 A 
ATOM     28  F   UNL     1       0.397  11.373  20.245  0.00  0.00    +0.000 F 
ATOM     29  C   UNL     1       1.159   9.162  20.604  0.00  0.00    +0.000 A 
ATOM     30  F   UNL     1       0.919   9.269  21.918  0.00  0.00    +0.000 F 
ATOM     31  C   UNL     1       1.681   7.968  20.108  0.00  0.00    +0.000 A 
ENDBRANCH  23  24
ENDBRANCH  22  23
ENDBRANCH  21  22
ENDBRANCH   4  21
TORSDOF 7
ENDMDL
MODEL 7
REMARK VINA RESULT:      -6.7      3.985      7.359
REMARK  Name = 
REMARK  7 active torsions:
REMARK  status: ('A' for Active; 'I' for Inactive)
REMARK    1  A    between atoms: C_4  and  O_5
REMARK    2  A    between atoms: O_5  and  C_6
REMARK    3  A    between atoms: C_6  and  C_7
REMARK    4  A    between atoms: C_7  and  C_8
REMARK    5  A    between atoms: C_17  and  C_18
REMARK    6  A    between atoms: C_21  and  O_22
REMARK    7  A    between atoms: O_22  and  C_23
REMARK                            x       y       z     vdW  Elec       q    Type
REMARK                         _______ _______ _______ _____ _____    ______ ____
ROOT
ATOM      1  O   UNL     1      -0.099   2.775  19.559  0.00  0.00    +0.000 OA
ATOM      2  N   UNL     1       1.104   3.144  19.371  0.00  0.00    +0.000 N 
ATOM      3  C   UNL     1       1.428   4.397  18.677  0.00  0.00    +0.000 A 
ATOM      4  C   UNL     1       2.720   4.762  18.497  0.00  0.00    +0.000 A 
ATOM      5  N   UNL     1       3.761   3.939  18.989  0.00  0.00    +0.000 N 
ATOM      6  C   UNL     1       5.158   3.977  19.012  0.00  0.00    +0.000 A 
ATOM      7  N   UNL     1       5.587   2.861  19.590  0.00  0.00    +0.000 NA
ATOM      8  N   UNL     1       4.510   2.106  19.989  0.00  0.00    +0.000 NA
ATOM      9  C   UNL     1       3.444   2.762  19.625  0.00  0.00    +0.000 A 
ATOM     10  C   UNL     1       2.087   2.383  19.804  0.00  0.00    +0.000 A 
ENDROOT
BRANCH   6  11
ATOM     11  C   UNL     1       6.049   4.997  18.444  0.00  0.00    +0.000 A 
ATOM     12  C   UNL     1       6.996   5.673  19.214  0.00  0.00    +0.000 A 
ATOM     13  C   UNL     1       7.677   6.779  18.705  0.00  0.00    +0.000 A 
ATOM     14  C   UNL     1       7.523   7.157  17.377  0.00  0.00    +0.000 A 
ATOM     15  C   UNL     1       6.696   6.405  16.548  0.00  0.00    +0.000 A 
ATOM     16  C   UNL     1       5.962   5.332  17.083  0.00  0.00    +0.000 A 
BRANCH  14  17
ATOM     17  O   UNL     1       8.188   8.296  17.035  0.00  0.00    +0.000 OA
BRANCH  17  18
ATOM     18  C   UNL     1       8.299   9.267  18.055  0.00  0.00    +0.000 C 
ATOM     19  F   UNL     1       9.444   9.968  17.871  0.00  0.00    +0.000 F 
ATOM     20  F   UNL     1       7.274  10.139  17.884  0.00  0.00    +0.000 F 
ENDBRANCH  17  18
ENDBRANCH  14  17
ENDBRANCH   6  11
BRANCH   4  21
ATOM     21  O   UNL     1       3.077   5.905  17.818  0.00  0.00    +0.000 OA
BRANCH  21  22
ATOM     22  C   UNL     1       2.904   7.179  18.447  0.00  0.00    +0.000 C 
BRANCH  22  23
ATOM     23  C   UNL     1       2.577   8.244  17.389  0.00  0.00    +0.000 C 
BRANCH  23  24
ATOM     24  C   UNL     1       1.724   9.381  17.893  0.00  0.00    +0.000 A 
ATOM     25  C   UNL     1       2.278  10.620  18.255  0.00  0.00    +0.000 A 
ATOM     26  C   UNL     1       1.482  11.656  18.758  0.00  0.00    +0.000 A 
ATOM     27  C   UNL     1       0.120  11.455  18.911  0.00  0.00    +0.000 A 
ATOM     28  F   UNL     1      -0.638  12.443  19.395  0.00  0.00    +0.000 F 
ATOM     29  C   UNL     1      -0.446  10.237  18.565  0.00  0.00    +0.000 A 
ATOM     30  F   UNL     1      -1.763  10.040  18.718  0.00  0.00    +0.000 F 
ATOM     31  C   UNL     1       0.337   9.198  18.062  0.00  0.00    +0.000 A 
ENDBRANCH  23  24
ENDBRANCH  22  23
ENDBRANCH  21  22
ENDBRANCH   4  21
TORSDOF 7
ENDMDL
MODEL 8
REMARK VINA RESULT:      -6.6      3.787      6.409
REMARK  Name = 
REMARK  7 active torsions:
REMARK  status: ('A' for Active; 'I' for Inactive)
REMARK    1  A    between atoms: C_4  and  O_5
REMARK    2  A    between atoms: O_5  and  C_6
REMARK    3  A    between atoms: C_6  and  C_7
REMARK    4  A    between atoms: C_7  and  C_8
REMARK    5  A    between atoms: C_17  and  C_18
REMARK    6  A    between atoms: C_21  and  O_22
REMARK    7  A    between atoms: O_22  and  C_23
REMARK                            x       y       z     vdW  Elec       q    Type
REMARK                         _______ _______ _______ _____ _____    ______ ____
ROOT
ATOM      1  O   UNL     1       5.248   1.242  20.096  0.00  0.00    +0.000 OA
ATOM      2  N   UNL     1       4.565   2.313  20.024  0.00  0.00    +0.000 N 
ATOM      3  C   UNL     1       5.112   3.540  19.431  0.00  0.00    +0.000 A 
ATOM      4  C   UNL     1       4.357   4.662  19.368  0.00  0.00    +0.000 A 
ATOM      5  N   UNL     1       3.031   4.649  19.863  0.00  0.00    +0.000 N 
ATOM      6  C   UNL     1       1.977   5.562  19.961  0.00  0.00    +0.000 A 
ATOM      7  N   UNL     1       0.971   4.958  20.585  0.00  0.00    +0.000 NA
ATOM      8  N   UNL     1       1.317   3.658  20.864  0.00  0.00    +0.000 NA
ATOM      9  C   UNL     1       2.536   3.497  20.428  0.00  0.00    +0.000 A 
ATOM     10  C   UNL     1       3.336   2.327  20.497  0.00  0.00    +0.000 A 
ENDROOT
BRANCH   6  11
ATOM     11  C   UNL     1       1.952   6.970  19.544  0.00  0.00    +0.000 A 
ATOM     12  C   UNL     1       1.663   8.007  20.431  0.00  0.00    +0.000 A 
ATOM     13  C   UNL     1       1.436   9.304  19.969  0.00  0.00    +0.000 A 
ATOM     14  C   UNL     1       1.617   9.621  18.629  0.00  0.00    +0.000 A 
ATOM     15  C   UNL     1       2.051   8.633  17.749  0.00  0.00    +0.000 A 
ATOM     16  C   UNL     1       2.214   7.314  18.208  0.00  0.00    +0.000 A 
BRANCH  14  17
ATOM     17  O   UNL     1       1.289  10.903  18.305  0.00  0.00    +0.000 OA
BRANCH  17  18
ATOM     18  C   UNL     1       0.063  11.370  18.831  0.00  0.00    +0.000 C 
ATOM     19  F   UNL     1      -0.028  12.704  18.610  0.00  0.00    +0.000 F 
ATOM     20  F   UNL     1      -0.926  10.785  18.109  0.00  0.00    +0.000 F 
ENDBRANCH  17  18
ENDBRANCH  14  17
ENDBRANCH   6  11
BRANCH   4  21
ATOM     21  O   UNL     1       4.837   5.847  18.859  0.00  0.00    +0.000 OA
BRANCH  21  22
ATOM     22  C   UNL     1       4.946   6.011  17.441  0.00  0.00    +0.000 C 
BRANCH  22  23
ATOM     23  C   UNL     1       4.781   4.652  16.745  0.00  0.00    +0.000 C 
BRANCH  23  24
ATOM     24  C   UNL     1       5.520   4.530  15.435  0.00  0.00    +0.000 A 
ATOM     25  C   UNL     1       6.785   5.110  15.241  0.00  0.00    +0.000 A 
ATOM     26  C   UNL     1       7.446   5.024  14.010  0.00  0.00    +0.000 A 
ATOM     27  C   UNL     1       6.838   4.361  12.957  0.00  0.00    +0.000 A 
ATOM     28  F   UNL     1       7.468   4.283  11.781  0.00  0.00    +0.000 F 
ATOM     29  C   UNL     1       5.587   3.787  13.126  0.00  0.00    +0.000 A 
ATOM     30  F   UNL     1       4.997   3.150  12.105  0.00  0.00    +0.000 F 
ATOM     31  C   UNL     1       4.920   3.866  14.348  0.00  0.00    +0.000 A 
ENDBRANCH  23  24
ENDBRANCH  22  23
ENDBRANCH  21  22
ENDBRANCH   4  21
TORSDOF 7
ENDMDL
MODEL 9
REMARK VINA RESULT:      -6.6      3.676      6.418
REMARK  Name = 
REMARK  7 active torsions:
REMARK  status: ('A' for Active; 'I' for Inactive)
REMARK    1  A    between atoms: C_4  and  O_5
REMARK    2  A    between atoms: O_5  and  C_6
REMARK    3  A    between atoms: C_6  and  C_7
REMARK    4  A    between atoms: C_7  and  C_8
REMARK    5  A    between atoms: C_17  and  C_18
REMARK    6  A    between atoms: C_21  and  O_22
REMARK    7  A    between atoms: O_22  and  C_23
REMARK                            x       y       z     vdW  Elec       q    Type
REMARK                         _______ _______ _______ _____ _____    ______ ____
ROOT
ATOM      1  O   UNL     1       5.310   1.427  20.242  0.00  0.00    +0.000 OA
ATOM      2  N   UNL     1       4.604   2.476  20.106  0.00  0.00    +0.000 N 
ATOM      3  C   UNL     1       5.116   3.670  19.423  0.00  0.00    +0.000 A 
ATOM      4  C   UNL     1       4.335   4.769  19.293  0.00  0.00    +0.000 A 
ATOM      5  N   UNL     1       3.017   4.763  19.808  0.00  0.00    +0.000 N 
ATOM      6  C   UNL     1       1.945   5.658  19.858  0.00  0.00    +0.000 A 
ATOM      7  N   UNL     1       0.961   5.078  20.537  0.00  0.00    +0.000 NA
ATOM      8  N   UNL     1       1.338   3.808  20.900  0.00  0.00    +0.000 NA
ATOM      9  C   UNL     1       2.554   3.643  20.458  0.00  0.00    +0.000 A 
ATOM     10  C   UNL     1       3.381   2.497  20.596  0.00  0.00    +0.000 A 
ENDROOT
BRANCH   6  11
ATOM     11  C   UNL     1       1.883   7.033  19.345  0.00  0.00    +0.000 A 
ATOM     12  C   UNL     1       2.193   7.351  18.022  0.00  0.00    +0.000 A 
ATOM     13  C   UNL     1       2.333   8.679  17.617  0.00  0.00    +0.000 A 
ATOM     14  C   UNL     1       2.044   9.720  18.490  0.00  0.00    +0.000 A 
ATOM     15  C   UNL     1       1.588   9.426  19.772  0.00  0.00    +0.000 A 
ATOM     16  C   UNL     1       1.512   8.087  20.195  0.00  0.00    +0.000 A 
BRANCH  14  17
ATOM     17  O   UNL     1       2.295  10.961  17.988  0.00  0.00    +0.000 OA
BRANCH  17  18
ATOM     18  C   UNL     1       1.863  12.042  18.789  0.00  0.00    +0.000 C 
ATOM     19  F   UNL     1       2.755  13.057  18.673  0.00  0.00    +0.000 F 
ATOM     20  F   UNL     1       0.695  12.485  18.259  0.00  0.00    +0.000 F 
ENDBRANCH  17  18
ENDBRANCH  14  17
ENDBRANCH   6  11
BRANCH   4  21
ATOM     21  O   UNL     1       4.783   5.926  18.697  0.00  0.00    +0.000 OA
BRANCH  21  22
ATOM     22  C   UNL     1       5.506   5.848  17.465  0.00  0.00    +0.000 C 
BRANCH  22  23
ATOM     23  C   UNL     1       4.830   4.838  16.525  0.00  0.00    +0.000 C 
BRANCH  23  24
ATOM     24  C   UNL     1       5.561   4.612  15.224  0.00  0.00    +0.000 A 
ATOM     25  C   UNL     1       6.841   5.142  14.991  0.00  0.00    +0.000 A 
ATOM     26  C   UNL     1       7.494   4.959  13.767  0.00  0.00    +0.000 A 
ATOM     27  C   UNL     1       6.865   4.246  12.760  0.00  0.00    +0.000 A 
ATOM     28  F   UNL     1       7.488   4.075  11.591  0.00  0.00    +0.000 F 
ATOM     29  C   UNL     1       5.599   3.719  12.968  0.00  0.00    +0.000 A 
ATOM     30  F   UNL     1       4.987   3.034  11.991  0.00  0.00    +0.000 F 
ATOM     31  C   UNL     1       4.939   3.896  14.184  0.00  0.00    +0.000 A 
ENDBRANCH  23  24
ENDBRANCH  22  23
ENDBRANCH  21  22
ENDBRANCH   4  21
TORSDOF 7
ENDMDL
