MODEL 1
REMARK VINA RESULT:      -8.6      0.000      0.000
REMARK  Name = 
REMARK  6 active torsions:
REMARK  status: ('A' for Active; 'I' for Inactive)
REMARK    1  A    between atoms: C_1  and  C_2
REMARK    2  A    between atoms: C_4  and  O_5
REMARK    3  A    between atoms: C_10  and  C_11
REMARK    4  A    between atoms: C_13  and  N_14
REMARK    5  A    between atoms: C_15  and  C_17
REMARK    6  A    between atoms: C_21  and  C_22
REMARK                            x       y       z     vdW  Elec       q    Type
REMARK                         _______ _______ _______ _____ _____    ______ ____
ROOT
ATOM      1  C   UNL     1       0.542   9.399  20.949  0.00  0.00    +0.000 C 
ATOM      2  C   UNL     1       1.337   8.505  20.045  0.00  0.00    +0.000 A 
ATOM      3  C   UNL     1       1.880   8.970  18.867  0.00  0.00    +0.000 A 
ATOM      4  C   UNL     1       2.660   8.074  18.175  0.00  0.00    +0.000 A 
ATOM      5  N   UNL     1       2.929   6.824  18.574  0.00  0.00    +0.000 NA
ATOM      6  C   UNL     1       2.306   6.434  19.712  0.00  0.00    +0.000 A 
ATOM      7  N   UNL     1       2.492   5.074  20.120  0.00  0.00    +0.000 N 
ATOM      8  N   UNL     1       1.789   4.511  21.143  0.00  0.00    +0.000 NA
ATOM      9  C   UNL     1       2.173   3.232  21.153  0.00  0.00    +0.000 A 
ATOM     10  C   UNL     1       1.567   2.259  22.097  0.00  0.00    +0.000 C 
ATOM     11  C   UNL     1       3.170   2.974  20.191  0.00  0.00    +0.000 A 
ATOM     12  C   UNL     1       3.373   4.166  19.534  0.00  0.00    +0.000 A 
ATOM     13  N   UNL     1       1.523   7.236  20.463  0.00  0.00    +0.000 NA
ENDROOT
BRANCH  12  14
ATOM     14  N   UNL     1       4.272   4.446  18.496  0.00  0.00    +0.000 N 
ATOM     15  C   UNL     1       4.112   3.965  17.158  0.00  0.00    +0.000 C 
ATOM     16  O   UNL     1       3.133   3.314  16.826  0.00  0.00    +0.000 OA
ATOM     17  H   UNL     1       5.051   5.059  18.746  0.00  0.00    +0.000 HD
BRANCH  15  18
ATOM     18  C   UNL     1       5.159   4.308  16.167  0.00  0.00    +0.000 A 
ATOM     19  C   UNL     1       6.273   5.086  16.495  0.00  0.00    +0.000 A 
ATOM     20  C   UNL     1       7.239   5.352  15.521  0.00  0.00    +0.000 A 
ATOM     21  C   UNL     1       7.093   4.853  14.223  0.00  0.00    +0.000 A 
ATOM     22  C   UNL     1       5.983   4.068  13.880  0.00  0.00    +0.000 A 
ATOM     23  C   UNL     1       5.025   3.790  14.868  0.00  0.00    +0.000 A 
BRANCH  22  24
ATOM     24  C   UNL     1       5.797   3.529  12.480  0.00  0.00    +0.000 C 
ATOM     25  F   UNL     1       6.666   4.052  11.574  0.00  0.00    +0.000 F 
ATOM     26  F   UNL     1       5.951   2.179  12.421  0.00  0.00    +0.000 F 
ATOM     27  F   UNL     1       4.549   3.786  11.999  0.00  0.00    +0.000 F 
ENDBRANCH  22  24
ENDBRANCH  15  18
ENDBRANCH  12  14
BRANCH   4  28
ATOM     28  O   UNL     1       3.236   8.408  16.986  0.00  0.00    +0.000 OA
ATOM     29  H   UNL     1       2.738   9.150  16.604  0.00  0.00    +0.000 HD
ENDBRANCH   4  28
TORSDOF 4
ENDMDL
MODEL 2
REMARK VINA RESULT:      -8.0      4.623      7.226
REMARK  Name = 
REMARK  6 active torsions:
REMARK  status: ('A' for Active; 'I' for Inactive)
REMARK    1  A    between atoms: C_1  and  C_2
REMARK    2  A    between atoms: C_4  and  O_5
REMARK    3  A    between atoms: C_10  and  C_11
REMARK    4  A    between atoms: C_13  and  N_14
REMARK    5  A    between atoms: C_15  and  C_17
REMARK    6  A    between atoms: C_21  and  C_22
REMARK                            x       y       z     vdW  Elec       q    Type
REMARK                         _______ _______ _______ _____ _____    ______ ____
ROOT
ATOM      1  C   UNL     1       8.636   8.977  17.780  0.00  0.00    +0.000 C 
ATOM      2  C   UNL     1       8.020   7.611  17.824  0.00  0.00    +0.000 A 
ATOM      3  C   UNL     1       7.689   7.008  19.019  0.00  0.00    +0.000 A 
ATOM      4  C   UNL     1       7.051   5.794  18.917  0.00  0.00    +0.000 A 
ATOM      5  N   UNL     1       6.727   5.193  17.765  0.00  0.00    +0.000 NA
ATOM      6  C   UNL     1       7.143   5.829  16.644  0.00  0.00    +0.000 A 
ATOM      7  N   UNL     1       6.901   5.170  15.396  0.00  0.00    +0.000 N 
ATOM      8  N   UNL     1       7.417   5.616  14.217  0.00  0.00    +0.000 NA
ATOM      9  C   UNL     1       7.049   4.700  13.318  0.00  0.00    +0.000 A 
ATOM     10  C   UNL     1       7.487   4.796  11.903  0.00  0.00    +0.000 C 
ATOM     11  C   UNL     1       6.239   3.698  13.890  0.00  0.00    +0.000 A 
ATOM     12  C   UNL     1       6.144   4.011  15.226  0.00  0.00    +0.000 A 
ATOM     13  N   UNL     1       7.775   7.021  16.637  0.00  0.00    +0.000 NA
ENDROOT
BRANCH  12  14
ATOM     14  N   UNL     1       5.439   3.335  16.231  0.00  0.00    +0.000 N 
ATOM     15  C   UNL     1       4.257   3.849  16.853  0.00  0.00    +0.000 C 
ATOM     16  O   UNL     1       3.755   4.903  16.497  0.00  0.00    +0.000 OA
ATOM     17  H   UNL     1       5.806   2.413  16.477  0.00  0.00    +0.000 HD
BRANCH  15  18
ATOM     18  C   UNL     1       3.633   3.044  17.929  0.00  0.00    +0.000 A 
ATOM     19  C   UNL     1       3.739   1.651  17.978  0.00  0.00    +0.000 A 
ATOM     20  C   UNL     1       3.149   0.951  19.034  0.00  0.00    +0.000 A 
ATOM     21  C   UNL     1       2.449   1.634  20.034  0.00  0.00    +0.000 A 
ATOM     22  C   UNL     1       2.339   3.031  20.000  0.00  0.00    +0.000 A 
ATOM     23  C   UNL     1       2.948   3.729  18.946  0.00  0.00    +0.000 A 
BRANCH  22  24
ATOM     24  C   UNL     1       1.576   3.791  21.062  0.00  0.00    +0.000 C 
ATOM     25  F   UNL     1       2.307   4.763  21.669  0.00  0.00    +0.000 F 
ATOM     26  F   UNL     1       0.467   4.402  20.564  0.00  0.00    +0.000 F 
ATOM     27  F   UNL     1       1.138   2.971  22.057  0.00  0.00    +0.000 F 
ENDBRANCH  22  24
ENDBRANCH  15  18
ENDBRANCH  12  14
BRANCH   4  28
ATOM     28  O   UNL     1       6.690   5.090  20.027  0.00  0.00    +0.000 OA
ATOM     29  H   UNL     1       6.781   5.672  20.800  0.00  0.00    +0.000 HD
ENDBRANCH   4  28
TORSDOF 4
ENDMDL
MODEL 3
REMARK VINA RESULT:      -8.0      5.141      7.781
REMARK  Name = 
REMARK  6 active torsions:
REMARK  status: ('A' for Active; 'I' for Inactive)
REMARK    1  A    between atoms: C_1  and  C_2
REMARK    2  A    between atoms: C_4  and  O_5
REMARK    3  A    between atoms: C_10  and  C_11
REMARK    4  A    between atoms: C_13  and  N_14
REMARK    5  A    between atoms: C_15  and  C_17
REMARK    6  A    between atoms: C_21  and  C_22
REMARK                            x       y       z     vdW  Elec       q    Type
REMARK                         _______ _______ _______ _____ _____    ______ ____
ROOT
ATOM      1  C   UNL     1       2.765  16.129  19.282  0.00  0.00    +0.000 C 
ATOM      2  C   UNL     1       2.272  14.715  19.187  0.00  0.00    +0.000 A 
ATOM      3  C   UNL     1       2.672  13.881  18.166  0.00  0.00    +0.000 A 
ATOM      4  C   UNL     1       2.218  12.585  18.244  0.00  0.00    +0.000 A 
ATOM      5  N   UNL     1       1.451  12.099  19.228  0.00  0.00    +0.000 NA
ATOM      6  C   UNL     1       1.059  13.004  20.156  0.00  0.00    +0.000 A 
ATOM      7  N   UNL     1       0.160  12.546  21.172  0.00  0.00    +0.000 N 
ATOM      8  N   UNL     1      -0.442  13.389  22.057  0.00  0.00    +0.000 NA
ATOM      9  C   UNL     1      -1.258  12.607  22.767  0.00  0.00    +0.000 A 
ATOM     10  C   UNL     1      -2.155  13.179  23.803  0.00  0.00    +0.000 C 
ATOM     11  C   UNL     1      -1.142  11.252  22.398  0.00  0.00    +0.000 A 
ATOM     12  C   UNL     1      -0.223  11.220  21.375  0.00  0.00    +0.000 A 
ATOM     13  N   UNL     1       1.449  14.296  20.169  0.00  0.00    +0.000 NA
ENDROOT
BRANCH  12  14
ATOM     14  N   UNL     1       0.255  10.108  20.668  0.00  0.00    +0.000 N 
ATOM     15  C   UNL     1       1.171   9.155  21.216  0.00  0.00    +0.000 C 
ATOM     16  O   UNL     1       1.554   9.230  22.372  0.00  0.00    +0.000 OA
ATOM     17  H   UNL     1      -0.125   9.993  19.726  0.00  0.00    +0.000 HD
BRANCH  15  18
ATOM     18  C   UNL     1       1.623   8.046  20.343  0.00  0.00    +0.000 A 
ATOM     19  C   UNL     1       2.108   8.262  19.050  0.00  0.00    +0.000 A 
ATOM     20  C   UNL     1       2.543   7.175  18.286  0.00  0.00    +0.000 A 
ATOM     21  C   UNL     1       2.488   5.877  18.805  0.00  0.00    +0.000 A 
ATOM     22  C   UNL     1       2.007   5.646  20.102  0.00  0.00    +0.000 A 
ATOM     23  C   UNL     1       1.588   6.744  20.869  0.00  0.00    +0.000 A 
BRANCH  22  24
ATOM     24  C   UNL     1       1.925   4.251  20.678  0.00  0.00    +0.000 C 
ATOM     25  F   UNL     1       2.368   4.164  21.960  0.00  0.00    +0.000 F 
ATOM     26  F   UNL     1       0.653   3.768  20.681  0.00  0.00    +0.000 F 
ATOM     27  F   UNL     1       2.664   3.360  19.961  0.00  0.00    +0.000 F 
ENDBRANCH  22  24
ENDBRANCH  15  18
ENDBRANCH  12  14
BRANCH   4  28
ATOM     28  O   UNL     1       2.528  11.668  17.284  0.00  0.00    +0.000 OA
ATOM     29  H   UNL     1       2.102  11.940  16.454  0.00  0.00    +0.000 HD
ENDBRANCH   4  28
TORSDOF 4
ENDMDL
MODEL 4
REMARK VINA RESULT:      -7.7      0.901      1.179
REMARK  Name = 
REMARK  6 active torsions:
REMARK  status: ('A' for Active; 'I' for Inactive)
REMARK    1  A    between atoms: C_1  and  C_2
REMARK    2  A    between atoms: C_4  and  O_5
REMARK    3  A    between atoms: C_10  and  C_11
REMARK    4  A    between atoms: C_13  and  N_14
REMARK    5  A    between atoms: C_15  and  C_17
REMARK    6  A    between atoms: C_21  and  C_22
REMARK                            x       y       z     vdW  Elec       q    Type
REMARK                         _______ _______ _______ _____ _____    ______ ____
ROOT
ATOM      1  C   UNL     1       0.742   9.424  21.414  0.00  0.00    +0.000 C 
ATOM      2  C   UNL     1       1.356   8.562  20.352  0.00  0.00    +0.000 A 
ATOM      3  C   UNL     1       1.745   9.084  19.137  0.00  0.00    +0.000 A 
ATOM      4  C   UNL     1       2.374   8.207  18.286  0.00  0.00    +0.000 A 
ATOM      5  N   UNL     1       2.638   6.923  18.565  0.00  0.00    +0.000 NA
ATOM      6  C   UNL     1       2.167   6.483  19.755  0.00  0.00    +0.000 A 
ATOM      7  N   UNL     1       2.344   5.092  20.050  0.00  0.00    +0.000 N 
ATOM      8  N   UNL     1       1.769   4.490  21.128  0.00  0.00    +0.000 NA
ATOM      9  C   UNL     1       2.089   3.200  21.005  0.00  0.00    +0.000 A 
ATOM     10  C   UNL     1       1.580   2.190  21.967  0.00  0.00    +0.000 C 
ATOM     11  C   UNL     1       2.925   2.968  19.893  0.00  0.00    +0.000 A 
ATOM     12  C   UNL     1       3.088   4.193  19.287  0.00  0.00    +0.000 A 
ATOM     13  N   UNL     1       1.539   7.263  20.660  0.00  0.00    +0.000 NA
ENDROOT
BRANCH  12  14
ATOM     14  N   UNL     1       3.841   4.507  18.148  0.00  0.00    +0.000 N 
ATOM     15  C   UNL     1       5.261   4.341  18.066  0.00  0.00    +0.000 C 
ATOM     16  O   UNL     1       5.901   3.856  18.985  0.00  0.00    +0.000 OA
ATOM     17  H   UNL     1       3.302   4.835  17.345  0.00  0.00    +0.000 HD
BRANCH  15  18
ATOM     18  C   UNL     1       5.935   4.747  16.811  0.00  0.00    +0.000 A 
ATOM     19  C   UNL     1       6.903   5.755  16.774  0.00  0.00    +0.000 A 
ATOM     20  C   UNL     1       7.521   6.074  15.562  0.00  0.00    +0.000 A 
ATOM     21  C   UNL     1       7.171   5.397  14.389  0.00  0.00    +0.000 A 
ATOM     22  C   UNL     1       6.205   4.381  14.411  0.00  0.00    +0.000 A 
ATOM     23  C   UNL     1       5.601   4.055  15.635  0.00  0.00    +0.000 A 
BRANCH  22  24
ATOM     24  C   UNL     1       5.801   3.647  13.153  0.00  0.00    +0.000 C 
ATOM     25  F   UNL     1       4.498   3.829  12.810  0.00  0.00    +0.000 F 
ATOM     26  F   UNL     1       6.536   4.026  12.074  0.00  0.00    +0.000 F 
ATOM     27  F   UNL     1       5.974   2.301  13.272  0.00  0.00    +0.000 F 
ENDBRANCH  22  24
ENDBRANCH  15  18
ENDBRANCH  12  14
BRANCH   4  28
ATOM     28  O   UNL     1       2.789   8.597  17.047  0.00  0.00    +0.000 OA
ATOM     29  H   UNL     1       3.149   7.821  16.587  0.00  0.00    +0.000 HD
ENDBRANCH   4  28
TORSDOF 4
ENDMDL
MODEL 5
REMARK VINA RESULT:      -7.6      8.303     12.419
REMARK  Name = 
REMARK  6 active torsions:
REMARK  status: ('A' for Active; 'I' for Inactive)
REMARK    1  A    between atoms: C_1  and  C_2
REMARK    2  A    between atoms: C_4  and  O_5
REMARK    3  A    between atoms: C_10  and  C_11
REMARK    4  A    between atoms: C_13  and  N_14
REMARK    5  A    between atoms: C_15  and  C_17
REMARK    6  A    between atoms: C_21  and  C_22
REMARK                            x       y       z     vdW  Elec       q    Type
REMARK                         _______ _______ _______ _____ _____    ______ ____
ROOT
ATOM      1  C   UNL     1       2.076   8.956  18.166  0.00  0.00    +0.000 C 
ATOM      2  C   UNL     1       0.821   9.603  18.669  0.00  0.00    +0.000 A 
ATOM      3  C   UNL     1       0.682   9.976  19.989  0.00  0.00    +0.000 A 
ATOM      4  C   UNL     1      -0.482  10.638  20.302  0.00  0.00    +0.000 A 
ATOM      5  N   UNL     1      -1.447  10.948  19.427  0.00  0.00    +0.000 NA
ATOM      6  C   UNL     1      -1.253  10.491  18.167  0.00  0.00    +0.000 A 
ATOM      7  N   UNL     1      -2.306  10.718  17.223  0.00  0.00    +0.000 N 
ATOM      8  N   UNL     1      -2.311  10.163  15.979  0.00  0.00    +0.000 NA
ATOM      9  C   UNL     1      -3.481  10.530  15.450  0.00  0.00    +0.000 A 
ATOM     10  C   UNL     1      -3.895  10.056  14.106  0.00  0.00    +0.000 C 
ATOM     11  C   UNL     1      -4.207  11.376  16.314  0.00  0.00    +0.000 A 
ATOM     12  C   UNL     1      -3.441  11.496  17.450  0.00  0.00    +0.000 A 
ATOM     13  N   UNL     1      -0.147   9.833  17.759  0.00  0.00    +0.000 NA
ENDROOT
BRANCH  12  14
ATOM     14  N   UNL     1      -3.711  12.240  18.607  0.00  0.00    +0.000 N 
ATOM     15  C   UNL     1      -4.909  12.100  19.377  0.00  0.00    +0.000 C 
ATOM     16  O   UNL     1      -5.758  11.269  19.093  0.00  0.00    +0.000 OA
ATOM     17  H   UNL     1      -2.969  12.878  18.898  0.00  0.00    +0.000 HD
BRANCH  15  18
ATOM     18  C   UNL     1      -5.080  12.977  20.559  0.00  0.00    +0.000 A 
ATOM     19  C   UNL     1      -5.788  14.181  20.501  0.00  0.00    +0.000 A 
ATOM     20  C   UNL     1      -5.936  14.950  21.659  0.00  0.00    +0.000 A 
ATOM     21  C   UNL     1      -5.374  14.527  22.867  0.00  0.00    +0.000 A 
ATOM     22  C   UNL     1      -4.665  13.320  22.942  0.00  0.00    +0.000 A 
ATOM     23  C   UNL     1      -4.535  12.544  21.779  0.00  0.00    +0.000 A 
BRANCH  22  24
ATOM     24  C   UNL     1      -4.037  12.849  24.234  0.00  0.00    +0.000 C 
ATOM     25  F   UNL     1      -3.021  11.962  24.055  0.00  0.00    +0.000 F 
ATOM     26  F   UNL     1      -3.522  13.876  24.962  0.00  0.00    +0.000 F 
ATOM     27  F   UNL     1      -4.940  12.230  25.042  0.00  0.00    +0.000 F 
ENDBRANCH  22  24
ENDBRANCH  15  18
ENDBRANCH  12  14
BRANCH   4  28
ATOM     28  O   UNL     1      -0.745  11.041  21.577  0.00  0.00    +0.000 OA
ATOM     29  H   UNL     1      -1.697  11.221  21.650  0.00  0.00    +0.000 HD
ENDBRANCH   4  28
TORSDOF 4
ENDMDL
MODEL 6
REMARK VINA RESULT:      -7.5      4.555      7.928
REMARK  Name = 
REMARK  6 active torsions:
REMARK  status: ('A' for Active; 'I' for Inactive)
REMARK    1  A    between atoms: C_1  and  C_2
REMARK    2  A    between atoms: C_4  and  O_5
REMARK    3  A    between atoms: C_10  and  C_11
REMARK    4  A    between atoms: C_13  and  N_14
REMARK    5  A    between atoms: C_15  and  C_17
REMARK    6  A    between atoms: C_21  and  C_22
REMARK                            x       y       z     vdW  Elec       q    Type
REMARK                         _______ _______ _______ _____ _____    ______ ____
ROOT
ATOM      1  C   UNL     1       4.966   1.265  21.069  0.00  0.00    +0.000 C 
ATOM      2  C   UNL     1       4.142   2.385  20.507  0.00  0.00    +0.000 A 
ATOM      3  C   UNL     1       2.903   2.696  21.023  0.00  0.00    +0.000 A 
ATOM      4  C   UNL     1       2.289   3.799  20.476  0.00  0.00    +0.000 A 
ATOM      5  N   UNL     1       2.815   4.572  19.517  0.00  0.00    +0.000 NA
ATOM      6  C   UNL     1       4.008   4.155  19.029  0.00  0.00    +0.000 A 
ATOM      7  N   UNL     1       4.558   4.900  17.936  0.00  0.00    +0.000 N 
ATOM      8  N   UNL     1       5.659   4.488  17.246  0.00  0.00    +0.000 NA
ATOM      9  C   UNL     1       5.798   5.384  16.266  0.00  0.00    +0.000 A 
ATOM     10  C   UNL     1       6.862   5.238  15.242  0.00  0.00    +0.000 C 
ATOM     11  C   UNL     1       4.839   6.413  16.354  0.00  0.00    +0.000 A 
ATOM     12  C   UNL     1       4.048   6.097  17.435  0.00  0.00    +0.000 A 
ATOM     13  N   UNL     1       4.691   3.089  19.497  0.00  0.00    +0.000 NA
ENDROOT
BRANCH  12  14
ATOM     14  N   UNL     1       2.958   6.808  17.954  0.00  0.00    +0.000 N 
ATOM     15  C   UNL     1       2.844   8.233  17.900  0.00  0.00    +0.000 C 
ATOM     16  O   UNL     1       3.683   8.920  17.339  0.00  0.00    +0.000 OA
ATOM     17  H   UNL     1       2.212   6.234  18.352  0.00  0.00    +0.000 HD
BRANCH  15  18
ATOM     18  C   UNL     1       1.652   8.858  18.521  0.00  0.00    +0.000 A 
ATOM     19  C   UNL     1       0.678   9.522  17.770  0.00  0.00    +0.000 A 
ATOM     20  C   UNL     1      -0.437  10.067  18.413  0.00  0.00    +0.000 A 
ATOM     21  C   UNL     1      -0.578   9.958  19.800  0.00  0.00    +0.000 A 
ATOM     22  C   UNL     1       0.389   9.291  20.566  0.00  0.00    +0.000 A 
ATOM     23  C   UNL     1       1.497   8.731  19.911  0.00  0.00    +0.000 A 
BRANCH  22  24
ATOM     24  C   UNL     1       0.265   9.173  22.068  0.00  0.00    +0.000 C 
ATOM     25  F   UNL     1       0.066  10.364  22.694  0.00  0.00    +0.000 F 
ATOM     26  F   UNL     1      -0.768   8.369  22.440  0.00  0.00    +0.000 F 
ATOM     27  F   UNL     1       1.382   8.634  22.630  0.00  0.00    +0.000 F 
ENDBRANCH  22  24
ENDBRANCH  15  18
ENDBRANCH  12  14
BRANCH   4  28
ATOM     28  O   UNL     1       1.053   4.198  20.888  0.00  0.00    +0.000 OA
ATOM     29  H   UNL     1       1.132   4.554  21.789  0.00  0.00    +0.000 HD
ENDBRANCH   4  28
TORSDOF 4
ENDMDL
MODEL 7
REMARK VINA RESULT:      -7.4      4.319      7.869
REMARK  Name = 
REMARK  6 active torsions:
REMARK  status: ('A' for Active; 'I' for Inactive)
REMARK    1  A    between atoms: C_1  and  C_2
REMARK    2  A    between atoms: C_4  and  O_5
REMARK    3  A    between atoms: C_10  and  C_11
REMARK    4  A    between atoms: C_13  and  N_14
REMARK    5  A    between atoms: C_15  and  C_17
REMARK    6  A    between atoms: C_21  and  C_22
REMARK                            x       y       z     vdW  Elec       q    Type
REMARK                         _______ _______ _______ _____ _____    ______ ____
ROOT
ATOM      1  C   UNL     1       5.183   1.003  20.811  0.00  0.00    +0.000 C 
ATOM      2  C   UNL     1       4.340   2.187  20.442  0.00  0.00    +0.000 A 
ATOM      3  C   UNL     1       3.179   2.484  21.122  0.00  0.00    +0.000 A 
ATOM      4  C   UNL     1       2.547   3.645  20.743  0.00  0.00    +0.000 A 
ATOM      5  N   UNL     1       2.986   4.483  19.795  0.00  0.00    +0.000 NA
ATOM      6  C   UNL     1       4.101   4.081  19.140  0.00  0.00    +0.000 A 
ATOM      7  N   UNL     1       4.549   4.902  18.055  0.00  0.00    +0.000 N 
ATOM      8  N   UNL     1       5.548   4.523  17.210  0.00  0.00    +0.000 NA
ATOM      9  C   UNL     1       5.606   5.495  16.297  0.00  0.00    +0.000 A 
ATOM     10  C   UNL     1       6.541   5.411  15.148  0.00  0.00    +0.000 C 
ATOM     11  C   UNL     1       4.700   6.537  16.581  0.00  0.00    +0.000 A 
ATOM     12  C   UNL     1       4.027   6.150  17.716  0.00  0.00    +0.000 A 
ATOM     13  N   UNL     1       4.795   2.962  19.436  0.00  0.00    +0.000 NA
ENDROOT
BRANCH  12  14
ATOM     14  N   UNL     1       3.028   6.841  18.415  0.00  0.00    +0.000 N 
ATOM     15  C   UNL     1       2.538   8.129  18.030  0.00  0.00    +0.000 C 
ATOM     16  O   UNL     1       2.934   8.686  17.018  0.00  0.00    +0.000 OA
ATOM     17  H   UNL     1       2.633   6.345  19.216  0.00  0.00    +0.000 HD
BRANCH  15  18
ATOM     18  C   UNL     1       1.504   8.761  18.882  0.00  0.00    +0.000 A 
ATOM     19  C   UNL     1       1.384   8.480  20.246  0.00  0.00    +0.000 A 
ATOM     20  C   UNL     1       0.403   9.130  21.000  0.00  0.00    +0.000 A 
ATOM     21  C   UNL     1      -0.460  10.050  20.398  0.00  0.00    +0.000 A 
ATOM     22  C   UNL     1      -0.348  10.346  19.032  0.00  0.00    +0.000 A 
ATOM     23  C   UNL     1       0.649   9.703  18.284  0.00  0.00    +0.000 A 
BRANCH  22  24
ATOM     24  C   UNL     1      -1.279  11.327  18.356  0.00  0.00    +0.000 C 
ATOM     25  F   UNL     1      -1.875  10.833  17.239  0.00  0.00    +0.000 F 
ATOM     26  F   UNL     1      -2.285  11.734  19.177  0.00  0.00    +0.000 F 
ATOM     27  F   UNL     1      -0.630  12.459  17.968  0.00  0.00    +0.000 F 
ENDBRANCH  22  24
ENDBRANCH  15  18
ENDBRANCH  12  14
BRANCH   4  28
ATOM     28  O   UNL     1       1.380   4.038  21.327  0.00  0.00    +0.000 OA
ATOM     29  H   UNL     1       1.195   4.952  21.054  0.00  0.00    +0.000 HD
ENDBRANCH   4  28
TORSDOF 4
ENDMDL
MODEL 8
REMARK VINA RESULT:      -7.3      2.877      4.585
REMARK  Name = 
REMARK  6 active torsions:
REMARK  status: ('A' for Active; 'I' for Inactive)
REMARK    1  A    between atoms: C_1  and  C_2
REMARK    2  A    between atoms: C_4  and  O_5
REMARK    3  A    between atoms: C_10  and  C_11
REMARK    4  A    between atoms: C_13  and  N_14
REMARK    5  A    between atoms: C_15  and  C_17
REMARK    6  A    between atoms: C_21  and  C_22
REMARK                            x       y       z     vdW  Elec       q    Type
REMARK                         _______ _______ _______ _____ _____    ______ ____
ROOT
ATOM      1  C   UNL     1       1.472   4.007  21.024  0.00  0.00    +0.000 C 
ATOM      2  C   UNL     1       2.245   3.636  19.794  0.00  0.00    +0.000 A 
ATOM      3  C   UNL     1       1.700   2.832  18.816  0.00  0.00    +0.000 A 
ATOM      4  C   UNL     1       2.481   2.640  17.700  0.00  0.00    +0.000 A 
ATOM      5  N   UNL     1       3.689   3.183  17.506  0.00  0.00    +0.000 NA
ATOM      6  C   UNL     1       4.169   3.910  18.544  0.00  0.00    +0.000 A 
ATOM      7  N   UNL     1       5.497   4.429  18.414  0.00  0.00    +0.000 N 
ATOM      8  N   UNL     1       6.158   5.025  19.446  0.00  0.00    +0.000 NA
ATOM      9  C   UNL     1       7.376   5.282  18.964  0.00  0.00    +0.000 A 
ATOM     10  C   UNL     1       8.429   5.877  19.824  0.00  0.00    +0.000 C 
ATOM     11  C   UNL     1       7.491   4.922  17.606  0.00  0.00    +0.000 A 
ATOM     12  C   UNL     1       6.276   4.378  17.259  0.00  0.00    +0.000 A 
ATOM     13  N   UNL     1       3.483   4.158  19.680  0.00  0.00    +0.000 NA
ENDROOT
BRANCH  12  14
ATOM     14  N   UNL     1       5.871   3.876  16.015  0.00  0.00    +0.000 N 
ATOM     15  C   UNL     1       6.201   4.492  14.766  0.00  0.00    +0.000 C 
ATOM     16  O   UNL     1       6.915   5.481  14.711  0.00  0.00    +0.000 OA
ATOM     17  H   UNL     1       5.342   3.002  16.048  0.00  0.00    +0.000 HD
BRANCH  15  18
ATOM     18  C   UNL     1       5.675   3.873  13.527  0.00  0.00    +0.000 A 
ATOM     19  C   UNL     1       4.429   4.212  12.992  0.00  0.00    +0.000 A 
ATOM     20  C   UNL     1       4.001   3.611  11.805  0.00  0.00    +0.000 A 
ATOM     21  C   UNL     1       4.807   2.670  11.157  0.00  0.00    +0.000 A 
ATOM     22  C   UNL     1       6.061   2.323  11.679  0.00  0.00    +0.000 A 
ATOM     23  C   UNL     1       6.491   2.943  12.862  0.00  0.00    +0.000 A 
BRANCH  22  24
ATOM     24  C   UNL     1       6.943   1.297  11.004  0.00  0.00    +0.000 C 
ATOM     25  F   UNL     1       6.558   0.013  11.230  0.00  0.00    +0.000 F 
ATOM     26  F   UNL     1       6.976   1.454   9.653  0.00  0.00    +0.000 F 
ATOM     27  F   UNL     1       8.236   1.384  11.424  0.00  0.00    +0.000 F 
ENDBRANCH  22  24
ENDBRANCH  15  18
ENDBRANCH  12  14
BRANCH   4  28
ATOM     28  O   UNL     1       2.061   1.849  16.672  0.00  0.00    +0.000 OA
ATOM     29  H   UNL     1       1.755   2.424  15.951  0.00  0.00    +0.000 HD
ENDBRANCH   4  28
TORSDOF 4
ENDMDL
MODEL 9
REMARK VINA RESULT:      -7.1      4.602      7.786
REMARK  Name = 
REMARK  6 active torsions:
REMARK  status: ('A' for Active; 'I' for Inactive)
REMARK    1  A    between atoms: C_1  and  C_2
REMARK    2  A    between atoms: C_4  and  O_5
REMARK    3  A    between atoms: C_10  and  C_11
REMARK    4  A    between atoms: C_13  and  N_14
REMARK    5  A    between atoms: C_15  and  C_17
REMARK    6  A    between atoms: C_21  and  C_22
REMARK                            x       y       z     vdW  Elec       q    Type
REMARK                         _______ _______ _______ _____ _____    ______ ____
ROOT
ATOM      1  C   UNL     1       4.463   1.506  20.643  0.00  0.00    +0.000 C 
ATOM      2  C   UNL     1       3.968   2.860  20.229  0.00  0.00    +0.000 A 
ATOM      3  C   UNL     1       3.048   3.553  20.986  0.00  0.00    +0.000 A 
ATOM      4  C   UNL     1       2.745   4.819  20.542  0.00  0.00    +0.000 A 
ATOM      5  N   UNL     1       3.285   5.404  19.465  0.00  0.00    +0.000 NA
ATOM      6  C   UNL     1       4.134   4.628  18.751  0.00  0.00    +0.000 A 
ATOM      7  N   UNL     1       4.659   5.183  17.540  0.00  0.00    +0.000 N 
ATOM      8  N   UNL     1       5.381   4.451  16.647  0.00  0.00    +0.000 NA
ATOM      9  C   UNL     1       5.605   5.284  15.628  0.00  0.00    +0.000 A 
ATOM     10  C   UNL     1       6.314   4.825  14.407  0.00  0.00    +0.000 C 
ATOM     11  C   UNL     1       5.095   6.573  15.881  0.00  0.00    +0.000 A 
ATOM     12  C   UNL     1       4.492   6.501  17.115  0.00  0.00    +0.000 A 
ATOM     13  N   UNL     1       4.497   3.376  19.101  0.00  0.00    +0.000 NA
ENDROOT
BRANCH  12  14
ATOM     14  N   UNL     1       3.844   7.519  17.828  0.00  0.00    +0.000 N 
ATOM     15  C   UNL     1       2.427   7.720  17.811  0.00  0.00    +0.000 C 
ATOM     16  O   UNL     1       1.683   6.966  17.203  0.00  0.00    +0.000 OA
ATOM     17  H   UNL     1       4.452   8.103  18.405  0.00  0.00    +0.000 HD
BRANCH  15  18
ATOM     18  C   UNL     1       1.879   8.859  18.584  0.00  0.00    +0.000 A 
ATOM     19  C   UNL     1       1.811  10.154  18.062  0.00  0.00    +0.000 A 
ATOM     20  C   UNL     1       1.258  11.180  18.833  0.00  0.00    +0.000 A 
ATOM     21  C   UNL     1       0.781  10.920  20.122  0.00  0.00    +0.000 A 
ATOM     22  C   UNL     1       0.838   9.626  20.657  0.00  0.00    +0.000 A 
ATOM     23  C   UNL     1       1.379   8.596  19.871  0.00  0.00    +0.000 A 
BRANCH  22  24
ATOM     24  C   UNL     1       0.342   9.323  22.052  0.00  0.00    +0.000 C 
ATOM     25  F   UNL     1      -0.581   8.326  22.099  0.00  0.00    +0.000 F 
ATOM     26  F   UNL     1       1.348   8.952  22.889  0.00  0.00    +0.000 F 
ATOM     27  F   UNL     1      -0.245  10.408  22.629  0.00  0.00    +0.000 F 
ENDBRANCH  22  24
ENDBRANCH  15  18
ENDBRANCH  12  14
BRANCH   4  28
ATOM     28  O   UNL     1       1.834   5.597  21.193  0.00  0.00    +0.000 OA
ATOM     29  H   UNL     1       0.972   5.484  20.760  0.00  0.00    +0.000 HD
ENDBRANCH   4  28
TORSDOF 4
ENDMDL
