MODEL 1
REMARK VINA RESULT:      -8.0      0.000      0.000
REMARK  Name = 
REMARK  14 active torsions:
REMARK  status: ('A' for Active; 'I' for Inactive)
REMARK    1  A    between atoms: C_1  and  C_2
REMARK    2  A    between atoms: C_2  and  C_3
REMARK    3  A    between atoms: C_3  and  C_4
REMARK    4  A    between atoms: C_3  and  N_5
REMARK    5  A    between atoms: N_5  and  C_6
REMARK    6  A    between atoms: C_8  and  N_9
REMARK    7  A    between atoms: C_14  and  C_15
REMARK    8  A    between atoms: C_22  and  C_23
REMARK    9  A    between atoms: N_25  and  C_26
REMARK   10  A    between atoms: C_26  and  C_27
REMARK   11  A    between atoms: C_27  and  C_29
REMARK   12  A    between atoms: C_29  and  C_30
REMARK   13  A    between atoms: C_29  and  C_31
REMARK   14  A    between atoms: C_29  and  O_32
REMARK                            x       y       z     vdW  Elec       q    Type
REMARK                         _______ _______ _______ _____ _____    ______ ____
ROOT
ATOM      1  C   UNL     1       2.154   6.689  20.146  0.00  0.00    +0.000 A 
ATOM      2  C   UNL     1       1.526   7.897  20.530  0.00  0.00    +0.000 A 
ATOM      3  C   UNL     1       1.359   8.961  19.661  0.00  0.00    +0.000 A 
ATOM      4  N   UNL     1       1.823   8.879  18.389  0.00  0.00    +0.000 NA
ATOM      5  C   UNL     1       2.519   7.750  18.037  0.00  0.00    +0.000 A 
ATOM      6  C   UNL     1       2.723   6.638  18.862  0.00  0.00    +0.000 A 
ENDROOT
BRANCH   3   7
ATOM      7  N   UNL     1       0.868  10.216  20.179  0.00  0.00    +0.000 N 
ATOM      8  N   UNL     1       1.223  10.640  21.432  0.00  0.00    +0.000 NA
ATOM      9  C   UNL     1       0.096  11.185  21.894  0.00  0.00    +0.000 A 
ATOM     10  C   UNL     1      -0.899  11.294  20.902  0.00  0.00    +0.000 A 
ATOM     11  C   UNL     1      -2.251  11.662  20.827  0.00  0.00    +0.000 A 
ATOM     12  C   UNL     1      -2.749  11.973  19.561  0.00  0.00    +0.000 A 
ATOM     13  C   UNL     1      -1.905  11.844  18.466  0.00  0.00    +0.000 A 
ATOM     14  N   UNL     1      -0.665  11.263  18.474  0.00  0.00    +0.000 NA
ATOM     15  C   UNL     1      -0.225  10.989  19.724  0.00  0.00    +0.000 A 
BRANCH  12  16
ATOM     16  C   UNL     1      -4.107  12.416  19.392  0.00  0.00    +0.000 C 
ATOM     17  N   UNL     1      -5.196  12.769  19.260  0.00  0.00    +0.000 NA
ENDBRANCH  12  16
ENDBRANCH   3   7
BRANCH   6  18
ATOM     18  C   UNL     1       3.617   5.544  18.337  0.00  0.00    +0.000 C 
ATOM     19  O   UNL     1       3.183   4.739  17.525  0.00  0.00    +0.000 OA
ATOM     20  N   UNL     1       4.922   5.485  18.806  0.00  0.00    +0.000 N 
ATOM     21  H   UNL     1       5.150   6.026  19.630  0.00  0.00    +0.000 HD
BRANCH  20  22
ATOM     22  C   UNL     1       5.920   4.504  18.329  0.00  0.00    +0.000 C 
BRANCH  22  23
ATOM     23  C   UNL     1       6.921   5.086  17.306  0.00  0.00    +0.000 C 
ATOM     24  F   UNL     1       8.076   4.341  17.397  0.00  0.00    +0.000 F 
BRANCH  23  25
ATOM     25  C   UNL     1       6.495   5.065  15.806  0.00  0.00    +0.000 C 
ATOM     26  C   UNL     1       5.934   3.712  15.352  0.00  0.00    +0.000 C 
ATOM     27  C   UNL     1       5.511   6.177  15.442  0.00  0.00    +0.000 C 
BRANCH  25  28
ATOM     28  O   UNL     1       7.668   5.306  15.000  0.00  0.00    +0.000 OA
ATOM     29  H   UNL     1       7.579   4.766  14.193  0.00  0.00    +0.000 HD
ENDBRANCH  25  28
ENDBRANCH  23  25
ENDBRANCH  22  23
ENDBRANCH  20  22
ENDBRANCH   6  18
BRANCH   1  30
ATOM     30  N   UNL     1       2.206   5.653  21.081  0.00  0.00    +0.000 N 
ATOM     31  H   UNL     1       2.676   5.830  21.969  0.00  0.00    +0.000 HD
BRANCH  30  32
ATOM     32  C   UNL     1       2.112   4.268  20.627  0.00  0.00    +0.000 C 
ATOM     33  C   UNL     1       2.443   3.324  21.779  0.00  0.00    +0.000 C 
BRANCH  32  35
ATOM     34  C   UNL     1       0.650   2.771  19.121  0.00  0.00    +0.000 C 
ATOM     35  C   UNL     1       0.707   3.969  20.057  0.00  0.00    +0.000 C 
ENDBRANCH  32  35
ENDBRANCH  30  32
ENDBRANCH   1  30
TORSDOF 10
ENDMDL
MODEL 2
REMARK VINA RESULT:      -8.0      2.387      3.881
REMARK  Name = 
REMARK  14 active torsions:
REMARK  status: ('A' for Active; 'I' for Inactive)
REMARK    1  A    between atoms: C_1  and  C_2
REMARK    2  A    between atoms: C_2  and  C_3
REMARK    3  A    between atoms: C_3  and  C_4
REMARK    4  A    between atoms: C_3  and  N_5
REMARK    5  A    between atoms: N_5  and  C_6
REMARK    6  A    between atoms: C_8  and  N_9
REMARK    7  A    between atoms: C_14  and  C_15
REMARK    8  A    between atoms: C_22  and  C_23
REMARK    9  A    between atoms: N_25  and  C_26
REMARK   10  A    between atoms: C_26  and  C_27
REMARK   11  A    between atoms: C_27  and  C_29
REMARK   12  A    between atoms: C_29  and  C_30
REMARK   13  A    between atoms: C_29  and  C_31
REMARK   14  A    between atoms: C_29  and  O_32
REMARK                            x       y       z     vdW  Elec       q    Type
REMARK                         _______ _______ _______ _____ _____    ______ ____
ROOT
ATOM      1  C   UNL     1       2.369   7.086  18.837  0.00  0.00    +0.000 A 
ATOM      2  C   UNL     1       1.956   8.398  18.503  0.00  0.00    +0.000 A 
ATOM      3  C   UNL     1       1.280   9.216  19.390  0.00  0.00    +0.000 A 
ATOM      4  N   UNL     1       0.969   8.764  20.631  0.00  0.00    +0.000 NA
ATOM      5  C   UNL     1       1.279   7.461  20.929  0.00  0.00    +0.000 A 
ATOM      6  C   UNL     1       1.962   6.580  20.083  0.00  0.00    +0.000 A 
ENDROOT
BRANCH   3   7
ATOM      7  N   UNL     1       0.742  10.469  18.915  0.00  0.00    +0.000 N 
ATOM      8  N   UNL     1       1.286  11.660  19.320  0.00  0.00    +0.000 NA
ATOM      9  C   UNL     1       0.214  12.439  19.478  0.00  0.00    +0.000 A 
ATOM     10  C   UNL     1      -0.967  11.839  18.998  0.00  0.00    +0.000 A 
ATOM     11  C   UNL     1      -2.343  12.116  18.996  0.00  0.00    +0.000 A 
ATOM     12  C   UNL     1      -3.125  11.415  18.077  0.00  0.00    +0.000 A 
ATOM     13  C   UNL     1      -2.511  10.461  17.276  0.00  0.00    +0.000 A 
ATOM     14  N   UNL     1      -1.230  10.000  17.418  0.00  0.00    +0.000 NA
ATOM     15  C   UNL     1      -0.513  10.717  18.313  0.00  0.00    +0.000 A 
BRANCH  12  16
ATOM     16  C   UNL     1      -4.535  11.673  17.962  0.00  0.00    +0.000 C 
ATOM     17  N   UNL     1      -5.664  11.883  17.871  0.00  0.00    +0.000 NA
ENDBRANCH  12  16
ENDBRANCH   3   7
BRANCH   6  18
ATOM     18  C   UNL     1       2.103   5.151  20.543  0.00  0.00    +0.000 C 
ATOM     19  O   UNL     1       2.780   4.892  21.528  0.00  0.00    +0.000 OA
ATOM     20  N   UNL     1       1.453   4.164  19.816  0.00  0.00    +0.000 N 
ATOM     21  H   UNL     1       1.104   4.409  18.898  0.00  0.00    +0.000 HD
BRANCH  20  22
ATOM     22  C   UNL     1       1.456   2.734  20.192  0.00  0.00    +0.000 C 
BRANCH  22  23
ATOM     23  C   UNL     1       2.005   1.803  19.090  0.00  0.00    +0.000 C 
ATOM     24  F   UNL     1       1.345   2.120  17.923  0.00  0.00    +0.000 F 
BRANCH  23  25
ATOM     25  C   UNL     1       3.531   1.898  18.777  0.00  0.00    +0.000 C 
ATOM     26  C   UNL     1       3.855   2.833  17.605  0.00  0.00    +0.000 C 
ATOM     27  C   UNL     1       4.372   2.286  19.993  0.00  0.00    +0.000 C 
BRANCH  25  28
ATOM     28  O   UNL     1       3.994   0.588  18.387  0.00  0.00    +0.000 OA
ATOM     29  H   UNL     1       3.256   0.147  17.926  0.00  0.00    +0.000 HD
ENDBRANCH  25  28
ENDBRANCH  23  25
ENDBRANCH  22  23
ENDBRANCH  20  22
ENDBRANCH   6  18
BRANCH   1  30
ATOM     30  N   UNL     1       3.107   6.372  17.890  0.00  0.00    +0.000 N 
ATOM     31  H   UNL     1       2.771   5.450  17.613  0.00  0.00    +0.000 HD
BRANCH  30  32
ATOM     32  C   UNL     1       4.532   6.652  17.729  0.00  0.00    +0.000 C 
ATOM     33  C   UNL     1       5.339   5.785  18.691  0.00  0.00    +0.000 C 
BRANCH  32  35
ATOM     34  C   UNL     1       6.261   5.610  16.126  0.00  0.00    +0.000 C 
ATOM     35  C   UNL     1       4.979   6.416  16.269  0.00  0.00    +0.000 C 
ENDBRANCH  32  35
ENDBRANCH  30  32
ENDBRANCH   1  30
TORSDOF 10
ENDMDL
MODEL 3
REMARK VINA RESULT:      -7.9      1.635      2.217
REMARK  Name = 
REMARK  14 active torsions:
REMARK  status: ('A' for Active; 'I' for Inactive)
REMARK    1  A    between atoms: C_1  and  C_2
REMARK    2  A    between atoms: C_2  and  C_3
REMARK    3  A    between atoms: C_3  and  C_4
REMARK    4  A    between atoms: C_3  and  N_5
REMARK    5  A    between atoms: N_5  and  C_6
REMARK    6  A    between atoms: C_8  and  N_9
REMARK    7  A    between atoms: C_14  and  C_15
REMARK    8  A    between atoms: C_22  and  C_23
REMARK    9  A    between atoms: N_25  and  C_26
REMARK   10  A    between atoms: C_26  and  C_27
REMARK   11  A    between atoms: C_27  and  C_29
REMARK   12  A    between atoms: C_29  and  C_30
REMARK   13  A    between atoms: C_29  and  C_31
REMARK   14  A    between atoms: C_29  and  O_32
REMARK                            x       y       z     vdW  Elec       q    Type
REMARK                         _______ _______ _______ _____ _____    ______ ____
ROOT
ATOM      1  C   UNL     1       2.178   6.206  19.894  0.00  0.00    +0.000 A 
ATOM      2  C   UNL     1       1.627   7.141  20.802  0.00  0.00    +0.000 A 
ATOM      3  C   UNL     1       1.385   8.460  20.461  0.00  0.00    +0.000 A 
ATOM      4  N   UNL     1       1.696   8.909  19.219  0.00  0.00    +0.000 NA
ATOM      5  C   UNL     1       2.320   8.035  18.365  0.00  0.00    +0.000 A 
ATOM      6  C   UNL     1       2.592   6.691  18.642  0.00  0.00    +0.000 A 
ENDROOT
BRANCH   3   7
ATOM      7  N   UNL     1       0.988   9.387  21.494  0.00  0.00    +0.000 N 
ATOM      8  N   UNL     1       0.642   8.937  22.740  0.00  0.00    +0.000 NA
ATOM      9  C   UNL     1      -0.385   9.724  23.069  0.00  0.00    +0.000 A 
ATOM     10  C   UNL     1      -0.570  10.781  22.156  0.00  0.00    +0.000 A 
ATOM     11  C   UNL     1      -1.505  11.803  21.931  0.00  0.00    +0.000 A 
ATOM     12  C   UNL     1      -1.097  12.861  21.117  0.00  0.00    +0.000 A 
ATOM     13  C   UNL     1       0.168  12.808  20.544  0.00  0.00    +0.000 A 
ATOM     14  N   UNL     1       1.003  11.724  20.548  0.00  0.00    +0.000 NA
ATOM     15  C   UNL     1       0.567  10.731  21.356  0.00  0.00    +0.000 A 
BRANCH  12  16
ATOM     16  C   UNL     1      -1.966  13.982  20.876  0.00  0.00    +0.000 C 
ATOM     17  N   UNL     1      -2.661  14.879  20.680  0.00  0.00    +0.000 NA
ENDBRANCH  12  16
ENDBRANCH   3   7
BRANCH   6  18
ATOM     18  C   UNL     1       3.392   5.924  17.620  0.00  0.00    +0.000 C 
ATOM     19  O   UNL     1       3.061   4.788  17.314  0.00  0.00    +0.000 OA
ATOM     20  N   UNL     1       4.500   6.544  17.060  0.00  0.00    +0.000 N 
ATOM     21  H   UNL     1       4.851   7.379  17.511  0.00  0.00    +0.000 HD
BRANCH  20  22
ATOM     22  C   UNL     1       5.334   5.931  16.003  0.00  0.00    +0.000 C 
BRANCH  22  23
ATOM     23  C   UNL     1       6.195   4.749  16.500  0.00  0.00    +0.000 C 
ATOM     24  F   UNL     1       7.032   4.391  15.465  0.00  0.00    +0.000 F 
BRANCH  23  25
ATOM     25  C   UNL     1       7.106   5.008  17.740  0.00  0.00    +0.000 C 
ATOM     26  C   UNL     1       7.684   6.427  17.785  0.00  0.00    +0.000 C 
ATOM     27  C   UNL     1       6.421   4.689  19.068  0.00  0.00    +0.000 C 
BRANCH  25  28
ATOM     28  O   UNL     1       8.238   4.114  17.662  0.00  0.00    +0.000 OA
ATOM     29  H   UNL     1       8.694   4.301  16.821  0.00  0.00    +0.000 HD
ENDBRANCH  25  28
ENDBRANCH  23  25
ENDBRANCH  22  23
ENDBRANCH  20  22
ENDBRANCH   6  18
BRANCH   1  30
ATOM     30  N   UNL     1       2.314   4.883  20.321  0.00  0.00    +0.000 N 
ATOM     31  H   UNL     1       3.192   4.402  20.124  0.00  0.00    +0.000 HD
BRANCH  30  32
ATOM     32  C   UNL     1       1.120   4.065  20.519  0.00  0.00    +0.000 C 
ATOM     33  C   UNL     1       0.679   3.467  19.186  0.00  0.00    +0.000 C 
BRANCH  32  35
ATOM     34  C   UNL     1       2.819   2.464  21.612  0.00  0.00    +0.000 C 
ATOM     35  C   UNL     1       1.380   2.953  21.561  0.00  0.00    +0.000 C 
ENDBRANCH  32  35
ENDBRANCH  30  32
ENDBRANCH   1  30
TORSDOF 10
ENDMDL
MODEL 4
REMARK VINA RESULT:      -7.7      1.081      1.368
REMARK  Name = 
REMARK  14 active torsions:
REMARK  status: ('A' for Active; 'I' for Inactive)
REMARK    1  A    between atoms: C_1  and  C_2
REMARK    2  A    between atoms: C_2  and  C_3
REMARK    3  A    between atoms: C_3  and  C_4
REMARK    4  A    between atoms: C_3  and  N_5
REMARK    5  A    between atoms: N_5  and  C_6
REMARK    6  A    between atoms: C_8  and  N_9
REMARK    7  A    between atoms: C_14  and  C_15
REMARK    8  A    between atoms: C_22  and  C_23
REMARK    9  A    between atoms: N_25  and  C_26
REMARK   10  A    between atoms: C_26  and  C_27
REMARK   11  A    between atoms: C_27  and  C_29
REMARK   12  A    between atoms: C_29  and  C_30
REMARK   13  A    between atoms: C_29  and  C_31
REMARK   14  A    between atoms: C_29  and  O_32
REMARK                            x       y       z     vdW  Elec       q    Type
REMARK                         _______ _______ _______ _____ _____    ______ ____
ROOT
ATOM      1  C   UNL     1       2.260   6.640  20.214  0.00  0.00    +0.000 A 
ATOM      2  C   UNL     1       1.567   7.837  20.509  0.00  0.00    +0.000 A 
ATOM      3  C   UNL     1       1.463   8.881  19.606  0.00  0.00    +0.000 A 
ATOM      4  N   UNL     1       2.054   8.789  18.389  0.00  0.00    +0.000 NA
ATOM      5  C   UNL     1       2.809   7.673  18.131  0.00  0.00    +0.000 A 
ATOM      6  C   UNL     1       2.956   6.582  18.994  0.00  0.00    +0.000 A 
ENDROOT
BRANCH   3   7
ATOM      7  N   UNL     1       0.892  10.132  20.047  0.00  0.00    +0.000 N 
ATOM      8  N   UNL     1       1.141  10.606  21.309  0.00  0.00    +0.000 NA
ATOM      9  C   UNL     1      -0.035  11.122  21.672  0.00  0.00    +0.000 A 
ATOM     10  C   UNL     1      -0.959  11.164  20.608  0.00  0.00    +0.000 A 
ATOM     11  C   UNL     1      -2.314  11.479  20.426  0.00  0.00    +0.000 A 
ATOM     12  C   UNL     1      -2.730  11.733  19.118  0.00  0.00    +0.000 A 
ATOM     13  C   UNL     1      -1.805  11.604  18.090  0.00  0.00    +0.000 A 
ATOM     14  N   UNL     1      -0.550  11.070  18.206  0.00  0.00    +0.000 NA
ATOM     15  C   UNL     1      -0.192  10.850  19.491  0.00  0.00    +0.000 A 
BRANCH  12  16
ATOM     16  C   UNL     1      -4.088  12.120  18.839  0.00  0.00    +0.000 C 
ATOM     17  N   UNL     1      -5.174  12.431  18.613  0.00  0.00    +0.000 NA
ENDBRANCH  12  16
ENDBRANCH   3   7
BRANCH   6  18
ATOM     18  C   UNL     1       3.925   5.502  18.583  0.00  0.00    +0.000 C 
ATOM     19  O   UNL     1       4.816   5.159  19.345  0.00  0.00    +0.000 OA
ATOM     20  N   UNL     1       3.770   4.930  17.327  0.00  0.00    +0.000 N 
ATOM     21  H   UNL     1       3.170   5.404  16.665  0.00  0.00    +0.000 HD
BRANCH  20  22
ATOM     22  C   UNL     1       4.609   3.820  16.824  0.00  0.00    +0.000 C 
BRANCH  22  23
ATOM     23  C   UNL     1       5.620   4.250  15.739  0.00  0.00    +0.000 C 
ATOM     24  F   UNL     1       4.923   4.979  14.800  0.00  0.00    +0.000 F 
BRANCH  23  25
ATOM     25  C   UNL     1       6.816   5.140  16.196  0.00  0.00    +0.000 C 
ATOM     26  C   UNL     1       6.410   6.581  16.529  0.00  0.00    +0.000 C 
ATOM     27  C   UNL     1       7.599   4.544  17.366  0.00  0.00    +0.000 C 
BRANCH  25  28
ATOM     28  O   UNL     1       7.756   5.229  15.104  0.00  0.00    +0.000 OA
ATOM     29  H   UNL     1       8.632   4.986  15.459  0.00  0.00    +0.000 HD
ENDBRANCH  25  28
ENDBRANCH  23  25
ENDBRANCH  22  23
ENDBRANCH  20  22
ENDBRANCH   6  18
BRANCH   1  30
ATOM     30  N   UNL     1       2.243   5.622  21.170  0.00  0.00    +0.000 N 
ATOM     31  H   UNL     1       2.682   5.803  22.073  0.00  0.00    +0.000 HD
BRANCH  30  32
ATOM     32  C   UNL     1       2.125   4.231  20.738  0.00  0.00    +0.000 C 
ATOM     33  C   UNL     1       2.280   3.304  21.940  0.00  0.00    +0.000 C 
BRANCH  32  35
ATOM     34  C   UNL     1       0.836   2.973  18.894  0.00  0.00    +0.000 C 
ATOM     35  C   UNL     1       0.775   3.988  20.026  0.00  0.00    +0.000 C 
ENDBRANCH  32  35
ENDBRANCH  30  32
ENDBRANCH   1  30
TORSDOF 10
ENDMDL
MODEL 5
REMARK VINA RESULT:      -7.5      2.239      2.756
REMARK  Name = 
REMARK  14 active torsions:
REMARK  status: ('A' for Active; 'I' for Inactive)
REMARK    1  A    between atoms: C_1  and  C_2
REMARK    2  A    between atoms: C_2  and  C_3
REMARK    3  A    between atoms: C_3  and  C_4
REMARK    4  A    between atoms: C_3  and  N_5
REMARK    5  A    between atoms: N_5  and  C_6
REMARK    6  A    between atoms: C_8  and  N_9
REMARK    7  A    between atoms: C_14  and  C_15
REMARK    8  A    between atoms: C_22  and  C_23
REMARK    9  A    between atoms: N_25  and  C_26
REMARK   10  A    between atoms: C_26  and  C_27
REMARK   11  A    between atoms: C_27  and  C_29
REMARK   12  A    between atoms: C_29  and  C_30
REMARK   13  A    between atoms: C_29  and  C_31
REMARK   14  A    between atoms: C_29  and  O_32
REMARK                            x       y       z     vdW  Elec       q    Type
REMARK                         _______ _______ _______ _____ _____    ______ ____
ROOT
ATOM      1  C   UNL     1       3.473   5.429  18.659  0.00  0.00    +0.000 A 
ATOM      2  C   UNL     1       2.647   6.328  19.374  0.00  0.00    +0.000 A 
ATOM      3  C   UNL     1       2.487   7.651  19.002  0.00  0.00    +0.000 A 
ATOM      4  N   UNL     1       3.149   8.139  17.924  0.00  0.00    +0.000 NA
ATOM      5  C   UNL     1       4.027   7.301  17.283  0.00  0.00    +0.000 A 
ATOM      6  C   UNL     1       4.236   5.955  17.603  0.00  0.00    +0.000 A 
ENDROOT
BRANCH   3   7
ATOM      7  N   UNL     1       1.770   8.543  19.883  0.00  0.00    +0.000 N 
ATOM      8  N   UNL     1       1.611   8.235  21.208  0.00  0.00    +0.000 NA
ATOM      9  C   UNL     1       0.365   8.639  21.462  0.00  0.00    +0.000 A 
ATOM     10  C   UNL     1      -0.196   9.367  20.394  0.00  0.00    +0.000 A 
ATOM     11  C   UNL     1      -1.443   9.917  20.057  0.00  0.00    +0.000 A 
ATOM     12  C   UNL     1      -1.453  10.881  19.048  0.00  0.00    +0.000 A 
ATOM     13  C   UNL     1      -0.257  11.189  18.412  0.00  0.00    +0.000 A 
ATOM     14  N   UNL     1       0.921  10.506  18.549  0.00  0.00    +0.000 NA
ATOM     15  C   UNL     1       0.882   9.589  19.543  0.00  0.00    +0.000 A 
BRANCH  12  16
ATOM     16  C   UNL     1      -2.675  11.542  18.674  0.00  0.00    +0.000 C 
ATOM     17  N   UNL     1      -3.652  12.074  18.375  0.00  0.00    +0.000 NA
ENDBRANCH  12  16
ENDBRANCH   3   7
BRANCH   6  18
ATOM     18  C   UNL     1       5.329   5.231  16.859  0.00  0.00    +0.000 C 
ATOM     19  O   UNL     1       5.993   4.378  17.430  0.00  0.00    +0.000 OA
ATOM     20  N   UNL     1       5.551   5.569  15.531  0.00  0.00    +0.000 N 
ATOM     21  H   UNL     1       5.133   6.424  15.188  0.00  0.00    +0.000 HD
BRANCH  20  22
ATOM     22  C   UNL     1       6.546   4.895  14.670  0.00  0.00    +0.000 C 
BRANCH  22  23
ATOM     23  C   UNL     1       5.995   3.647  13.946  0.00  0.00    +0.000 C 
ATOM     24  F   UNL     1       4.637   3.608  14.177  0.00  0.00    +0.000 F 
BRANCH  23  25
ATOM     25  C   UNL     1       6.185   3.583  12.399  0.00  0.00    +0.000 C 
ATOM     26  C   UNL     1       4.865   3.657  11.620  0.00  0.00    +0.000 C 
ATOM     27  C   UNL     1       7.156   4.637  11.866  0.00  0.00    +0.000 C 
BRANCH  25  28
ATOM     28  O   UNL     1       6.776   2.308  12.069  0.00  0.00    +0.000 OA
ATOM     29  H   UNL     1       7.503   2.482  11.442  0.00  0.00    +0.000 HD
ENDBRANCH  25  28
ENDBRANCH  23  25
ENDBRANCH  22  23
ENDBRANCH  20  22
ENDBRANCH   6  18
BRANCH   1  30
ATOM     30  N   UNL     1       3.507   4.097  19.080  0.00  0.00    +0.000 N 
ATOM     31  H   UNL     1       4.293   3.795  19.655  0.00  0.00    +0.000 HD
BRANCH  30  32
ATOM     32  C   UNL     1       2.801   3.080  18.305  0.00  0.00    +0.000 C 
ATOM     33  C   UNL     1       3.442   1.715  18.541  0.00  0.00    +0.000 C 
BRANCH  32  35
ATOM     34  C   UNL     1       1.016   2.975  20.162  0.00  0.00    +0.000 C 
ATOM     35  C   UNL     1       1.299   3.053  18.670  0.00  0.00    +0.000 C 
ENDBRANCH  32  35
ENDBRANCH  30  32
ENDBRANCH   1  30
TORSDOF 10
ENDMDL
MODEL 6
REMARK VINA RESULT:      -7.5      1.810      2.147
REMARK  Name = 
REMARK  14 active torsions:
REMARK  status: ('A' for Active; 'I' for Inactive)
REMARK    1  A    between atoms: C_1  and  C_2
REMARK    2  A    between atoms: C_2  and  C_3
REMARK    3  A    between atoms: C_3  and  C_4
REMARK    4  A    between atoms: C_3  and  N_5
REMARK    5  A    between atoms: N_5  and  C_6
REMARK    6  A    between atoms: C_8  and  N_9
REMARK    7  A    between atoms: C_14  and  C_15
REMARK    8  A    between atoms: C_22  and  C_23
REMARK    9  A    between atoms: N_25  and  C_26
REMARK   10  A    between atoms: C_26  and  C_27
REMARK   11  A    between atoms: C_27  and  C_29
REMARK   12  A    between atoms: C_29  and  C_30
REMARK   13  A    between atoms: C_29  and  C_31
REMARK   14  A    between atoms: C_29  and  O_32
REMARK                            x       y       z     vdW  Elec       q    Type
REMARK                         _______ _______ _______ _____ _____    ______ ____
ROOT
ATOM      1  C   UNL     1       2.292   6.725  20.197  0.00  0.00    +0.000 A 
ATOM      2  C   UNL     1       1.661   7.609  21.104  0.00  0.00    +0.000 A 
ATOM      3  C   UNL     1       1.123   8.823  20.712  0.00  0.00    +0.000 A 
ATOM      4  N   UNL     1       1.206   9.216  19.417  0.00  0.00    +0.000 NA
ATOM      5  C   UNL     1       1.902   8.411  18.551  0.00  0.00    +0.000 A 
ATOM      6  C   UNL     1       2.467   7.173  18.877  0.00  0.00    +0.000 A 
ENDROOT
BRANCH   3   7
ATOM      7  N   UNL     1       0.656   9.739  21.725  0.00  0.00    +0.000 N 
ATOM      8  N   UNL     1       0.016   9.276  22.844  0.00  0.00    +0.000 NA
ATOM      9  C   UNL     1      -0.943  10.183  23.038  0.00  0.00    +0.000 A 
ATOM     10  C   UNL     1      -0.805  11.305  22.196  0.00  0.00    +0.000 A 
ATOM     11  C   UNL     1      -1.535  12.463  21.884  0.00  0.00    +0.000 A 
ATOM     12  C   UNL     1      -0.839  13.494  21.251  0.00  0.00    +0.000 A 
ATOM     13  C   UNL     1       0.495  13.290  20.922  0.00  0.00    +0.000 A 
ATOM     14  N   UNL     1       1.164  12.098  20.994  0.00  0.00    +0.000 NA
ATOM     15  C   UNL     1       0.451  11.135  21.622  0.00  0.00    +0.000 A 
BRANCH  12  16
ATOM     16  C   UNL     1      -1.488  14.740  20.944  0.00  0.00    +0.000 C 
ATOM     17  N   UNL     1      -2.011  15.737  20.699  0.00  0.00    +0.000 NA
ENDBRANCH  12  16
ENDBRANCH   3   7
BRANCH   6  18
ATOM     18  C   UNL     1       3.296   6.492  17.818  0.00  0.00    +0.000 C 
ATOM     19  O   UNL     1       3.025   5.352  17.471  0.00  0.00    +0.000 OA
ATOM     20  N   UNL     1       4.360   7.194  17.269  0.00  0.00    +0.000 N 
ATOM     21  H   UNL     1       4.670   8.030  17.749  0.00  0.00    +0.000 HD
BRANCH  20  22
ATOM     22  C   UNL     1       5.213   6.670  16.181  0.00  0.00    +0.000 C 
BRANCH  22  23
ATOM     23  C   UNL     1       6.575   6.128  16.666  0.00  0.00    +0.000 C 
ATOM     24  F   UNL     1       6.935   6.863  17.775  0.00  0.00    +0.000 F 
BRANCH  23  25
ATOM     25  C   UNL     1       6.631   4.628  17.090  0.00  0.00    +0.000 C 
ATOM     26  C   UNL     1       6.184   4.388  18.537  0.00  0.00    +0.000 C 
ATOM     27  C   UNL     1       5.851   3.707  16.151  0.00  0.00    +0.000 C 
BRANCH  25  28
ATOM     28  O   UNL     1       8.004   4.188  17.014  0.00  0.00    +0.000 OA
ATOM     29  H   UNL     1       8.377   4.552  16.190  0.00  0.00    +0.000 HD
ENDBRANCH  25  28
ENDBRANCH  23  25
ENDBRANCH  22  23
ENDBRANCH  20  22
ENDBRANCH   6  18
BRANCH   1  30
ATOM     30  N   UNL     1       2.736   5.495  20.686  0.00  0.00    +0.000 N 
ATOM     31  H   UNL     1       3.563   5.484  21.282  0.00  0.00    +0.000 HD
BRANCH  30  32
ATOM     32  C   UNL     1       2.406   4.271  19.959  0.00  0.00    +0.000 C 
ATOM     33  C   UNL     1       3.279   3.123  20.460  0.00  0.00    +0.000 C 
BRANCH  32  35
ATOM     34  C   UNL     1       0.419   2.819  19.188  0.00  0.00    +0.000 C 
ATOM     35  C   UNL     1       0.907   3.927  20.110  0.00  0.00    +0.000 C 
ENDBRANCH  32  35
ENDBRANCH  30  32
ENDBRANCH   1  30
TORSDOF 10
ENDMDL
MODEL 7
REMARK VINA RESULT:      -7.5      4.957     10.214
REMARK  Name = 
REMARK  14 active torsions:
REMARK  status: ('A' for Active; 'I' for Inactive)
REMARK    1  A    between atoms: C_1  and  C_2
REMARK    2  A    between atoms: C_2  and  C_3
REMARK    3  A    between atoms: C_3  and  C_4
REMARK    4  A    between atoms: C_3  and  N_5
REMARK    5  A    between atoms: N_5  and  C_6
REMARK    6  A    between atoms: C_8  and  N_9
REMARK    7  A    between atoms: C_14  and  C_15
REMARK    8  A    between atoms: C_22  and  C_23
REMARK    9  A    between atoms: N_25  and  C_26
REMARK   10  A    between atoms: C_26  and  C_27
REMARK   11  A    between atoms: C_27  and  C_29
REMARK   12  A    between atoms: C_29  and  C_30
REMARK   13  A    between atoms: C_29  and  C_31
REMARK   14  A    between atoms: C_29  and  O_32
REMARK                            x       y       z     vdW  Elec       q    Type
REMARK                         _______ _______ _______ _____ _____    ______ ____
ROOT
ATOM      1  C   UNL     1      -0.992  10.949  18.505  0.00  0.00    +0.000 A 
ATOM      2  C   UNL     1      -0.005   9.950  18.329  0.00  0.00    +0.000 A 
ATOM      3  C   UNL     1       0.794   9.500  19.365  0.00  0.00    +0.000 A 
ATOM      4  N   UNL     1       0.663  10.032  20.606  0.00  0.00    +0.000 NA
ATOM      5  C   UNL     1      -0.222  11.069  20.763  0.00  0.00    +0.000 A 
ATOM      6  C   UNL     1      -1.062  11.571  19.763  0.00  0.00    +0.000 A 
ENDROOT
BRANCH   3   7
ATOM      7  N   UNL     1       1.890   8.609  19.066  0.00  0.00    +0.000 N 
ATOM      8  N   UNL     1       2.756   8.888  18.041  0.00  0.00    +0.000 NA
ATOM      9  C   UNL     1       2.980   7.686  17.504  0.00  0.00    +0.000 A 
ATOM     10  C   UNL     1       2.441   6.639  18.277  0.00  0.00    +0.000 A 
ATOM     11  C   UNL     1       2.273   5.250  18.166  0.00  0.00    +0.000 A 
ATOM     12  C   UNL     1       2.009   4.552  19.345  0.00  0.00    +0.000 A 
ATOM     13  C   UNL     1       1.872   5.271  20.526  0.00  0.00    +0.000 A 
ATOM     14  N   UNL     1       1.792   6.633  20.628  0.00  0.00    +0.000 NA
ATOM     15  C   UNL     1       2.064   7.263  19.462  0.00  0.00    +0.000 A 
BRANCH  12  16
ATOM     16  C   UNL     1       1.878   3.119  19.339  0.00  0.00    +0.000 C 
ATOM     17  N   UNL     1       1.774   1.972  19.331  0.00  0.00    +0.000 NA
ENDBRANCH  12  16
ENDBRANCH   3   7
BRANCH   6  18
ATOM     18  C   UNL     1      -1.879  12.793  20.097  0.00  0.00    +0.000 C 
ATOM     19  O   UNL     1      -1.422  13.908  19.892  0.00  0.00    +0.000 OA
ATOM     20  N   UNL     1      -3.142  12.605  20.641  0.00  0.00    +0.000 N 
ATOM     21  H   UNL     1      -3.370  11.684  20.993  0.00  0.00    +0.000 HD
BRANCH  20  22
ATOM     22  C   UNL     1      -4.072  13.711  20.956  0.00  0.00    +0.000 C 
BRANCH  22  23
ATOM     23  C   UNL     1      -3.965  14.216  22.411  0.00  0.00    +0.000 C 
ATOM     24  F   UNL     1      -4.230  15.568  22.394  0.00  0.00    +0.000 F 
BRANCH  23  25
ATOM     25  C   UNL     1      -4.938  13.585  23.454  0.00  0.00    +0.000 C 
ATOM     26  C   UNL     1      -6.183  12.954  22.820  0.00  0.00    +0.000 C 
ATOM     27  C   UNL     1      -4.260  12.571  24.376  0.00  0.00    +0.000 C 
BRANCH  25  28
ATOM     28  O   UNL     1      -5.416  14.637  24.320  0.00  0.00    +0.000 OA
ATOM     29  H   UNL     1      -5.423  15.459  23.796  0.00  0.00    +0.000 HD
ENDBRANCH  25  28
ENDBRANCH  23  25
ENDBRANCH  22  23
ENDBRANCH  20  22
ENDBRANCH   6  18
BRANCH   1  30
ATOM     30  N   UNL     1      -1.791  11.278  17.408  0.00  0.00    +0.000 N 
ATOM     31  H   UNL     1      -1.715  12.219  17.022  0.00  0.00    +0.000 HD
BRANCH  30  32
ATOM     32  C   UNL     1      -3.037  10.549  17.182  0.00  0.00    +0.000 C 
ATOM     33  C   UNL     1      -4.183  11.538  16.982  0.00  0.00    +0.000 C 
BRANCH  32  35
ATOM     34  C   UNL     1      -3.040  10.291  14.617  0.00  0.00    +0.000 C 
ATOM     35  C   UNL     1      -2.910   9.603  15.967  0.00  0.00    +0.000 C 
ENDBRANCH  32  35
ENDBRANCH  30  32
ENDBRANCH   1  30
TORSDOF 10
ENDMDL
MODEL 8
REMARK VINA RESULT:      -7.5      2.130      2.891
REMARK  Name = 
REMARK  14 active torsions:
REMARK  status: ('A' for Active; 'I' for Inactive)
REMARK    1  A    between atoms: C_1  and  C_2
REMARK    2  A    between atoms: C_2  and  C_3
REMARK    3  A    between atoms: C_3  and  C_4
REMARK    4  A    between atoms: C_3  and  N_5
REMARK    5  A    between atoms: N_5  and  C_6
REMARK    6  A    between atoms: C_8  and  N_9
REMARK    7  A    between atoms: C_14  and  C_15
REMARK    8  A    between atoms: C_22  and  C_23
REMARK    9  A    between atoms: N_25  and  C_26
REMARK   10  A    between atoms: C_26  and  C_27
REMARK   11  A    between atoms: C_27  and  C_29
REMARK   12  A    between atoms: C_29  and  C_30
REMARK   13  A    between atoms: C_29  and  C_31
REMARK   14  A    between atoms: C_29  and  O_32
REMARK                            x       y       z     vdW  Elec       q    Type
REMARK                         _______ _______ _______ _____ _____    ______ ____
ROOT
ATOM      1  C   UNL     1       2.160   6.758  20.049  0.00  0.00    +0.000 A 
ATOM      2  C   UNL     1       1.318   7.882  20.227  0.00  0.00    +0.000 A 
ATOM      3  C   UNL     1       1.206   8.888  19.284  0.00  0.00    +0.000 A 
ATOM      4  N   UNL     1       1.933   8.831  18.140  0.00  0.00    +0.000 NA
ATOM      5  C   UNL     1       2.823   7.797  18.003  0.00  0.00    +0.000 A 
ATOM      6  C   UNL     1       2.987   6.747  18.913  0.00  0.00    +0.000 A 
ENDROOT
BRANCH   3   7
ATOM      7  N   UNL     1       0.464  10.080  19.618  0.00  0.00    +0.000 N 
ATOM      8  N   UNL     1      -0.904  10.097  19.536  0.00  0.00    +0.000 NA
ATOM      9  C   UNL     1      -1.159  11.313  19.050  0.00  0.00    +0.000 A 
ATOM     10  C   UNL     1      -0.013  12.131  19.009  0.00  0.00    +0.000 A 
ATOM     11  C   UNL     1       0.338  13.399  18.519  0.00  0.00    +0.000 A 
ATOM     12  C   UNL     1       1.508  13.967  19.026  0.00  0.00    +0.000 A 
ATOM     13  C   UNL     1       2.269  13.230  19.924  0.00  0.00    +0.000 A 
ATOM     14  N   UNL     1       2.085  11.909  20.234  0.00  0.00    +0.000 NA
ATOM     15  C   UNL     1       0.935  11.409  19.727  0.00  0.00    +0.000 A 
BRANCH  12  16
ATOM     16  C   UNL     1       1.918  15.287  18.627  0.00  0.00    +0.000 C 
ATOM     17  N   UNL     1       2.245  16.345  18.309  0.00  0.00    +0.000 NA
ENDBRANCH  12  16
ENDBRANCH   3   7
BRANCH   6  18
ATOM     18  C   UNL     1       4.101   5.767  18.644  0.00  0.00    +0.000 C 
ATOM     19  O   UNL     1       5.090   5.756  19.363  0.00  0.00    +0.000 OA
ATOM     20  N   UNL     1       3.965   4.902  17.568  0.00  0.00    +0.000 N 
ATOM     21  H   UNL     1       3.245   5.108  16.887  0.00  0.00    +0.000 HD
BRANCH  20  22
ATOM     22  C   UNL     1       4.950   3.852  17.231  0.00  0.00    +0.000 C 
BRANCH  22  23
ATOM     23  C   UNL     1       5.551   3.998  15.815  0.00  0.00    +0.000 C 
ATOM     24  F   UNL     1       4.499   4.018  14.926  0.00  0.00    +0.000 F 
BRANCH  23  25
ATOM     25  C   UNL     1       6.398   5.277  15.533  0.00  0.00    +0.000 C 
ATOM     26  C   UNL     1       7.299   5.682  16.706  0.00  0.00    +0.000 C 
ATOM     27  C   UNL     1       7.231   5.178  14.255  0.00  0.00    +0.000 C 
BRANCH  25  28
ATOM     28  O   UNL     1       5.492   6.380  15.321  0.00  0.00    +0.000 OA
ATOM     29  H   UNL     1       5.627   7.008  16.055  0.00  0.00    +0.000 HD
ENDBRANCH  25  28
ENDBRANCH  23  25
ENDBRANCH  22  23
ENDBRANCH  20  22
ENDBRANCH   6  18
BRANCH   1  30
ATOM     30  N   UNL     1       2.144   5.767  21.032  0.00  0.00    +0.000 N 
ATOM     31  H   UNL     1       2.522   5.995  21.952  0.00  0.00    +0.000 HD
BRANCH  30  32
ATOM     32  C   UNL     1       2.124   4.361  20.636  0.00  0.00    +0.000 C 
ATOM     33  C   UNL     1       2.284   3.476  21.869  0.00  0.00    +0.000 C 
BRANCH  32  35
ATOM     34  C   UNL     1       0.975   2.948  18.812  0.00  0.00    +0.000 C 
ATOM     35  C   UNL     1       0.820   4.020  19.880  0.00  0.00    +0.000 C 
ENDBRANCH  32  35
ENDBRANCH  30  32
ENDBRANCH   1  30
TORSDOF 10
ENDMDL
MODEL 9
REMARK VINA RESULT:      -7.4      4.762     10.059
REMARK  Name = 
REMARK  14 active torsions:
REMARK  status: ('A' for Active; 'I' for Inactive)
REMARK    1  A    between atoms: C_1  and  C_2
REMARK    2  A    between atoms: C_2  and  C_3
REMARK    3  A    between atoms: C_3  and  C_4
REMARK    4  A    between atoms: C_3  and  N_5
REMARK    5  A    between atoms: N_5  and  C_6
REMARK    6  A    between atoms: C_8  and  N_9
REMARK    7  A    between atoms: C_14  and  C_15
REMARK    8  A    between atoms: C_22  and  C_23
REMARK    9  A    between atoms: N_25  and  C_26
REMARK   10  A    between atoms: C_26  and  C_27
REMARK   11  A    between atoms: C_27  and  C_29
REMARK   12  A    between atoms: C_29  and  C_30
REMARK   13  A    between atoms: C_29  and  C_31
REMARK   14  A    between atoms: C_29  and  O_32
REMARK                            x       y       z     vdW  Elec       q    Type
REMARK                         _______ _______ _______ _____ _____    ______ ____
ROOT
ATOM      1  C   UNL     1      -1.189  10.974  19.004  0.00  0.00    +0.000 A 
ATOM      2  C   UNL     1      -0.196  10.010  18.709  0.00  0.00    +0.000 A 
ATOM      3  C   UNL     1       0.709   9.558  19.653  0.00  0.00    +0.000 A 
ATOM      4  N   UNL     1       0.681  10.053  20.915  0.00  0.00    +0.000 NA
ATOM      5  C   UNL     1      -0.214  11.058  21.184  0.00  0.00    +0.000 A 
ATOM      6  C   UNL     1      -1.157  11.561  20.281  0.00  0.00    +0.000 A 
ENDROOT
BRANCH   3   7
ATOM      7  N   UNL     1       1.796   8.708  19.227  0.00  0.00    +0.000 N 
ATOM      8  N   UNL     1       2.577   9.058  18.157  0.00  0.00    +0.000 NA
ATOM      9  C   UNL     1       2.783   7.891  17.543  0.00  0.00    +0.000 A 
ATOM     10  C   UNL     1       2.323   6.793  18.297  0.00  0.00    +0.000 A 
ATOM     11  C   UNL     1       2.173   5.408  18.126  0.00  0.00    +0.000 A 
ATOM     12  C   UNL     1       2.011   4.646  19.284  0.00  0.00    +0.000 A 
ATOM     13  C   UNL     1       1.950   5.301  20.507  0.00  0.00    +0.000 A 
ATOM     14  N   UNL     1       1.852   6.654  20.686  0.00  0.00    +0.000 NA
ATOM     15  C   UNL     1       2.024   7.347  19.538  0.00  0.00    +0.000 A 
BRANCH  12  16
ATOM     16  C   UNL     1       1.908   3.212  19.212  0.00  0.00    +0.000 C 
ATOM     17  N   UNL     1       1.826   2.065  19.158  0.00  0.00    +0.000 NA
ENDBRANCH  12  16
ENDBRANCH   3   7
BRANCH   6  18
ATOM     18  C   UNL     1      -1.973  12.749  20.725  0.00  0.00    +0.000 C 
ATOM     19  O   UNL     1      -1.550  13.881  20.544  0.00  0.00    +0.000 OA
ATOM     20  N   UNL     1      -3.194  12.509  21.341  0.00  0.00    +0.000 N 
ATOM     21  H   UNL     1      -3.381  11.569  21.663  0.00  0.00    +0.000 HD
BRANCH  20  22
ATOM     22  C   UNL     1      -4.120  13.580  21.767  0.00  0.00    +0.000 C 
BRANCH  22  23
ATOM     23  C   UNL     1      -5.408  13.660  20.920  0.00  0.00    +0.000 C 
ATOM     24  F   UNL     1      -5.048  13.432  19.609  0.00  0.00    +0.000 F 
BRANCH  23  25
ATOM     25  C   UNL     1      -6.541  12.640  21.253  0.00  0.00    +0.000 C 
ATOM     26  C   UNL     1      -7.915  13.296  21.436  0.00  0.00    +0.000 C 
ATOM     27  C   UNL     1      -6.645  11.501  20.239  0.00  0.00    +0.000 C 
BRANCH  25  28
ATOM     28  O   UNL     1      -6.224  12.011  22.513  0.00  0.00    +0.000 OA
ATOM     29  H   UNL     1      -5.551  11.328  22.332  0.00  0.00    +0.000 HD
ENDBRANCH  25  28
ENDBRANCH  23  25
ENDBRANCH  22  23
ENDBRANCH  20  22
ENDBRANCH   6  18
BRANCH   1  30
ATOM     30  N   UNL     1      -2.096  11.308  17.997  0.00  0.00    +0.000 N 
ATOM     31  H   UNL     1      -2.757  12.065  18.175  0.00  0.00    +0.000 HD
BRANCH  30  32
ATOM     32  C   UNL     1      -2.465  10.306  17.000  0.00  0.00    +0.000 C 
ATOM     33  C   UNL     1      -3.668   9.507  17.493  0.00  0.00    +0.000 C 
BRANCH  32  35
ATOM     34  C   UNL     1      -3.230  10.002  14.557  0.00  0.00    +0.000 C 
ATOM     35  C   UNL     1      -2.766  10.968  15.637  0.00  0.00    +0.000 C 
ENDBRANCH  32  35
ENDBRANCH  30  32
ENDBRANCH   1  30
TORSDOF 10
ENDMDL
