MODEL 1
REMARK VINA RESULT:      -8.6      0.000      0.000
REMARK  Name = 
REMARK  4 active torsions:
REMARK  status: ('A' for Active; 'I' for Inactive)
REMARK    1  A    between atoms: N_3  and  C_4
REMARK    2  A    between atoms: C_7  and  O_8
REMARK    3  A    between atoms: O_8  and  C_9
REMARK    4  A    between atoms: N_16  and  C_17
REMARK                            x       y       z     vdW  Elec       q    Type
REMARK                         _______ _______ _______ _____ _____    ______ ____
ROOT
ATOM      1  O   UNL     1       7.658   9.164  17.070  0.00  0.00    +0.000 OA
ATOM      2  C   UNL     1       8.137   8.513  17.986  0.00  0.00    +0.000 C 
ATOM      3  N   UNL     1       8.836   9.000  19.075  0.00  0.00    +0.000 N 
ATOM      4  N   UNL     1       8.026   7.151  18.070  0.00  0.00    +0.000 N 
ATOM      5  H   UNL     1       9.067   8.325  19.787  0.00  0.00    +0.000 HD
ATOM      6  H   UNL     1       8.468   6.691  18.852  0.00  0.00    +0.000 HD
ENDROOT
BRANCH   4   7
ATOM      7  C   UNL     1       7.246   6.342  17.144  0.00  0.00    +0.000 C 
ATOM      8  C   UNL     1       5.787   6.670  17.340  0.00  0.00    +0.000 C 
ATOM      9  C   UNL     1       5.270   6.129  18.655  0.00  0.00    +0.000 C 
ATOM     10  N   UNL     1       5.536   4.718  18.881  0.00  0.00    +0.000 N 
ATOM     11  C   UNL     1       4.643   3.731  19.294  0.00  0.00    +0.000 C 
ATOM     12  O   UNL     1       4.997   2.553  19.328  0.00  0.00    +0.000 OA
ATOM     13  N   UNL     1       3.346   4.062  19.671  0.00  0.00    +0.000 N 
ATOM     14  C   UNL     1       2.719   5.378  19.740  0.00  0.00    +0.000 C 
ATOM     15  C   UNL     1       1.592   5.526  20.747  0.00  0.00    +0.000 C 
ATOM     16  O   UNL     1       0.663   4.455  20.671  0.00  0.00    +0.000 OA
ATOM     17  C   UNL     1       1.349   3.209  20.857  0.00  0.00    +0.000 C 
ATOM     18  C   UNL     1       2.361   2.970  19.733  0.00  0.00    +0.000 C 
ATOM     19  C   UNL     1       6.948   4.345  18.674  0.00  0.00    +0.000 C 
ATOM     20  C   UNL     1       7.430   4.827  17.304  0.00  0.00    +0.000 C 
ENDBRANCH   4   7
BRANCH   3  21
ATOM     21  C   UNL     1       9.209  10.333  19.334  0.00  0.00    +0.000 A 
ATOM     22  C   UNL     1       9.249  10.892  20.605  0.00  0.00    +0.000 A 
ATOM     23  C   UNL     1       9.559  12.257  20.762  0.00  0.00    +0.000 A 
ATOM     24  C   UNL     1       9.812  13.062  19.646  0.00  0.00    +0.000 A 
ATOM     25  C   UNL     1       9.857  12.464  18.393  0.00  0.00    +0.000 A 
ATOM     26  F   UNL     1      10.247  13.159  17.313  0.00  0.00    +0.000 F 
ATOM     27  C   UNL     1       9.529  11.122  18.224  0.00  0.00    +0.000 A 
BRANCH  24  28
ATOM     28  O   UNL     1      10.045  14.370  19.930  0.00  0.00    +0.000 OA
BRANCH  28  29
ATOM     29  C   UNL     1      11.383  14.858  19.887  0.00  0.00    +0.000 C 
ATOM     30  F   UNL     1      12.331  13.901  19.956  0.00  0.00    +0.000 F 
ATOM     31  F   UNL     1      11.557  15.505  18.710  0.00  0.00    +0.000 F 
ATOM     32  F   UNL     1      11.568  15.751  20.882  0.00  0.00    +0.000 F 
ENDBRANCH  28  29
ENDBRANCH  24  28
ENDBRANCH   3  21
TORSDOF 4
ENDMDL
MODEL 2
REMARK VINA RESULT:      -8.5      5.090     10.812
REMARK  Name = 
REMARK  4 active torsions:
REMARK  status: ('A' for Active; 'I' for Inactive)
REMARK    1  A    between atoms: N_3  and  C_4
REMARK    2  A    between atoms: C_7  and  O_8
REMARK    3  A    between atoms: O_8  and  C_9
REMARK    4  A    between atoms: N_16  and  C_17
REMARK                            x       y       z     vdW  Elec       q    Type
REMARK                         _______ _______ _______ _____ _____    ______ ____
ROOT
ATOM      1  O   UNL     1       8.815   8.122  19.191  0.00  0.00    +0.000 OA
ATOM      2  C   UNL     1       8.398   8.833  18.290  0.00  0.00    +0.000 C 
ATOM      3  N   UNL     1       7.405   8.523  17.379  0.00  0.00    +0.000 N 
ATOM      4  N   UNL     1       8.867  10.099  18.060  0.00  0.00    +0.000 N 
ATOM      5  H   UNL     1       7.118   9.273  16.768  0.00  0.00    +0.000 HD
ATOM      6  H   UNL     1       8.479  10.610  17.282  0.00  0.00    +0.000 HD
ENDROOT
BRANCH   4   7
ATOM      7  C   UNL     1       9.832  10.774  18.917  0.00  0.00    +0.000 C 
ATOM      8  C   UNL     1       9.128  11.904  19.625  0.00  0.00    +0.000 C 
ATOM      9  C   UNL     1       8.795  13.032  18.672  0.00  0.00    +0.000 C 
ATOM     10  N   UNL     1       9.915  13.512  17.879  0.00  0.00    +0.000 N 
ATOM     11  C   UNL     1      10.324  14.829  17.680  0.00  0.00    +0.000 C 
ATOM     12  O   UNL     1      11.366  15.066  17.072  0.00  0.00    +0.000 OA
ATOM     13  N   UNL     1       9.563  15.888  18.163  0.00  0.00    +0.000 N 
ATOM     14  C   UNL     1       8.291  15.852  18.878  0.00  0.00    +0.000 C 
ATOM     15  C   UNL     1       7.402  17.072  18.715  0.00  0.00    +0.000 C 
ATOM     16  O   UNL     1       8.121  18.284  18.891  0.00  0.00    +0.000 OA
ATOM     17  C   UNL     1       9.219  18.330  17.969  0.00  0.00    +0.000 C 
ATOM     18  C   UNL     1      10.216  17.204  18.251  0.00  0.00    +0.000 C 
ATOM     19  C   UNL     1      10.650  12.435  17.189  0.00  0.00    +0.000 C 
ATOM     20  C   UNL     1      11.053  11.345  18.183  0.00  0.00    +0.000 C 
ENDBRANCH   4   7
BRANCH   3  21
ATOM     21  C   UNL     1       6.710   7.307  17.241  0.00  0.00    +0.000 A 
ATOM     22  C   UNL     1       7.321   6.092  16.961  0.00  0.00    +0.000 A 
ATOM     23  C   UNL     1       6.537   4.939  16.763  0.00  0.00    +0.000 A 
ATOM     24  C   UNL     1       5.141   5.009  16.828  0.00  0.00    +0.000 A 
ATOM     25  C   UNL     1       4.553   6.212  17.199  0.00  0.00    +0.000 A 
ATOM     26  F   UNL     1       3.233   6.292  17.426  0.00  0.00    +0.000 F 
ATOM     27  C   UNL     1       5.318   7.362  17.374  0.00  0.00    +0.000 A 
BRANCH  24  28
ATOM     28  O   UNL     1       4.500   3.840  16.565  0.00  0.00    +0.000 OA
BRANCH  28  29
ATOM     29  C   UNL     1       3.872   3.141  17.636  0.00  0.00    +0.000 C 
ATOM     30  F   UNL     1       4.361   3.433  18.859  0.00  0.00    +0.000 F 
ATOM     31  F   UNL     1       2.559   3.475  17.643  0.00  0.00    +0.000 F 
ATOM     32  F   UNL     1       3.961   1.812  17.419  0.00  0.00    +0.000 F 
ENDBRANCH  28  29
ENDBRANCH  24  28
ENDBRANCH   3  21
TORSDOF 4
ENDMDL
MODEL 3
REMARK VINA RESULT:      -8.5      0.891      1.068
REMARK  Name = 
REMARK  4 active torsions:
REMARK  status: ('A' for Active; 'I' for Inactive)
REMARK    1  A    between atoms: N_3  and  C_4
REMARK    2  A    between atoms: C_7  and  O_8
REMARK    3  A    between atoms: O_8  and  C_9
REMARK    4  A    between atoms: N_16  and  C_17
REMARK                            x       y       z     vdW  Elec       q    Type
REMARK                         _______ _______ _______ _____ _____    ______ ____
ROOT
ATOM      1  O   UNL     1       7.870   9.175  17.016  0.00  0.00    +0.000 OA
ATOM      2  C   UNL     1       8.217   8.546  18.004  0.00  0.00    +0.000 C 
ATOM      3  N   UNL     1       8.856   9.046  19.124  0.00  0.00    +0.000 N 
ATOM      4  N   UNL     1       7.996   7.203  18.150  0.00  0.00    +0.000 N 
ATOM      5  H   UNL     1       8.973   8.400  19.889  0.00  0.00    +0.000 HD
ATOM      6  H   UNL     1       8.333   6.761  18.992  0.00  0.00    +0.000 HD
ENDROOT
BRANCH   4   7
ATOM      7  C   UNL     1       7.238   6.398  17.202  0.00  0.00    +0.000 C 
ATOM      8  C   UNL     1       5.773   6.703  17.387  0.00  0.00    +0.000 C 
ATOM      9  C   UNL     1       5.249   6.132  18.686  0.00  0.00    +0.000 C 
ATOM     10  N   UNL     1       5.532   4.721  18.892  0.00  0.00    +0.000 N 
ATOM     11  C   UNL     1       4.649   3.715  19.278  0.00  0.00    +0.000 C 
ATOM     12  O   UNL     1       5.020   2.542  19.297  0.00  0.00    +0.000 OA
ATOM     13  N   UNL     1       3.343   4.021  19.646  0.00  0.00    +0.000 N 
ATOM     14  C   UNL     1       2.697   5.326  19.729  0.00  0.00    +0.000 C 
ATOM     15  C   UNL     1       1.557   5.441  20.725  0.00  0.00    +0.000 C 
ATOM     16  O   UNL     1       0.644   4.358  20.620  0.00  0.00    +0.000 OA
ATOM     17  C   UNL     1       1.346   3.119  20.793  0.00  0.00    +0.000 C 
ATOM     18  C   UNL     1       2.374   2.914  19.678  0.00  0.00    +0.000 C 
ATOM     19  C   UNL     1       6.953   4.373  18.695  0.00  0.00    +0.000 C 
ATOM     20  C   UNL     1       7.442   4.884  17.339  0.00  0.00    +0.000 C 
ENDBRANCH   4   7
BRANCH   3  21
ATOM     21  C   UNL     1       9.307  10.362  19.345  0.00  0.00    +0.000 A 
ATOM     22  C   UNL     1       9.275  10.993  20.581  0.00  0.00    +0.000 A 
ATOM     23  C   UNL     1       9.675  12.340  20.693  0.00  0.00    +0.000 A 
ATOM     24  C   UNL     1      10.089  13.054  19.565  0.00  0.00    +0.000 A 
ATOM     25  C   UNL     1      10.201  12.379  18.355  0.00  0.00    +0.000 A 
ATOM     26  F   UNL     1      10.739  12.976  17.281  0.00  0.00    +0.000 F 
ATOM     27  C   UNL     1       9.786  11.056  18.229  0.00  0.00    +0.000 A 
BRANCH  24  28
ATOM     28  O   UNL     1      10.397  14.357  19.798  0.00  0.00    +0.000 OA
BRANCH  28  29
ATOM     29  C   UNL     1       9.576  15.372  19.227  0.00  0.00    +0.000 C 
ATOM     30  F   UNL     1       9.937  15.753  17.985  0.00  0.00    +0.000 F 
ATOM     31  F   UNL     1       8.312  14.894  19.144  0.00  0.00    +0.000 F 
ATOM     32  F   UNL     1       9.559  16.448  20.043  0.00  0.00    +0.000 F 
ENDBRANCH  28  29
ENDBRANCH  24  28
ENDBRANCH   3  21
TORSDOF 4
ENDMDL
MODEL 4
REMARK VINA RESULT:      -8.5      4.942     10.805
REMARK  Name = 
REMARK  4 active torsions:
REMARK  status: ('A' for Active; 'I' for Inactive)
REMARK    1  A    between atoms: N_3  and  C_4
REMARK    2  A    between atoms: C_7  and  O_8
REMARK    3  A    between atoms: O_8  and  C_9
REMARK    4  A    between atoms: N_16  and  C_17
REMARK                            x       y       z     vdW  Elec       q    Type
REMARK                         _______ _______ _______ _____ _____    ______ ____
ROOT
ATOM      1  O   UNL     1       8.886   8.288  19.195  0.00  0.00    +0.000 OA
ATOM      2  C   UNL     1       8.443   9.024  18.326  0.00  0.00    +0.000 C 
ATOM      3  N   UNL     1       7.449   8.725  17.413  0.00  0.00    +0.000 N 
ATOM      4  N   UNL     1       8.879  10.308  18.142  0.00  0.00    +0.000 N 
ATOM      5  H   UNL     1       7.137   9.491  16.835  0.00  0.00    +0.000 HD
ATOM      6  H   UNL     1       8.470  10.839  17.387  0.00  0.00    +0.000 HD
ENDROOT
BRANCH   4   7
ATOM      7  C   UNL     1       9.836  10.973  19.015  0.00  0.00    +0.000 C 
ATOM      8  C   UNL     1       9.141  12.132  19.685  0.00  0.00    +0.000 C 
ATOM      9  C   UNL     1       8.864  13.252  18.706  0.00  0.00    +0.000 C 
ATOM     10  N   UNL     1      10.018  13.691  17.938  0.00  0.00    +0.000 N 
ATOM     11  C   UNL     1      10.466  14.994  17.730  0.00  0.00    +0.000 C 
ATOM     12  O   UNL     1      11.531  15.195  17.148  0.00  0.00    +0.000 OA
ATOM     13  N   UNL     1       9.719  16.079  18.174  0.00  0.00    +0.000 N 
ATOM     14  C   UNL     1       8.427  16.086  18.852  0.00  0.00    +0.000 C 
ATOM     15  C   UNL     1       7.574  17.326  18.645  0.00  0.00    +0.000 C 
ATOM     16  O   UNL     1       8.318  18.522  18.822  0.00  0.00    +0.000 OA
ATOM     17  C   UNL     1       9.443  18.526  17.932  0.00  0.00    +0.000 C 
ATOM     18  C   UNL     1      10.402  17.379  18.261  0.00  0.00    +0.000 C 
ATOM     19  C   UNL     1      10.745  12.584  17.286  0.00  0.00    +0.000 C 
ATOM     20  C   UNL     1      11.091  11.501  18.308  0.00  0.00    +0.000 C 
ENDBRANCH   4   7
BRANCH   3  21
ATOM     21  C   UNL     1       6.781   7.498  17.234  0.00  0.00    +0.000 A 
ATOM     22  C   UNL     1       5.433   7.389  16.918  0.00  0.00    +0.000 A 
ATOM     23  C   UNL     1       4.831   6.118  16.836  0.00  0.00    +0.000 A 
ATOM     24  C   UNL     1       5.576   4.961  17.087  0.00  0.00    +0.000 A 
ATOM     25  C   UNL     1       6.941   5.086  17.312  0.00  0.00    +0.000 A 
ATOM     26  F   UNL     1       7.726   4.001  17.405  0.00  0.00    +0.000 F 
ATOM     27  C   UNL     1       7.541   6.338  17.419  0.00  0.00    +0.000 A 
BRANCH  24  28
ATOM     28  O   UNL     1       4.866   3.804  17.029  0.00  0.00    +0.000 OA
BRANCH  28  29
ATOM     29  C   UNL     1       4.048   3.439  18.137  0.00  0.00    +0.000 C 
ATOM     30  F   UNL     1       4.426   3.979  19.314  0.00  0.00    +0.000 F 
ATOM     31  F   UNL     1       2.788   3.868  17.889  0.00  0.00    +0.000 F 
ATOM     32  F   UNL     1       4.015   2.094  18.247  0.00  0.00    +0.000 F 
ENDBRANCH  28  29
ENDBRANCH  24  28
ENDBRANCH   3  21
TORSDOF 4
ENDMDL
MODEL 5
REMARK VINA RESULT:      -8.4      0.984      1.540
REMARK  Name = 
REMARK  4 active torsions:
REMARK  status: ('A' for Active; 'I' for Inactive)
REMARK    1  A    between atoms: N_3  and  C_4
REMARK    2  A    between atoms: C_7  and  O_8
REMARK    3  A    between atoms: O_8  and  C_9
REMARK    4  A    between atoms: N_16  and  C_17
REMARK                            x       y       z     vdW  Elec       q    Type
REMARK                         _______ _______ _______ _____ _____    ______ ____
ROOT
ATOM      1  O   UNL     1       7.888   9.196  17.025  0.00  0.00    +0.000 OA
ATOM      2  C   UNL     1       8.230   8.554  18.006  0.00  0.00    +0.000 C 
ATOM      3  N   UNL     1       8.878   9.035  19.129  0.00  0.00    +0.000 N 
ATOM      4  N   UNL     1       7.992   7.212  18.140  0.00  0.00    +0.000 N 
ATOM      5  H   UNL     1       8.989   8.379  19.888  0.00  0.00    +0.000 HD
ATOM      6  H   UNL     1       8.325   6.757  18.977  0.00  0.00    +0.000 HD
ENDROOT
BRANCH   4   7
ATOM      7  C   UNL     1       7.221   6.426  17.187  0.00  0.00    +0.000 C 
ATOM      8  C   UNL     1       5.759   6.734  17.392  0.00  0.00    +0.000 C 
ATOM      9  C   UNL     1       5.246   6.143  18.688  0.00  0.00    +0.000 C 
ATOM     10  N   UNL     1       5.525   4.728  18.867  0.00  0.00    +0.000 N 
ATOM     11  C   UNL     1       4.642   3.720  19.246  0.00  0.00    +0.000 C 
ATOM     12  O   UNL     1       5.008   2.545  19.242  0.00  0.00    +0.000 OA
ATOM     13  N   UNL     1       3.341   4.025  19.632  0.00  0.00    +0.000 N 
ATOM     14  C   UNL     1       2.701   5.331  19.744  0.00  0.00    +0.000 C 
ATOM     15  C   UNL     1       1.572   5.435  20.754  0.00  0.00    +0.000 C 
ATOM     16  O   UNL     1       0.654   4.357  20.640  0.00  0.00    +0.000 OA
ATOM     17  C   UNL     1       1.352   3.112  20.786  0.00  0.00    +0.000 C 
ATOM     18  C   UNL     1       2.367   2.922  19.657  0.00  0.00    +0.000 C 
ATOM     19  C   UNL     1       6.942   4.378  18.650  0.00  0.00    +0.000 C 
ATOM     20  C   UNL     1       7.420   4.909  17.298  0.00  0.00    +0.000 C 
ENDBRANCH   4   7
BRANCH   3  21
ATOM     21  C   UNL     1       9.348  10.342  19.361  0.00  0.00    +0.000 A 
ATOM     22  C   UNL     1       9.853  11.171  18.369  0.00  0.00    +0.000 A 
ATOM     23  C   UNL     1      10.373  12.436  18.707  0.00  0.00    +0.000 A 
ATOM     24  C   UNL     1      10.402  12.859  20.040  0.00  0.00    +0.000 A 
ATOM     25  C   UNL     1       9.810  12.054  21.005  0.00  0.00    +0.000 A 
ATOM     26  F   UNL     1       9.674  12.483  22.270  0.00  0.00    +0.000 F 
ATOM     27  C   UNL     1       9.315  10.793  20.685  0.00  0.00    +0.000 A 
BRANCH  24  28
ATOM     28  O   UNL     1      10.978  14.074  20.238  0.00  0.00    +0.000 OA
BRANCH  28  29
ATOM     29  C   UNL     1      10.248  15.248  19.893  0.00  0.00    +0.000 C 
ATOM     30  F   UNL     1      10.357  15.616  18.600  0.00  0.00    +0.000 F 
ATOM     31  F   UNL     1       8.935  15.011  20.129  0.00  0.00    +0.000 F 
ATOM     32  F   UNL     1      10.634  16.268  20.688  0.00  0.00    +0.000 F 
ENDBRANCH  28  29
ENDBRANCH  24  28
ENDBRANCH   3  21
TORSDOF 4
ENDMDL
MODEL 6
REMARK VINA RESULT:      -8.2      0.736      1.452
REMARK  Name = 
REMARK  4 active torsions:
REMARK  status: ('A' for Active; 'I' for Inactive)
REMARK    1  A    between atoms: N_3  and  C_4
REMARK    2  A    between atoms: C_7  and  O_8
REMARK    3  A    between atoms: O_8  and  C_9
REMARK    4  A    between atoms: N_16  and  C_17
REMARK                            x       y       z     vdW  Elec       q    Type
REMARK                         _______ _______ _______ _____ _____    ______ ____
ROOT
ATOM      1  O   UNL     1       7.358   9.115  16.857  0.00  0.00    +0.000 OA
ATOM      2  C   UNL     1       7.913   8.487  17.746  0.00  0.00    +0.000 C 
ATOM      3  N   UNL     1       8.641   9.008  18.800  0.00  0.00    +0.000 N 
ATOM      4  N   UNL     1       7.872   7.121  17.833  0.00  0.00    +0.000 N 
ATOM      5  H   UNL     1       8.940   8.344  19.499  0.00  0.00    +0.000 HD
ATOM      6  H   UNL     1       8.374   6.684  18.591  0.00  0.00    +0.000 HD
ENDROOT
BRANCH   4   7
ATOM      7  C   UNL     1       7.086   6.276  16.945  0.00  0.00    +0.000 C 
ATOM      8  C   UNL     1       5.626   6.570  17.180  0.00  0.00    +0.000 C 
ATOM      9  C   UNL     1       5.162   6.040  18.519  0.00  0.00    +0.000 C 
ATOM     10  N   UNL     1       5.471   4.640  18.761  0.00  0.00    +0.000 N 
ATOM     11  C   UNL     1       4.617   3.638  19.218  0.00  0.00    +0.000 C 
ATOM     12  O   UNL     1       5.003   2.471  19.262  0.00  0.00    +0.000 OA
ATOM     13  N   UNL     1       3.324   3.943  19.629  0.00  0.00    +0.000 N 
ATOM     14  C   UNL     1       2.665   5.243  19.693  0.00  0.00    +0.000 C 
ATOM     15  C   UNL     1       1.565   5.380  20.731  0.00  0.00    +0.000 C 
ATOM     16  O   UNL     1       0.663   4.285  20.702  0.00  0.00    +0.000 OA
ATOM     17  C   UNL     1       1.387   3.060  20.888  0.00  0.00    +0.000 C 
ATOM     18  C   UNL     1       2.370   2.828  19.739  0.00  0.00    +0.000 C 
ATOM     19  C   UNL     1       6.887   4.301  18.518  0.00  0.00    +0.000 C 
ATOM     20  C   UNL     1       7.314   4.769  17.126  0.00  0.00    +0.000 C 
ENDBRANCH   4   7
BRANCH   3  21
ATOM     21  C   UNL     1       8.963  10.357  19.044  0.00  0.00    +0.000 A 
ATOM     22  C   UNL     1       8.999  11.334  18.059  0.00  0.00    +0.000 A 
ATOM     23  C   UNL     1       9.409  12.643  18.381  0.00  0.00    +0.000 A 
ATOM     24  C   UNL     1       9.799  12.964  19.686  0.00  0.00    +0.000 A 
ATOM     25  C   UNL     1       9.670  11.997  20.675  0.00  0.00    +0.000 A 
ATOM     26  F   UNL     1       9.882  12.299  21.965  0.00  0.00    +0.000 F 
ATOM     27  C   UNL     1       9.288  10.695  20.362  0.00  0.00    +0.000 A 
BRANCH  24  28
ATOM     28  O   UNL     1      10.224  14.244  19.853  0.00  0.00    +0.000 OA
BRANCH  28  29
ATOM     29  C   UNL     1      11.572  14.572  19.529  0.00  0.00    +0.000 C 
ATOM     30  F   UNL     1      12.102  15.562  20.275  0.00  0.00    +0.000 F 
ATOM     31  F   UNL     1      12.333  13.470  19.733  0.00  0.00    +0.000 F 
ATOM     32  F   UNL     1      11.654  14.896  18.222  0.00  0.00    +0.000 F 
ENDBRANCH  28  29
ENDBRANCH  24  28
ENDBRANCH   3  21
TORSDOF 4
ENDMDL
MODEL 7
REMARK VINA RESULT:      -8.0      7.453     10.051
REMARK  Name = 
REMARK  4 active torsions:
REMARK  status: ('A' for Active; 'I' for Inactive)
REMARK    1  A    between atoms: N_3  and  C_4
REMARK    2  A    between atoms: C_7  and  O_8
REMARK    3  A    between atoms: O_8  and  C_9
REMARK    4  A    between atoms: N_16  and  C_17
REMARK                            x       y       z     vdW  Elec       q    Type
REMARK                         _______ _______ _______ _____ _____    ______ ____
ROOT
ATOM      1  O   UNL     1       2.248  10.274  17.682  0.00  0.00    +0.000 OA
ATOM      2  C   UNL     1       1.462   9.711  18.429  0.00  0.00    +0.000 C 
ATOM      3  N   UNL     1       1.578   8.435  18.948  0.00  0.00    +0.000 N 
ATOM      4  N   UNL     1       0.315  10.303  18.888  0.00  0.00    +0.000 N 
ATOM      5  H   UNL     1       0.885   8.173  19.633  0.00  0.00    +0.000 HD
ATOM      6  H   UNL     1      -0.286   9.758  19.488  0.00  0.00    +0.000 HD
ENDROOT
BRANCH   4   7
ATOM      7  C   UNL     1      -0.044  11.689  18.625  0.00  0.00    +0.000 C 
ATOM      8  C   UNL     1      -0.234  12.388  19.948  0.00  0.00    +0.000 C 
ATOM      9  C   UNL     1      -1.495  11.923  20.643  0.00  0.00    +0.000 C 
ATOM     10  N   UNL     1      -2.698  11.980  19.829  0.00  0.00    +0.000 N 
ATOM     11  C   UNL     1      -3.936  12.525  20.164  0.00  0.00    +0.000 C 
ATOM     12  O   UNL     1      -4.826  12.600  19.318  0.00  0.00    +0.000 OA
ATOM     13  N   UNL     1      -4.181  12.991  21.451  0.00  0.00    +0.000 N 
ATOM     14  C   UNL     1      -3.299  12.978  22.613  0.00  0.00    +0.000 C 
ATOM     15  C   UNL     1      -3.984  12.932  23.968  0.00  0.00    +0.000 C 
ATOM     16  O   UNL     1      -5.041  13.876  24.064  0.00  0.00    +0.000 OA
ATOM     17  C   UNL     1      -5.987  13.648  23.009  0.00  0.00    +0.000 C 
ATOM     18  C   UNL     1      -5.341  13.876  21.640  0.00  0.00    +0.000 C 
ATOM     19  C   UNL     1      -2.548  11.330  18.513  0.00  0.00    +0.000 C 
ATOM     20  C   UNL     1      -1.316  11.875  17.789  0.00  0.00    +0.000 C 
ENDBRANCH   4   7
BRANCH   3  21
ATOM     21  C   UNL     1       2.579   7.482  18.680  0.00  0.00    +0.000 A 
ATOM     22  C   UNL     1       2.881   6.419  19.521  0.00  0.00    +0.000 A 
ATOM     23  C   UNL     1       3.953   5.559  19.210  0.00  0.00    +0.000 A 
ATOM     24  C   UNL     1       4.730   5.777  18.068  0.00  0.00    +0.000 A 
ATOM     25  C   UNL     1       4.356   6.790  17.193  0.00  0.00    +0.000 A 
ATOM     26  F   UNL     1       4.972   6.940  16.010  0.00  0.00    +0.000 F 
ATOM     27  C   UNL     1       3.314   7.659  17.503  0.00  0.00    +0.000 A 
BRANCH  24  28
ATOM     28  O   UNL     1       5.765   4.910  17.910  0.00  0.00    +0.000 OA
BRANCH  28  29
ATOM     29  C   UNL     1       7.070   5.314  18.314  0.00  0.00    +0.000 C 
ATOM     30  F   UNL     1       7.211   5.513  19.640  0.00  0.00    +0.000 F 
ATOM     31  F   UNL     1       7.940   4.336  17.964  0.00  0.00    +0.000 F 
ATOM     32  F   UNL     1       7.419   6.436  17.649  0.00  0.00    +0.000 F 
ENDBRANCH  28  29
ENDBRANCH  24  28
ENDBRANCH   3  21
TORSDOF 4
ENDMDL
MODEL 8
REMARK VINA RESULT:      -8.0      8.342     11.417
REMARK  Name = 
REMARK  4 active torsions:
REMARK  status: ('A' for Active; 'I' for Inactive)
REMARK    1  A    between atoms: N_3  and  C_4
REMARK    2  A    between atoms: C_7  and  O_8
REMARK    3  A    between atoms: O_8  and  C_9
REMARK    4  A    between atoms: N_16  and  C_17
REMARK                            x       y       z     vdW  Elec       q    Type
REMARK                         _______ _______ _______ _____ _____    ______ ____
ROOT
ATOM      1  O   UNL     1       1.758   8.708  18.008  0.00  0.00    +0.000 OA
ATOM      2  C   UNL     1       1.509   8.812  19.200  0.00  0.00    +0.000 C 
ATOM      3  N   UNL     1       1.785   7.887  20.190  0.00  0.00    +0.000 N 
ATOM      4  N   UNL     1       0.912   9.918  19.743  0.00  0.00    +0.000 N 
ATOM      5  H   UNL     1       1.602   8.186  21.136  0.00  0.00    +0.000 HD
ATOM      6  H   UNL     1       0.726   9.911  20.735  0.00  0.00    +0.000 HD
ENDROOT
BRANCH   4   7
ATOM      7  C   UNL     1       0.601  11.124  18.990  0.00  0.00    +0.000 C 
ATOM      8  C   UNL     1       0.485  12.272  19.962  0.00  0.00    +0.000 C 
ATOM      9  C   UNL     1      -0.769  12.162  20.801  0.00  0.00    +0.000 C 
ATOM     10  N   UNL     1      -1.996  11.976  20.044  0.00  0.00    +0.000 N 
ATOM     11  C   UNL     1      -3.198  12.668  20.173  0.00  0.00    +0.000 C 
ATOM     12  O   UNL     1      -4.113  12.470  19.375  0.00  0.00    +0.000 OA
ATOM     13  N   UNL     1      -3.379  13.589  21.199  0.00  0.00    +0.000 N 
ATOM     14  C   UNL     1      -2.458  13.963  22.268  0.00  0.00    +0.000 C 
ATOM     15  C   UNL     1      -3.098  14.457  23.553  0.00  0.00    +0.000 C 
ATOM     16  O   UNL     1      -4.111  15.422  23.310  0.00  0.00    +0.000 OA
ATOM     17  C   UNL     1      -5.101  14.868  22.431  0.00  0.00    +0.000 C 
ATOM     18  C   UNL     1      -4.495  14.539  21.065  0.00  0.00    +0.000 C 
ATOM     19  C   UNL     1      -1.918  10.878  19.061  0.00  0.00    +0.000 C 
ATOM     20  C   UNL     1      -0.691  11.052  18.166  0.00  0.00    +0.000 C 
ENDBRANCH   4   7
BRANCH   3  21
ATOM     21  C   UNL     1       2.343   6.603  20.040  0.00  0.00    +0.000 A 
ATOM     22  C   UNL     1       3.435   6.323  19.230  0.00  0.00    +0.000 A 
ATOM     23  C   UNL     1       3.877   4.993  19.080  0.00  0.00    +0.000 A 
ATOM     24  C   UNL     1       3.213   3.947  19.728  0.00  0.00    +0.000 A 
ATOM     25  C   UNL     1       2.180   4.256  20.604  0.00  0.00    +0.000 A 
ATOM     26  F   UNL     1       1.614   3.307  21.365  0.00  0.00    +0.000 F 
ATOM     27  C   UNL     1       1.721   5.564  20.741  0.00  0.00    +0.000 A 
BRANCH  24  28
ATOM     28  O   UNL     1       3.704   2.709  19.458  0.00  0.00    +0.000 OA
BRANCH  28  29
ATOM     29  C   UNL     1       3.026   1.889  18.510  0.00  0.00    +0.000 C 
ATOM     30  F   UNL     1       2.782   2.485  17.326  0.00  0.00    +0.000 F 
ATOM     31  F   UNL     1       3.803   0.808  18.258  0.00  0.00    +0.000 F 
ATOM     32  F   UNL     1       1.866   1.450  19.043  0.00  0.00    +0.000 F 
ENDBRANCH  28  29
ENDBRANCH  24  28
ENDBRANCH   3  21
TORSDOF 4
ENDMDL
MODEL 9
REMARK VINA RESULT:      -7.9      5.118     10.572
REMARK  Name = 
REMARK  4 active torsions:
REMARK  status: ('A' for Active; 'I' for Inactive)
REMARK    1  A    between atoms: N_3  and  C_4
REMARK    2  A    between atoms: C_7  and  O_8
REMARK    3  A    between atoms: O_8  and  C_9
REMARK    4  A    between atoms: N_16  and  C_17
REMARK                            x       y       z     vdW  Elec       q    Type
REMARK                         _______ _______ _______ _____ _____    ______ ____
ROOT
ATOM      1  O   UNL     1       8.621   7.671  18.949  0.00  0.00    +0.000 OA
ATOM      2  C   UNL     1       8.180   8.490  18.157  0.00  0.00    +0.000 C 
ATOM      3  N   UNL     1       7.107   8.324  17.302  0.00  0.00    +0.000 N 
ATOM      4  N   UNL     1       8.704   9.747  18.016  0.00  0.00    +0.000 N 
ATOM      5  H   UNL     1       6.818   9.146  16.793  0.00  0.00    +0.000 HD
ATOM      6  H   UNL     1       8.289  10.353  17.324  0.00  0.00    +0.000 HD
ENDROOT
BRANCH   4   7
ATOM      7  C   UNL     1       9.767  10.282  18.855  0.00  0.00    +0.000 C 
ATOM      8  C   UNL     1       9.145  11.190  19.886  0.00  0.00    +0.000 C 
ATOM      9  C   UNL     1       8.640  12.472  19.261  0.00  0.00    +0.000 C 
ATOM     10  N   UNL     1       9.612  13.178  18.444  0.00  0.00    +0.000 N 
ATOM     11  C   UNL     1       9.947  14.530  18.482  0.00  0.00    +0.000 C 
ATOM     12  O   UNL     1      10.878  14.955  17.800  0.00  0.00    +0.000 OA
ATOM     13  N   UNL     1       9.237  15.413  19.289  0.00  0.00    +0.000 N 
ATOM     14  C   UNL     1       8.090  15.148  20.151  0.00  0.00    +0.000 C 
ATOM     15  C   UNL     1       7.151  16.317  20.387  0.00  0.00    +0.000 C 
ATOM     16  O   UNL     1       7.853  17.506  20.722  0.00  0.00    +0.000 OA
ATOM     17  C   UNL     1       8.797  17.815  19.687  0.00  0.00    +0.000 C 
ATOM     18  C   UNL     1       9.857  16.718  19.572  0.00  0.00    +0.000 C 
ATOM     19  C   UNL     1      10.265  12.320  17.437  0.00  0.00    +0.000 C 
ATOM     20  C   UNL     1      10.845  11.070  18.099  0.00  0.00    +0.000 C 
ENDBRANCH   4   7
BRANCH   3  21
ATOM     21  C   UNL     1       6.333   7.165  17.103  0.00  0.00    +0.000 A 
ATOM     22  C   UNL     1       4.969   7.091  17.354  0.00  0.00    +0.000 A 
ATOM     23  C   UNL     1       4.291   5.866  17.200  0.00  0.00    +0.000 A 
ATOM     24  C   UNL     1       4.984   4.715  16.812  0.00  0.00    +0.000 A 
ATOM     25  C   UNL     1       6.328   4.829  16.478  0.00  0.00    +0.000 A 
ATOM     26  F   UNL     1       6.998   3.790  15.953  0.00  0.00    +0.000 F 
ATOM     27  C   UNL     1       7.012   6.029  16.649  0.00  0.00    +0.000 A 
BRANCH  24  28
ATOM     28  O   UNL     1       4.226   3.588  16.752  0.00  0.00    +0.000 OA
BRANCH  28  29
ATOM     29  C   UNL     1       3.903   2.909  17.962  0.00  0.00    +0.000 C 
ATOM     30  F   UNL     1       4.764   3.131  18.976  0.00  0.00    +0.000 F 
ATOM     31  F   UNL     1       2.686   3.338  18.373  0.00  0.00    +0.000 F 
ATOM     32  F   UNL     1       3.817   1.583  17.724  0.00  0.00    +0.000 F 
ENDBRANCH  28  29
ENDBRANCH  24  28
ENDBRANCH   3  21
TORSDOF 4
ENDMDL
