MODEL 1
REMARK VINA RESULT:      -9.0      0.000      0.000
REMARK  Name = 
REMARK  6 active torsions:
REMARK  status: ('A' for Active; 'I' for Inactive)
REMARK    1  A    between atoms: C_1  and  C_2
REMARK    2  A    between atoms: C_2  and  C_3
REMARK    3  A    between atoms: C_5  and  C_6
REMARK    4  A    between atoms: C_9  and  S_10
REMARK    5  A    between atoms: S_10  and  C_11
REMARK    6  A    between atoms: C_17  and  C_18
REMARK                            x       y       z     vdW  Elec       q    Type
REMARK                         _______ _______ _______ _____ _____    ______ ____
ROOT
ATOM      1  C   UNL     1       2.341   2.582  21.570  0.00  0.00    +0.000 C 
ATOM      2  C   UNL     1       2.155   3.138  20.165  0.00  0.00    +0.000 C 
ATOM      3  C   UNL     1       1.284   2.236  19.301  0.00  0.00    +0.000 C 
ATOM      4  O   UNL     1       1.557   4.454  20.239  0.00  0.00    +0.000 OA
ATOM      5  C   UNL     1       2.489   5.329  19.690  0.00  0.00    +0.000 C 
ATOM      6  C   UNL     1       3.643   4.829  19.240  0.00  0.00    +0.000 C 
ATOM      7  C   UNL     1       3.489   3.396  19.508  0.00  0.00    +0.000 C 
ATOM      8  O   UNL     1       4.329   2.553  19.234  0.00  0.00    +0.000 OA
ENDROOT
BRANCH   5   9
ATOM      9  C   UNL     1       2.095   6.740  19.656  0.00  0.00    +0.000 A 
ATOM     10  C   UNL     1       1.628   7.376  20.815  0.00  0.00    +0.000 A 
ATOM     11  C   UNL     1       1.231   8.717  20.778  0.00  0.00    +0.000 A 
ATOM     12  C   UNL     1       1.307   9.427  19.576  0.00  0.00    +0.000 A 
ATOM     13  C   UNL     1       1.777   8.804  18.429  0.00  0.00    +0.000 A 
ATOM     14  F   UNL     1       1.868   9.470  17.271  0.00  0.00    +0.000 F 
ATOM     15  C   UNL     1       2.174   7.467  18.462  0.00  0.00    +0.000 A 
BRANCH  12  16
ATOM     16  S   UNL     1       0.770  11.107  19.495  0.00  0.00    +0.000 S 
ATOM     17  C   UNL     1       0.352  11.552  21.160  0.00  0.00    +0.000 C 
ATOM     18  O   UNL     1       1.903  11.904  19.067  0.00  0.00    +0.000 OA
ATOM     19  O   UNL     1      -0.468  11.124  18.735  0.00  0.00    +0.000 OA
ENDBRANCH  12  16
ENDBRANCH   5   9
BRANCH   6  20
ATOM     20  C   UNL     1       4.788   5.471  18.624  0.00  0.00    +0.000 A 
ATOM     21  C   UNL     1       6.016   5.516  19.300  0.00  0.00    +0.000 A 
ATOM     22  C   UNL     1       7.121   6.119  18.699  0.00  0.00    +0.000 A 
ATOM     23  C   UNL     1       6.994   6.674  17.431  0.00  0.00    +0.000 A 
ATOM     24  F   UNL     1       8.057   7.247  16.854  0.00  0.00    +0.000 F 
ATOM     25  C   UNL     1       5.782   6.641  16.752  0.00  0.00    +0.000 A 
ATOM     26  C   UNL     1       4.675   6.038  17.349  0.00  0.00    +0.000 A 
ENDBRANCH   6  20
TORSDOF 3
ENDMDL
MODEL 2
REMARK VINA RESULT:      -9.0      0.736      1.288
REMARK  Name = 
REMARK  6 active torsions:
REMARK  status: ('A' for Active; 'I' for Inactive)
REMARK    1  A    between atoms: C_1  and  C_2
REMARK    2  A    between atoms: C_2  and  C_3
REMARK    3  A    between atoms: C_5  and  C_6
REMARK    4  A    between atoms: C_9  and  S_10
REMARK    5  A    between atoms: S_10  and  C_11
REMARK    6  A    between atoms: C_17  and  C_18
REMARK                            x       y       z     vdW  Elec       q    Type
REMARK                         _______ _______ _______ _____ _____    ______ ____
ROOT
ATOM      1  C   UNL     1       1.874   2.467  21.192  0.00  0.00    +0.000 C 
ATOM      2  C   UNL     1       1.753   3.146  19.833  0.00  0.00    +0.000 C 
ATOM      3  C   UNL     1       0.835   2.383  18.889  0.00  0.00    +0.000 C 
ATOM      4  O   UNL     1       1.251   4.492  20.007  0.00  0.00    +0.000 OA
ATOM      5  C   UNL     1       2.254   5.337  19.541  0.00  0.00    +0.000 C 
ATOM      6  C   UNL     1       3.377   4.790  19.065  0.00  0.00    +0.000 C 
ATOM      7  C   UNL     1       3.114   3.356  19.215  0.00  0.00    +0.000 C 
ATOM      8  O   UNL     1       3.896   2.478  18.884  0.00  0.00    +0.000 OA
ENDROOT
BRANCH   5   9
ATOM      9  C   UNL     1       1.965   6.771  19.616  0.00  0.00    +0.000 A 
ATOM     10  C   UNL     1       1.632   7.366  20.841  0.00  0.00    +0.000 A 
ATOM     11  C   UNL     1       1.334   8.732  20.910  0.00  0.00    +0.000 A 
ATOM     12  C   UNL     1       1.375   9.507  19.748  0.00  0.00    +0.000 A 
ATOM     13  C   UNL     1       1.712   8.924  18.535  0.00  0.00    +0.000 A 
ATOM     14  F   UNL     1       1.768   9.651  17.412  0.00  0.00    +0.000 F 
ATOM     15  C   UNL     1       2.010   7.563  18.462  0.00  0.00    +0.000 A 
BRANCH  12  16
ATOM     16  S   UNL     1       0.960  11.222  19.802  0.00  0.00    +0.000 S 
ATOM     17  C   UNL     1      -0.658  11.341  19.088  0.00  0.00    +0.000 C 
ATOM     18  O   UNL     1       0.888  11.606  21.198  0.00  0.00    +0.000 OA
ATOM     19  O   UNL     1       1.867  11.910  18.899  0.00  0.00    +0.000 OA
ENDBRANCH  12  16
ENDBRANCH   5   9
BRANCH   6  20
ATOM     20  C   UNL     1       4.576   5.393  18.518  0.00  0.00    +0.000 A 
ATOM     21  C   UNL     1       4.542   6.004  17.256  0.00  0.00    +0.000 A 
ATOM     22  C   UNL     1       5.693   6.598  16.738  0.00  0.00    +0.000 A 
ATOM     23  C   UNL     1       6.868   6.578  17.479  0.00  0.00    +0.000 A 
ATOM     24  F   UNL     1       7.970   7.154  16.982  0.00  0.00    +0.000 F 
ATOM     25  C   UNL     1       6.918   5.971  18.728  0.00  0.00    +0.000 A 
ATOM     26  C   UNL     1       5.770   5.376  19.250  0.00  0.00    +0.000 A 
ENDBRANCH   6  20
TORSDOF 3
ENDMDL
MODEL 3
REMARK VINA RESULT:      -8.8      2.497      4.623
REMARK  Name = 
REMARK  6 active torsions:
REMARK  status: ('A' for Active; 'I' for Inactive)
REMARK    1  A    between atoms: C_1  and  C_2
REMARK    2  A    between atoms: C_2  and  C_3
REMARK    3  A    between atoms: C_5  and  C_6
REMARK    4  A    between atoms: C_9  and  S_10
REMARK    5  A    between atoms: S_10  and  C_11
REMARK    6  A    between atoms: C_17  and  C_18
REMARK                            x       y       z     vdW  Elec       q    Type
REMARK                         _______ _______ _______ _____ _____    ______ ____
ROOT
ATOM      1  C   UNL     1       5.104   5.409  15.005  0.00  0.00    +0.000 C 
ATOM      2  C   UNL     1       5.342   5.711  16.479  0.00  0.00    +0.000 C 
ATOM      3  C   UNL     1       6.817   5.916  16.794  0.00  0.00    +0.000 C 
ATOM      4  O   UNL     1       4.602   6.897  16.856  0.00  0.00    +0.000 OA
ATOM      5  C   UNL     1       3.689   6.486  17.823  0.00  0.00    +0.000 C 
ATOM      6  C   UNL     1       3.679   5.199  18.183  0.00  0.00    +0.000 C 
ATOM      7  C   UNL     1       4.744   4.633  17.351  0.00  0.00    +0.000 C 
ATOM      8  O   UNL     1       5.081   3.460  17.374  0.00  0.00    +0.000 OA
ENDROOT
BRANCH   5   9
ATOM      9  C   UNL     1       2.820   7.534  18.364  0.00  0.00    +0.000 A 
ATOM     10  C   UNL     1       2.501   8.662  17.593  0.00  0.00    +0.000 A 
ATOM     11  C   UNL     1       1.688   9.674  18.116  0.00  0.00    +0.000 A 
ATOM     12  C   UNL     1       1.186   9.553  19.415  0.00  0.00    +0.000 A 
ATOM     13  C   UNL     1       1.492   8.436  20.178  0.00  0.00    +0.000 A 
ATOM     14  F   UNL     1       1.011   8.296  21.420  0.00  0.00    +0.000 F 
ATOM     15  C   UNL     1       2.301   7.425  19.660  0.00  0.00    +0.000 A 
BRANCH  12  16
ATOM     16  S   UNL     1       0.195  10.838  20.112  0.00  0.00    +0.000 S 
ATOM     17  C   UNL     1       0.146  12.117  18.885  0.00  0.00    +0.000 C 
ATOM     18  O   UNL     1      -1.142  10.305  20.289  0.00  0.00    +0.000 OA
ATOM     19  O   UNL     1       0.927  11.374  21.247  0.00  0.00    +0.000 OA
ENDBRANCH  12  16
ENDBRANCH   5   9
BRANCH   6  20
ATOM     20  C   UNL     1       2.865   4.482  19.145  0.00  0.00    +0.000 A 
ATOM     21  C   UNL     1       1.616   3.972  18.767  0.00  0.00    +0.000 A 
ATOM     22  C   UNL     1       0.841   3.267  19.689  0.00  0.00    +0.000 A 
ATOM     23  C   UNL     1       1.317   3.078  20.981  0.00  0.00    +0.000 A 
ATOM     24  F   UNL     1       0.576   2.397  21.863  0.00  0.00    +0.000 F 
ATOM     25  C   UNL     1       2.552   3.583  21.372  0.00  0.00    +0.000 A 
ATOM     26  C   UNL     1       3.329   4.288  20.452  0.00  0.00    +0.000 A 
ENDBRANCH   6  20
TORSDOF 3
ENDMDL
MODEL 4
REMARK VINA RESULT:      -8.8      1.120      1.511
REMARK  Name = 
REMARK  6 active torsions:
REMARK  status: ('A' for Active; 'I' for Inactive)
REMARK    1  A    between atoms: C_1  and  C_2
REMARK    2  A    between atoms: C_2  and  C_3
REMARK    3  A    between atoms: C_5  and  C_6
REMARK    4  A    between atoms: C_9  and  S_10
REMARK    5  A    between atoms: S_10  and  C_11
REMARK    6  A    between atoms: C_17  and  C_18
REMARK                            x       y       z     vdW  Elec       q    Type
REMARK                         _______ _______ _______ _____ _____    ______ ____
ROOT
ATOM      1  C   UNL     1       2.144   2.546  21.431  0.00  0.00    +0.000 C 
ATOM      2  C   UNL     1       1.972   3.159  20.047  0.00  0.00    +0.000 C 
ATOM      3  C   UNL     1       1.085   2.310  19.148  0.00  0.00    +0.000 C 
ATOM      4  O   UNL     1       1.402   4.483  20.172  0.00  0.00    +0.000 OA
ATOM      5  C   UNL     1       2.353   5.360  19.658  0.00  0.00    +0.000 C 
ATOM      6  C   UNL     1       3.497   4.853  19.190  0.00  0.00    +0.000 C 
ATOM      7  C   UNL     1       3.313   3.415  19.402  0.00  0.00    +0.000 C 
ATOM      8  O   UNL     1       4.136   2.566  19.097  0.00  0.00    +0.000 OA
ENDROOT
BRANCH   5   9
ATOM      9  C   UNL     1       1.988   6.778  19.678  0.00  0.00    +0.000 A 
ATOM     10  C   UNL     1       2.132   7.566  18.527  0.00  0.00    +0.000 A 
ATOM     11  C   UNL     1       1.805   8.926  18.550  0.00  0.00    +0.000 A 
ATOM     12  C   UNL     1       1.323   9.500  19.731  0.00  0.00    +0.000 A 
ATOM     13  C   UNL     1       1.170   8.722  20.870  0.00  0.00    +0.000 A 
ATOM     14  F   UNL     1       0.700   9.250  22.007  0.00  0.00    +0.000 F 
ATOM     15  C   UNL     1       1.496   7.366  20.850  0.00  0.00    +0.000 A 
BRANCH  12  16
ATOM     16  S   UNL     1       0.945  11.223  19.797  0.00  0.00    +0.000 S 
ATOM     17  C   UNL     1      -0.826  11.319  19.793  0.00  0.00    +0.000 C 
ATOM     18  O   UNL     1       1.440  11.727  21.062  0.00  0.00    +0.000 OA
ATOM     19  O   UNL     1       1.398  11.808  18.547  0.00  0.00    +0.000 OA
ENDBRANCH  12  16
ENDBRANCH   5   9
BRANCH   6  20
ATOM     20  C   UNL     1       4.656   5.495  18.602  0.00  0.00    +0.000 A 
ATOM     21  C   UNL     1       5.884   5.488  19.280  0.00  0.00    +0.000 A 
ATOM     22  C   UNL     1       7.002   6.091  18.704  0.00  0.00    +0.000 A 
ATOM     23  C   UNL     1       6.889   6.697  17.459  0.00  0.00    +0.000 A 
ATOM     24  F   UNL     1       7.965   7.270  16.905  0.00  0.00    +0.000 F 
ATOM     25  C   UNL     1       5.678   6.716  16.777  0.00  0.00    +0.000 A 
ATOM     26  C   UNL     1       4.557   6.114  17.349  0.00  0.00    +0.000 A 
ENDBRANCH   6  20
TORSDOF 3
ENDMDL
MODEL 5
REMARK VINA RESULT:      -8.8      1.185      1.923
REMARK  Name = 
REMARK  6 active torsions:
REMARK  status: ('A' for Active; 'I' for Inactive)
REMARK    1  A    between atoms: C_1  and  C_2
REMARK    2  A    between atoms: C_2  and  C_3
REMARK    3  A    between atoms: C_5  and  C_6
REMARK    4  A    between atoms: C_9  and  S_10
REMARK    5  A    between atoms: S_10  and  C_11
REMARK    6  A    between atoms: C_17  and  C_18
REMARK                            x       y       z     vdW  Elec       q    Type
REMARK                         _______ _______ _______ _____ _____    ______ ____
ROOT
ATOM      1  C   UNL     1       2.073   2.643  21.518  0.00  0.00    +0.000 C 
ATOM      2  C   UNL     1       1.918   3.227  20.120  0.00  0.00    +0.000 C 
ATOM      3  C   UNL     1       1.023   2.371  19.236  0.00  0.00    +0.000 C 
ATOM      4  O   UNL     1       1.367   4.562  20.211  0.00  0.00    +0.000 OA
ATOM      5  C   UNL     1       2.334   5.412  19.682  0.00  0.00    +0.000 C 
ATOM      6  C   UNL     1       3.474   4.877  19.233  0.00  0.00    +0.000 C 
ATOM      7  C   UNL     1       3.266   3.447  19.478  0.00  0.00    +0.000 C 
ATOM      8  O   UNL     1       4.078   2.579  19.197  0.00  0.00    +0.000 OA
ENDROOT
BRANCH   5   9
ATOM      9  C   UNL     1       1.991   6.836  19.667  0.00  0.00    +0.000 A 
ATOM     10  C   UNL     1       2.146   7.592  18.496  0.00  0.00    +0.000 A 
ATOM     11  C   UNL     1       1.839   8.957  18.485  0.00  0.00    +0.000 A 
ATOM     12  C   UNL     1       1.368   9.567  19.651  0.00  0.00    +0.000 A 
ATOM     13  C   UNL     1       1.204   8.821  20.810  0.00  0.00    +0.000 A 
ATOM     14  F   UNL     1       0.742   9.384  21.934  0.00  0.00    +0.000 F 
ATOM     15  C   UNL     1       1.509   7.460  20.824  0.00  0.00    +0.000 A 
BRANCH  12  16
ATOM     16  S   UNL     1       1.015  11.297  19.675  0.00  0.00    +0.000 S 
ATOM     17  C   UNL     1       2.003  11.999  18.380  0.00  0.00    +0.000 C 
ATOM     18  O   UNL     1      -0.385  11.458  19.338  0.00  0.00    +0.000 OA
ATOM     19  O   UNL     1       1.533  11.822  20.927  0.00  0.00    +0.000 OA
ENDBRANCH  12  16
ENDBRANCH   5   9
BRANCH   6  20
ATOM     20  C   UNL     1       4.646   5.487  18.637  0.00  0.00    +0.000 A 
ATOM     21  C   UNL     1       4.565   6.065  17.362  0.00  0.00    +0.000 A 
ATOM     22  C   UNL     1       5.690   6.667  16.796  0.00  0.00    +0.000 A 
ATOM     23  C   UNL     1       6.885   6.687  17.504  0.00  0.00    +0.000 A 
ATOM     24  F   UNL     1       7.962   7.270  16.962  0.00  0.00    +0.000 F 
ATOM     25  C   UNL     1       6.981   6.113  18.767  0.00  0.00    +0.000 A 
ATOM     26  C   UNL     1       5.859   5.511  19.335  0.00  0.00    +0.000 A 
ENDBRANCH   6  20
TORSDOF 3
ENDMDL
MODEL 6
REMARK VINA RESULT:      -8.7      0.770      1.001
REMARK  Name = 
REMARK  6 active torsions:
REMARK  status: ('A' for Active; 'I' for Inactive)
REMARK    1  A    between atoms: C_1  and  C_2
REMARK    2  A    between atoms: C_2  and  C_3
REMARK    3  A    between atoms: C_5  and  C_6
REMARK    4  A    between atoms: C_9  and  S_10
REMARK    5  A    between atoms: S_10  and  C_11
REMARK    6  A    between atoms: C_17  and  C_18
REMARK                            x       y       z     vdW  Elec       q    Type
REMARK                         _______ _______ _______ _____ _____    ______ ____
ROOT
ATOM      1  C   UNL     1       1.913   2.653  21.539  0.00  0.00    +0.000 C 
ATOM      2  C   UNL     1       1.741   3.247  20.147  0.00  0.00    +0.000 C 
ATOM      3  C   UNL     1       0.789   2.429  19.286  0.00  0.00    +0.000 C 
ATOM      4  O   UNL     1       1.243   4.602  20.257  0.00  0.00    +0.000 OA
ATOM      5  C   UNL     1       2.227   5.416  19.704  0.00  0.00    +0.000 C 
ATOM      6  C   UNL     1       3.332   4.841  19.221  0.00  0.00    +0.000 C 
ATOM      7  C   UNL     1       3.077   3.419  19.467  0.00  0.00    +0.000 C 
ATOM      8  O   UNL     1       3.847   2.522  19.161  0.00  0.00    +0.000 OA
ENDROOT
BRANCH   5   9
ATOM      9  C   UNL     1       1.937   6.852  19.702  0.00  0.00    +0.000 A 
ATOM     10  C   UNL     1       1.601   7.512  20.893  0.00  0.00    +0.000 A 
ATOM     11  C   UNL     1       1.304   8.879  20.889  0.00  0.00    +0.000 A 
ATOM     12  C   UNL     1       1.349   9.592  19.688  0.00  0.00    +0.000 A 
ATOM     13  C   UNL     1       1.689   8.945  18.508  0.00  0.00    +0.000 A 
ATOM     14  F   UNL     1       1.749   9.612  17.348  0.00  0.00    +0.000 F 
ATOM     15  C   UNL     1       1.987   7.582  18.508  0.00  0.00    +0.000 A 
BRANCH  12  16
ATOM     16  S   UNL     1       0.935  11.308  19.650  0.00  0.00    +0.000 S 
ATOM     17  C   UNL     1       2.143  12.064  18.596  0.00  0.00    +0.000 C 
ATOM     18  O   UNL     1      -0.370  11.425  19.030  0.00  0.00    +0.000 OA
ATOM     19  O   UNL     1       1.160  11.830  20.987  0.00  0.00    +0.000 OA
ENDBRANCH  12  16
ENDBRANCH   5   9
BRANCH   6  20
ATOM     20  C   UNL     1       4.509   5.408  18.593  0.00  0.00    +0.000 A 
ATOM     21  C   UNL     1       5.719   5.473  19.297  0.00  0.00    +0.000 A 
ATOM     22  C   UNL     1       6.855   6.004  18.686  0.00  0.00    +0.000 A 
ATOM     23  C   UNL     1       6.776   6.467  17.378  0.00  0.00    +0.000 A 
ATOM     24  F   UNL     1       7.869   6.971  16.791  0.00  0.00    +0.000 F 
ATOM     25  C   UNL     1       5.582   6.414  16.669  0.00  0.00    +0.000 A 
ATOM     26  C   UNL     1       4.444   5.884  17.277  0.00  0.00    +0.000 A 
ENDBRANCH   6  20
TORSDOF 3
ENDMDL
MODEL 7
REMARK VINA RESULT:      -8.6      2.330      4.346
REMARK  Name = 
REMARK  6 active torsions:
REMARK  status: ('A' for Active; 'I' for Inactive)
REMARK    1  A    between atoms: C_1  and  C_2
REMARK    2  A    between atoms: C_2  and  C_3
REMARK    3  A    between atoms: C_5  and  C_6
REMARK    4  A    between atoms: C_9  and  S_10
REMARK    5  A    between atoms: S_10  and  C_11
REMARK    6  A    between atoms: C_17  and  C_18
REMARK                            x       y       z     vdW  Elec       q    Type
REMARK                         _______ _______ _______ _____ _____    ______ ____
ROOT
ATOM      1  C   UNL     1       5.120   5.558  15.169  0.00  0.00    +0.000 C 
ATOM      2  C   UNL     1       5.327   5.838  16.651  0.00  0.00    +0.000 C 
ATOM      3  C   UNL     1       6.788   6.104  16.987  0.00  0.00    +0.000 C 
ATOM      4  O   UNL     1       4.529   6.980  17.045  0.00  0.00    +0.000 OA
ATOM      5  C   UNL     1       3.626   6.507  17.992  0.00  0.00    +0.000 C 
ATOM      6  C   UNL     1       3.672   5.214  18.325  0.00  0.00    +0.000 C 
ATOM      7  C   UNL     1       4.771   4.716  17.494  0.00  0.00    +0.000 C 
ATOM      8  O   UNL     1       5.162   3.559  17.496  0.00  0.00    +0.000 OA
ENDROOT
BRANCH   5   9
ATOM      9  C   UNL     1       2.703   7.502  18.544  0.00  0.00    +0.000 A 
ATOM     10  C   UNL     1       2.280   7.416  19.878  0.00  0.00    +0.000 A 
ATOM     11  C   UNL     1       1.381   8.353  20.401  0.00  0.00    +0.000 A 
ATOM     12  C   UNL     1       0.909   9.386  19.585  0.00  0.00    +0.000 A 
ATOM     13  C   UNL     1       1.333   9.480  18.267  0.00  0.00    +0.000 A 
ATOM     14  F   UNL     1       0.901  10.468  17.473  0.00  0.00    +0.000 F 
ATOM     15  C   UNL     1       2.228   8.548  17.743  0.00  0.00    +0.000 A 
BRANCH  12  16
ATOM     16  S   UNL     1      -0.258  10.554  20.209  0.00  0.00    +0.000 S 
ATOM     17  C   UNL     1       0.588  12.113  20.213  0.00  0.00    +0.000 C 
ATOM     18  O   UNL     1      -1.355  10.617  19.264  0.00  0.00    +0.000 OA
ATOM     19  O   UNL     1      -0.506  10.210  21.599  0.00  0.00    +0.000 OA
ENDBRANCH  12  16
ENDBRANCH   5   9
BRANCH   6  20
ATOM     20  C   UNL     1       2.882   4.439  19.262  0.00  0.00    +0.000 A 
ATOM     21  C   UNL     1       3.398   4.132  20.529  0.00  0.00    +0.000 A 
ATOM     22  C   UNL     1       2.630   3.401  21.436  0.00  0.00    +0.000 A 
ATOM     23  C   UNL     1       1.356   2.981  21.074  0.00  0.00    +0.000 A 
ATOM     24  F   UNL     1       0.618   2.285  21.948  0.00  0.00    +0.000 F 
ATOM     25  C   UNL     1       0.834   3.275  19.819  0.00  0.00    +0.000 A 
ATOM     26  C   UNL     1       1.599   4.005  18.910  0.00  0.00    +0.000 A 
ENDBRANCH   6  20
TORSDOF 3
ENDMDL
MODEL 8
REMARK VINA RESULT:      -8.6      2.289      4.372
REMARK  Name = 
REMARK  6 active torsions:
REMARK  status: ('A' for Active; 'I' for Inactive)
REMARK    1  A    between atoms: C_1  and  C_2
REMARK    2  A    between atoms: C_2  and  C_3
REMARK    3  A    between atoms: C_5  and  C_6
REMARK    4  A    between atoms: C_9  and  S_10
REMARK    5  A    between atoms: S_10  and  C_11
REMARK    6  A    between atoms: C_17  and  C_18
REMARK                            x       y       z     vdW  Elec       q    Type
REMARK                         _______ _______ _______ _____ _____    ______ ____
ROOT
ATOM      1  C   UNL     1       5.119   5.424  15.171  0.00  0.00    +0.000 C 
ATOM      2  C   UNL     1       5.337   5.719  16.649  0.00  0.00    +0.000 C 
ATOM      3  C   UNL     1       6.805   5.946  16.980  0.00  0.00    +0.000 C 
ATOM      4  O   UNL     1       4.574   6.890  17.027  0.00  0.00    +0.000 OA
ATOM      5  C   UNL     1       3.659   6.458  17.982  0.00  0.00    +0.000 C 
ATOM      6  C   UNL     1       3.666   5.168  18.333  0.00  0.00    +0.000 C 
ATOM      7  C   UNL     1       4.749   4.626  17.508  0.00  0.00    +0.000 C 
ATOM      8  O   UNL     1       5.105   3.458  17.526  0.00  0.00    +0.000 OA
ENDROOT
BRANCH   5   9
ATOM      9  C   UNL     1       2.767   7.487  18.522  0.00  0.00    +0.000 A 
ATOM     10  C   UNL     1       2.287   7.395  19.836  0.00  0.00    +0.000 A 
ATOM     11  C   UNL     1       1.418   8.366  20.345  0.00  0.00    +0.000 A 
ATOM     12  C   UNL     1       1.033   9.440  19.536  0.00  0.00    +0.000 A 
ATOM     13  C   UNL     1       1.513   9.540  18.238  0.00  0.00    +0.000 A 
ATOM     14  F   UNL     1       1.165  10.566  17.452  0.00  0.00    +0.000 F 
ATOM     15  C   UNL     1       2.379   8.573  17.728  0.00  0.00    +0.000 A 
BRANCH  12  16
ATOM     16  S   UNL     1      -0.097  10.654  20.142  0.00  0.00    +0.000 S 
ATOM     17  C   UNL     1      -0.435  10.192  21.820  0.00  0.00    +0.000 C 
ATOM     18  O   UNL     1       0.592  11.929  20.134  0.00  0.00    +0.000 OA
ATOM     19  O   UNL     1      -1.338  10.488  19.405  0.00  0.00    +0.000 OA
ENDBRANCH  12  16
ENDBRANCH   5   9
BRANCH   6  20
ATOM     20  C   UNL     1       2.855   4.431  19.282  0.00  0.00    +0.000 A 
ATOM     21  C   UNL     1       1.598   3.942  18.901  0.00  0.00    +0.000 A 
ATOM     22  C   UNL     1       0.826   3.218  19.810  0.00  0.00    +0.000 A 
ATOM     23  C   UNL     1       1.312   2.988  21.092  0.00  0.00    +0.000 A 
ATOM     24  F   UNL     1       0.572   2.288  21.961  0.00  0.00    +0.000 F 
ATOM     25  C   UNL     1       2.555   3.471  21.485  0.00  0.00    +0.000 A 
ATOM     26  C   UNL     1       3.329   4.195  20.578  0.00  0.00    +0.000 A 
ENDBRANCH   6  20
TORSDOF 3
ENDMDL
MODEL 9
REMARK VINA RESULT:      -8.3      2.480      4.471
REMARK  Name = 
REMARK  6 active torsions:
REMARK  status: ('A' for Active; 'I' for Inactive)
REMARK    1  A    between atoms: C_1  and  C_2
REMARK    2  A    between atoms: C_2  and  C_3
REMARK    3  A    between atoms: C_5  and  C_6
REMARK    4  A    between atoms: C_9  and  S_10
REMARK    5  A    between atoms: S_10  and  C_11
REMARK    6  A    between atoms: C_17  and  C_18
REMARK                            x       y       z     vdW  Elec       q    Type
REMARK                         _______ _______ _______ _____ _____    ______ ____
ROOT
ATOM      1  C   UNL     1       5.144   5.184  14.884  0.00  0.00    +0.000 C 
ATOM      2  C   UNL     1       5.407   5.487  16.353  0.00  0.00    +0.000 C 
ATOM      3  C   UNL     1       6.891   5.649  16.650  0.00  0.00    +0.000 C 
ATOM      4  O   UNL     1       4.707   6.696  16.732  0.00  0.00    +0.000 OA
ATOM      5  C   UNL     1       3.794   6.318  17.711  0.00  0.00    +0.000 C 
ATOM      6  C   UNL     1       3.749   5.034  18.079  0.00  0.00    +0.000 C 
ATOM      7  C   UNL     1       4.788   4.432  17.239  0.00  0.00    +0.000 C 
ATOM      8  O   UNL     1       5.091   3.249  17.265  0.00  0.00    +0.000 OA
ENDROOT
BRANCH   5   9
ATOM      9  C   UNL     1       2.962   7.395  18.255  0.00  0.00    +0.000 A 
ATOM     10  C   UNL     1       2.663   8.523  17.479  0.00  0.00    +0.000 A 
ATOM     11  C   UNL     1       1.886   9.562  18.004  0.00  0.00    +0.000 A 
ATOM     12  C   UNL     1       1.401   9.467  19.312  0.00  0.00    +0.000 A 
ATOM     13  C   UNL     1       1.688   8.348  20.081  0.00  0.00    +0.000 A 
ATOM     14  F   UNL     1       1.223   8.233  21.332  0.00  0.00    +0.000 F 
ATOM     15  C   UNL     1       2.461   7.311  19.560  0.00  0.00    +0.000 A 
BRANCH  12  16
ATOM     16  S   UNL     1       0.457  10.785  20.012  0.00  0.00    +0.000 S 
ATOM     17  C   UNL     1      -1.177  10.130  20.234  0.00  0.00    +0.000 C 
ATOM     18  O   UNL     1       1.025  11.082  21.312  0.00  0.00    +0.000 OA
ATOM     19  O   UNL     1       0.357  11.823  19.001  0.00  0.00    +0.000 OA
ENDBRANCH  12  16
ENDBRANCH   5   9
BRANCH   6  20
ATOM     20  C   UNL     1       2.926   4.347  19.055  0.00  0.00    +0.000 A 
ATOM     21  C   UNL     1       3.443   4.046  20.323  0.00  0.00    +0.000 A 
ATOM     22  C   UNL     1       2.644   3.400  21.266  0.00  0.00    +0.000 A 
ATOM     23  C   UNL     1       1.337   3.058  20.939  0.00  0.00    +0.000 A 
ATOM     24  F   UNL     1       0.570   2.443  21.847  0.00  0.00    +0.000 F 
ATOM     25  C   UNL     1       0.814   3.345  19.684  0.00  0.00    +0.000 A 
ATOM     26  C   UNL     1       1.610   3.991  18.738  0.00  0.00    +0.000 A 
ENDBRANCH   6  20
TORSDOF 3
ENDMDL
