MODEL 1
REMARK VINA RESULT:      -7.9      0.000      0.000
REMARK  Name = 
REMARK  6 active torsions:
REMARK  status: ('A' for Active; 'I' for Inactive)
REMARK    1  A    between atoms: C_1  and  C_2
REMARK    2  A    between atoms: C_6  and  C_7
REMARK    3  A    between atoms: C_7  and  S_8
REMARK    4  A    between atoms: S_8  and  C_9
REMARK    5  A    between atoms: N_13  and  C_14
REMARK    6  A    between atoms: C_20  and  C_21
REMARK                            x       y       z     vdW  Elec       q    Type
REMARK                         _______ _______ _______ _____ _____    ______ ____
ROOT
ATOM      1  C   UNL     1       1.162   7.364  21.164  0.00  0.00    +0.000 C 
ATOM      2  C   UNL     1       1.970   6.723  20.068  0.00  0.00    +0.000 A 
ATOM      3  C   UNL     1       2.518   7.532  19.063  0.00  0.00    +0.000 A 
ATOM      4  C   UNL     1       3.272   6.981  18.023  0.00  0.00    +0.000 A 
ATOM      5  C   UNL     1       3.503   5.604  17.953  0.00  0.00    +0.000 A 
ATOM      6  C   UNL     1       4.329   4.973  16.904  0.00  0.00    +0.000 A 
ATOM      7  C   UNL     1       4.376   3.631  16.865  0.00  0.00    +0.000 A 
ATOM      8  C   UNL     1       3.703   2.765  17.842  0.00  0.00    +0.000 A 
ATOM      9  O   UNL     1       3.739   1.546  17.731  0.00  0.00    +0.000 OA
ATOM     10  O   UNL     1       3.070   3.397  18.895  0.00  0.00    +0.000 OA
ATOM     11  C   UNL     1       2.933   4.803  18.951  0.00  0.00    +0.000 A 
ATOM     12  C   UNL     1       2.188   5.332  20.025  0.00  0.00    +0.000 A 
ATOM     13  C   UNL     1       1.640   4.443  21.110  0.00  0.00    +0.000 C 
ENDROOT
BRANCH   6  14
ATOM     14  C   UNL     1       5.097   5.802  15.897  0.00  0.00    +0.000 C 
BRANCH  14  15
ATOM     15  S   UNL     1       6.804   5.174  15.774  0.00  0.00    +0.000 S 
BRANCH  15  16
ATOM     16  C   UNL     1       7.367   5.356  17.393  0.00  0.00    +0.000 A 
ATOM     17  N   UNL     1       7.602   4.409  18.270  0.00  0.00    +0.000 NA
ATOM     18  N   UNL     1       7.986   5.018  19.446  0.00  0.00    +0.000 NA
ATOM     19  C   UNL     1       7.973   6.318  19.247  0.00  0.00    +0.000 A 
ATOM     20  N   UNL     1       7.610   6.575  17.957  0.00  0.00    +0.000 N 
ATOM     21  C   UNL     1       7.527   7.872  17.344  0.00  0.00    +0.000 C 
ENDBRANCH  15  16
ENDBRANCH  14  15
ENDBRANCH   6  14
TORSDOF 3
ENDMDL
MODEL 2
REMARK VINA RESULT:      -7.8      2.896      4.201
REMARK  Name = 
REMARK  6 active torsions:
REMARK  status: ('A' for Active; 'I' for Inactive)
REMARK    1  A    between atoms: C_1  and  C_2
REMARK    2  A    between atoms: C_6  and  C_7
REMARK    3  A    between atoms: C_7  and  S_8
REMARK    4  A    between atoms: S_8  and  C_9
REMARK    5  A    between atoms: N_13  and  C_14
REMARK    6  A    between atoms: C_20  and  C_21
REMARK                            x       y       z     vdW  Elec       q    Type
REMARK                         _______ _______ _______ _____ _____    ______ ____
ROOT
ATOM      1  C   UNL     1       1.925   2.501  21.817  0.00  0.00    +0.000 C 
ATOM      2  C   UNL     1       2.714   3.198  20.742  0.00  0.00    +0.000 A 
ATOM      3  C   UNL     1       3.879   2.594  20.251  0.00  0.00    +0.000 A 
ATOM      4  C   UNL     1       4.646   3.206  19.256  0.00  0.00    +0.000 A 
ATOM      5  C   UNL     1       4.275   4.442  18.719  0.00  0.00    +0.000 A 
ATOM      6  C   UNL     1       5.021   5.112  17.635  0.00  0.00    +0.000 A 
ATOM      7  C   UNL     1       4.642   6.354  17.287  0.00  0.00    +0.000 A 
ATOM      8  C   UNL     1       3.494   7.050  17.882  0.00  0.00    +0.000 A 
ATOM      9  O   UNL     1       3.224   8.201  17.562  0.00  0.00    +0.000 OA
ATOM     10  O   UNL     1       2.732   6.329  18.781  0.00  0.00    +0.000 OA
ATOM     11  C   UNL     1       3.120   5.047  19.231  0.00  0.00    +0.000 A 
ATOM     12  C   UNL     1       2.312   4.443  20.217  0.00  0.00    +0.000 A 
ATOM     13  C   UNL     1       1.046   5.100  20.702  0.00  0.00    +0.000 C 
ENDROOT
BRANCH   6  14
ATOM     14  C   UNL     1       6.180   4.434  16.936  0.00  0.00    +0.000 C 
BRANCH  14  15
ATOM     15  S   UNL     1       5.620   3.790  15.325  0.00  0.00    +0.000 S 
BRANCH  15  16
ATOM     16  C   UNL     1       6.749   4.512  14.243  0.00  0.00    +0.000 A 
ATOM     17  N   UNL     1       7.667   5.407  14.522  0.00  0.00    +0.000 NA
ATOM     18  N   UNL     1       8.301   5.735  13.342  0.00  0.00    +0.000 NA
ATOM     19  C   UNL     1       7.750   5.028  12.381  0.00  0.00    +0.000 A 
ATOM     20  N   UNL     1       6.780   4.225  12.908  0.00  0.00    +0.000 N 
ATOM     21  C   UNL     1       5.985   3.271  12.184  0.00  0.00    +0.000 C 
ENDBRANCH  15  16
ENDBRANCH  14  15
ENDBRANCH   6  14
TORSDOF 3
ENDMDL
MODEL 3
REMARK VINA RESULT:      -7.7      3.798      6.544
REMARK  Name = 
REMARK  6 active torsions:
REMARK  status: ('A' for Active; 'I' for Inactive)
REMARK    1  A    between atoms: C_1  and  C_2
REMARK    2  A    between atoms: C_6  and  C_7
REMARK    3  A    between atoms: C_7  and  S_8
REMARK    4  A    between atoms: S_8  and  C_9
REMARK    5  A    between atoms: N_13  and  C_14
REMARK    6  A    between atoms: C_20  and  C_21
REMARK                            x       y       z     vdW  Elec       q    Type
REMARK                         _______ _______ _______ _____ _____    ______ ____
ROOT
ATOM      1  C   UNL     1       6.099   3.418  12.559  0.00  0.00    +0.000 C 
ATOM      2  C   UNL     1       6.086   3.906  13.983  0.00  0.00    +0.000 A 
ATOM      3  C   UNL     1       5.217   3.302  14.901  0.00  0.00    +0.000 A 
ATOM      4  C   UNL     1       5.167   3.724  16.233  0.00  0.00    +0.000 A 
ATOM      5  C   UNL     1       5.983   4.763  16.690  0.00  0.00    +0.000 A 
ATOM      6  C   UNL     1       6.005   5.218  18.095  0.00  0.00    +0.000 A 
ATOM      7  C   UNL     1       6.736   6.306  18.390  0.00  0.00    +0.000 A 
ATOM      8  C   UNL     1       7.557   7.025  17.407  0.00  0.00    +0.000 A 
ATOM      9  O   UNL     1       8.165   8.041  17.720  0.00  0.00    +0.000 OA
ATOM     10  O   UNL     1       7.629   6.475  16.141  0.00  0.00    +0.000 OA
ATOM     11  C   UNL     1       6.832   5.373  15.758  0.00  0.00    +0.000 A 
ATOM     12  C   UNL     1       6.923   4.953  14.415  0.00  0.00    +0.000 A 
ATOM     13  C   UNL     1       7.890   5.598  13.457  0.00  0.00    +0.000 C 
ENDROOT
BRANCH   6  14
ATOM     14  C   UNL     1       5.229   4.493  19.173  0.00  0.00    +0.000 C 
BRANCH  14  15
ATOM     15  S   UNL     1       3.675   5.386  19.503  0.00  0.00    +0.000 S 
BRANCH  15  16
ATOM     16  C   UNL     1       2.492   4.222  19.041  0.00  0.00    +0.000 A 
ATOM     17  N   UNL     1       1.886   4.111  17.882  0.00  0.00    +0.000 NA
ATOM     18  N   UNL     1       0.984   3.073  17.982  0.00  0.00    +0.000 NA
ATOM     19  C   UNL     1       1.068   2.584  19.200  0.00  0.00    +0.000 A 
ATOM     20  N   UNL     1       2.025   3.264  19.896  0.00  0.00    +0.000 N 
ATOM     21  C   UNL     1       2.444   2.994  21.243  0.00  0.00    +0.000 C 
ENDBRANCH  15  16
ENDBRANCH  14  15
ENDBRANCH   6  14
TORSDOF 3
ENDMDL
MODEL 4
REMARK VINA RESULT:      -7.7      1.617      2.836
REMARK  Name = 
REMARK  6 active torsions:
REMARK  status: ('A' for Active; 'I' for Inactive)
REMARK    1  A    between atoms: C_1  and  C_2
REMARK    2  A    between atoms: C_6  and  C_7
REMARK    3  A    between atoms: C_7  and  S_8
REMARK    4  A    between atoms: S_8  and  C_9
REMARK    5  A    between atoms: N_13  and  C_14
REMARK    6  A    between atoms: C_20  and  C_21
REMARK                            x       y       z     vdW  Elec       q    Type
REMARK                         _______ _______ _______ _____ _____    ______ ____
ROOT
ATOM      1  C   UNL     1       1.634   2.558  21.547  0.00  0.00    +0.000 C 
ATOM      2  C   UNL     1       2.342   3.230  20.401  0.00  0.00    +0.000 A 
ATOM      3  C   UNL     1       3.260   2.492  19.641  0.00  0.00    +0.000 A 
ATOM      4  C   UNL     1       3.944   3.074  18.571  0.00  0.00    +0.000 A 
ATOM      5  C   UNL     1       3.735   4.412  18.224  0.00  0.00    +0.000 A 
ATOM      6  C   UNL     1       4.395   5.066  17.076  0.00  0.00    +0.000 A 
ATOM      7  C   UNL     1       4.213   6.387  16.917  0.00  0.00    +0.000 A 
ATOM      8  C   UNL     1       3.349   7.199  17.784  0.00  0.00    +0.000 A 
ATOM      9  O   UNL     1       3.258   8.410  17.623  0.00  0.00    +0.000 OA
ATOM     10  O   UNL     1       2.630   6.522  18.750  0.00  0.00    +0.000 OA
ATOM     11  C   UNL     1       2.832   5.145  19.004  0.00  0.00    +0.000 A 
ATOM     12  C   UNL     1       2.108   4.580  20.074  0.00  0.00    +0.000 A 
ATOM     13  C   UNL     1       1.103   5.388  20.853  0.00  0.00    +0.000 C 
ENDROOT
BRANCH   6  14
ATOM     14  C   UNL     1       5.254   4.282  16.107  0.00  0.00    +0.000 C 
BRANCH  14  15
ATOM     15  S   UNL     1       6.806   5.190  15.805  0.00  0.00    +0.000 S 
BRANCH  15  16
ATOM     16  C   UNL     1       7.417   5.390  17.404  0.00  0.00    +0.000 A 
ATOM     17  N   UNL     1       7.695   4.452  18.279  0.00  0.00    +0.000 NA
ATOM     18  N   UNL     1       8.107   5.074  19.438  0.00  0.00    +0.000 NA
ATOM     19  C   UNL     1       8.067   6.372  19.233  0.00  0.00    +0.000 A 
ATOM     20  N   UNL     1       7.659   6.616  17.954  0.00  0.00    +0.000 N 
ATOM     21  C   UNL     1       7.536   7.908  17.337  0.00  0.00    +0.000 C 
ENDBRANCH  15  16
ENDBRANCH  14  15
ENDBRANCH   6  14
TORSDOF 3
ENDMDL
MODEL 5
REMARK VINA RESULT:      -7.6      3.871      6.538
REMARK  Name = 
REMARK  6 active torsions:
REMARK  status: ('A' for Active; 'I' for Inactive)
REMARK    1  A    between atoms: C_1  and  C_2
REMARK    2  A    between atoms: C_6  and  C_7
REMARK    3  A    between atoms: C_7  and  S_8
REMARK    4  A    between atoms: S_8  and  C_9
REMARK    5  A    between atoms: N_13  and  C_14
REMARK    6  A    between atoms: C_20  and  C_21
REMARK                            x       y       z     vdW  Elec       q    Type
REMARK                         _______ _______ _______ _____ _____    ______ ____
ROOT
ATOM      1  C   UNL     1       6.274   3.491  12.424  0.00  0.00    +0.000 C 
ATOM      2  C   UNL     1       6.183   3.952  13.854  0.00  0.00    +0.000 A 
ATOM      3  C   UNL     1       5.250   3.346  14.707  0.00  0.00    +0.000 A 
ATOM      4  C   UNL     1       5.127   3.743  16.042  0.00  0.00    +0.000 A 
ATOM      5  C   UNL     1       5.931   4.759  16.568  0.00  0.00    +0.000 A 
ATOM      6  C   UNL     1       5.876   5.186  17.980  0.00  0.00    +0.000 A 
ATOM      7  C   UNL     1       6.605   6.256  18.340  0.00  0.00    +0.000 A 
ATOM      8  C   UNL     1       7.495   6.980  17.423  0.00  0.00    +0.000 A 
ATOM      9  O   UNL     1       8.100   7.979  17.792  0.00  0.00    +0.000 OA
ATOM     10  O   UNL     1       7.635   6.453  16.153  0.00  0.00    +0.000 OA
ATOM     11  C   UNL     1       6.844   5.371  15.701  0.00  0.00    +0.000 A 
ATOM     12  C   UNL     1       7.009   4.976  14.357  0.00  0.00    +0.000 A 
ATOM     13  C   UNL     1       8.043   5.622  13.472  0.00  0.00    +0.000 C 
ENDROOT
BRANCH   6  14
ATOM     14  C   UNL     1       5.025   4.454  18.995  0.00  0.00    +0.000 C 
BRANCH  14  15
ATOM     15  S   UNL     1       3.702   5.561  19.584  0.00  0.00    +0.000 S 
BRANCH  15  16
ATOM     16  C   UNL     1       2.490   4.437  20.072  0.00  0.00    +0.000 A 
ATOM     17  N   UNL     1       2.260   3.981  21.280  0.00  0.00    +0.000 NA
ATOM     18  N   UNL     1       1.233   3.065  21.191  0.00  0.00    +0.000 NA
ATOM     19  C   UNL     1       0.868   2.994  19.929  0.00  0.00    +0.000 A 
ATOM     20  N   UNL     1       1.620   3.860  19.191  0.00  0.00    +0.000 N 
ATOM     21  C   UNL     1       1.489   4.105  17.781  0.00  0.00    +0.000 C 
ENDBRANCH  15  16
ENDBRANCH  14  15
ENDBRANCH   6  14
TORSDOF 3
ENDMDL
MODEL 6
REMARK VINA RESULT:      -7.6      1.885      2.849
REMARK  Name = 
REMARK  6 active torsions:
REMARK  status: ('A' for Active; 'I' for Inactive)
REMARK    1  A    between atoms: C_1  and  C_2
REMARK    2  A    between atoms: C_6  and  C_7
REMARK    3  A    between atoms: C_7  and  S_8
REMARK    4  A    between atoms: S_8  and  C_9
REMARK    5  A    between atoms: N_13  and  C_14
REMARK    6  A    between atoms: C_20  and  C_21
REMARK                            x       y       z     vdW  Elec       q    Type
REMARK                         _______ _______ _______ _____ _____    ______ ____
ROOT
ATOM      1  C   UNL     1       0.698  10.933  19.839  0.00  0.00    +0.000 C 
ATOM      2  C   UNL     1       1.265   9.574  19.527  0.00  0.00    +0.000 A 
ATOM      3  C   UNL     1       1.814   9.338  18.260  0.00  0.00    +0.000 A 
ATOM      4  C   UNL     1       2.349   8.091  17.924  0.00  0.00    +0.000 A 
ATOM      5  C   UNL     1       2.351   7.038  18.844  0.00  0.00    +0.000 A 
ATOM      6  C   UNL     1       2.942   5.715  18.560  0.00  0.00    +0.000 A 
ATOM      7  C   UNL     1       2.772   4.743  19.472  0.00  0.00    +0.000 A 
ATOM      8  C   UNL     1       2.087   4.943  20.755  0.00  0.00    +0.000 A 
ATOM      9  O   UNL     1       1.918   4.009  21.529  0.00  0.00    +0.000 OA
ATOM     10  O   UNL     1       1.686   6.233  21.047  0.00  0.00    +0.000 OA
ATOM     11  C   UNL     1       1.779   7.278  20.100  0.00  0.00    +0.000 A 
ATOM     12  C   UNL     1       1.255   8.532  20.476  0.00  0.00    +0.000 A 
ATOM     13  C   UNL     1       0.700   8.766  21.857  0.00  0.00    +0.000 C 
ENDROOT
BRANCH   6  14
ATOM     14  C   UNL     1       3.711   5.451  17.283  0.00  0.00    +0.000 C 
BRANCH  14  15
ATOM     15  S   UNL     1       4.854   4.055  17.544  0.00  0.00    +0.000 S 
BRANCH  15  16
ATOM     16  C   UNL     1       6.136   4.804  18.418  0.00  0.00    +0.000 A 
ATOM     17  N   UNL     1       6.373   4.741  19.707  0.00  0.00    +0.000 NA
ATOM     18  N   UNL     1       7.469   5.535  19.969  0.00  0.00    +0.000 NA
ATOM     19  C   UNL     1       7.867   6.057  18.829  0.00  0.00    +0.000 A 
ATOM     20  N   UNL     1       7.068   5.604  17.820  0.00  0.00    +0.000 N 
ATOM     21  C   UNL     1       7.213   5.910  16.424  0.00  0.00    +0.000 C 
ENDBRANCH  15  16
ENDBRANCH  14  15
ENDBRANCH   6  14
TORSDOF 3
ENDMDL
MODEL 7
REMARK VINA RESULT:      -7.4      2.360      3.707
REMARK  Name = 
REMARK  6 active torsions:
REMARK  status: ('A' for Active; 'I' for Inactive)
REMARK    1  A    between atoms: C_1  and  C_2
REMARK    2  A    between atoms: C_6  and  C_7
REMARK    3  A    between atoms: C_7  and  S_8
REMARK    4  A    between atoms: S_8  and  C_9
REMARK    5  A    between atoms: N_13  and  C_14
REMARK    6  A    between atoms: C_20  and  C_21
REMARK                            x       y       z     vdW  Elec       q    Type
REMARK                         _______ _______ _______ _____ _____    ______ ____
ROOT
ATOM      1  C   UNL     1      -0.264  11.226  20.025  0.00  0.00    +0.000 C 
ATOM      2  C   UNL     1       0.610  10.055  19.663  0.00  0.00    +0.000 A 
ATOM      3  C   UNL     1       1.347  10.098  18.472  0.00  0.00    +0.000 A 
ATOM      4  C   UNL     1       2.168   9.033  18.092  0.00  0.00    +0.000 A 
ATOM      5  C   UNL     1       2.280   7.890  18.890  0.00  0.00    +0.000 A 
ATOM      6  C   UNL     1       3.166   6.755  18.561  0.00  0.00    +0.000 A 
ATOM      7  C   UNL     1       3.095   5.659  19.335  0.00  0.00    +0.000 A 
ATOM      8  C   UNL     1       2.232   5.554  20.519  0.00  0.00    +0.000 A 
ATOM      9  O   UNL     1       2.170   4.513  21.160  0.00  0.00    +0.000 OA
ATOM     10  O   UNL     1       1.535   6.692  20.879  0.00  0.00    +0.000 OA
ATOM     11  C   UNL     1       1.522   7.849  20.067  0.00  0.00    +0.000 A 
ATOM     12  C   UNL     1       0.703   8.918  20.489  0.00  0.00    +0.000 A 
ATOM     13  C   UNL     1      -0.052   8.858  21.791  0.00  0.00    +0.000 C 
ENDROOT
BRANCH   6  14
ATOM     14  C   UNL     1       4.123   6.814  17.390  0.00  0.00    +0.000 C 
BRANCH  14  15
ATOM     15  S   UNL     1       5.776   6.270  17.934  0.00  0.00    +0.000 S 
BRANCH  15  16
ATOM     16  C   UNL     1       6.412   5.571  16.492  0.00  0.00    +0.000 A 
ATOM     17  N   UNL     1       7.414   6.006  15.765  0.00  0.00    +0.000 NA
ATOM     18  N   UNL     1       7.535   5.165  14.679  0.00  0.00    +0.000 NA
ATOM     19  C   UNL     1       6.603   4.243  14.780  0.00  0.00    +0.000 A 
ATOM     20  N   UNL     1       5.885   4.448  15.922  0.00  0.00    +0.000 N 
ATOM     21  C   UNL     1       4.813   3.623  16.406  0.00  0.00    +0.000 C 
ENDBRANCH  15  16
ENDBRANCH  14  15
ENDBRANCH   6  14
TORSDOF 3
ENDMDL
MODEL 8
REMARK VINA RESULT:      -7.3      2.455      3.183
REMARK  Name = 
REMARK  6 active torsions:
REMARK  status: ('A' for Active; 'I' for Inactive)
REMARK    1  A    between atoms: C_1  and  C_2
REMARK    2  A    between atoms: C_6  and  C_7
REMARK    3  A    between atoms: C_7  and  S_8
REMARK    4  A    between atoms: S_8  and  C_9
REMARK    5  A    between atoms: N_13  and  C_14
REMARK    6  A    between atoms: C_20  and  C_21
REMARK                            x       y       z     vdW  Elec       q    Type
REMARK                         _______ _______ _______ _____ _____    ______ ____
ROOT
ATOM      1  C   UNL     1       1.488   7.915  20.796  0.00  0.00    +0.000 C 
ATOM      2  C   UNL     1       2.192   7.034  19.800  0.00  0.00    +0.000 A 
ATOM      3  C   UNL     1       2.793   7.618  18.677  0.00  0.00    +0.000 A 
ATOM      4  C   UNL     1       3.455   6.839  17.724  0.00  0.00    +0.000 A 
ATOM      5  C   UNL     1       3.538   5.450  17.861  0.00  0.00    +0.000 A 
ATOM      6  C   UNL     1       4.263   4.584  16.911  0.00  0.00    +0.000 A 
ATOM      7  C   UNL     1       4.168   3.254  17.076  0.00  0.00    +0.000 A 
ATOM      8  C   UNL     1       3.435   2.622  18.181  0.00  0.00    +0.000 A 
ATOM      9  O   UNL     1       3.340   1.404  18.256  0.00  0.00    +0.000 OA
ATOM     10  O   UNL     1       2.902   3.470  19.134  0.00  0.00    +0.000 OA
ATOM     11  C   UNL     1       2.916   4.875  18.976  0.00  0.00    +0.000 A 
ATOM     12  C   UNL     1       2.262   5.636  19.967  0.00  0.00    +0.000 A 
ATOM     13  C   UNL     1       1.654   4.984  21.181  0.00  0.00    +0.000 C 
ENDROOT
BRANCH   6  14
ATOM     14  C   UNL     1       5.085   5.165  15.780  0.00  0.00    +0.000 C 
BRANCH  14  15
ATOM     15  S   UNL     1       6.670   4.272  15.665  0.00  0.00    +0.000 S 
BRANCH  15  16
ATOM     16  C   UNL     1       7.285   4.833  14.156  0.00  0.00    +0.000 A 
ATOM     17  N   UNL     1       8.209   5.743  13.956  0.00  0.00    +0.000 NA
ATOM     18  N   UNL     1       8.342   5.908  12.594  0.00  0.00    +0.000 NA
ATOM     19  C   UNL     1       7.495   5.092  12.006  0.00  0.00    +0.000 A 
ATOM     20  N   UNL     1       6.823   4.377  12.955  0.00  0.00    +0.000 N 
ATOM     21  C   UNL     1       5.847   3.352  12.708  0.00  0.00    +0.000 C 
ENDBRANCH  15  16
ENDBRANCH  14  15
ENDBRANCH   6  14
TORSDOF 3
ENDMDL
MODEL 9
REMARK VINA RESULT:      -7.3      1.244      1.888
REMARK  Name = 
REMARK  6 active torsions:
REMARK  status: ('A' for Active; 'I' for Inactive)
REMARK    1  A    between atoms: C_1  and  C_2
REMARK    2  A    between atoms: C_6  and  C_7
REMARK    3  A    between atoms: C_7  and  S_8
REMARK    4  A    between atoms: S_8  and  C_9
REMARK    5  A    between atoms: N_13  and  C_14
REMARK    6  A    between atoms: C_20  and  C_21
REMARK                            x       y       z     vdW  Elec       q    Type
REMARK                         _______ _______ _______ _____ _____    ______ ____
ROOT
ATOM      1  C   UNL     1       1.339   9.257  19.538  0.00  0.00    +0.000 C 
ATOM      2  C   UNL     1       2.085   8.059  19.014  0.00  0.00    +0.000 A 
ATOM      3  C   UNL     1       2.772   8.163  17.797  0.00  0.00    +0.000 A 
ATOM      4  C   UNL     1       3.475   7.077  17.269  0.00  0.00    +0.000 A 
ATOM      5  C   UNL     1       3.515   5.850  17.940  0.00  0.00    +0.000 A 
ATOM      6  C   UNL     1       4.279   4.684  17.453  0.00  0.00    +0.000 A 
ATOM      7  C   UNL     1       4.140   3.523  18.114  0.00  0.00    +0.000 A 
ATOM      8  C   UNL     1       3.322   3.369  19.324  0.00  0.00    +0.000 A 
ATOM      9  O   UNL     1       3.191   2.274  19.858  0.00  0.00    +0.000 OA
ATOM     10  O   UNL     1       2.749   4.518  19.833  0.00  0.00    +0.000 OA
ATOM     11  C   UNL     1       2.807   5.752  19.144  0.00  0.00    +0.000 A 
ATOM     12  C   UNL     1       2.109   6.837  19.714  0.00  0.00    +0.000 A 
ATOM     13  C   UNL     1       1.407   6.706  21.040  0.00  0.00    +0.000 C 
ENDROOT
BRANCH   6  14
ATOM     14  C   UNL     1       5.187   4.782  16.245  0.00  0.00    +0.000 C 
BRANCH  14  15
ATOM     15  S   UNL     1       6.912   4.497  16.763  0.00  0.00    +0.000 S 
BRANCH  15  16
ATOM     16  C   UNL     1       7.400   6.076  17.251  0.00  0.00    +0.000 A 
ATOM     17  N   UNL     1       7.542   7.140  16.497  0.00  0.00    +0.000 NA
ATOM     18  N   UNL     1       8.000   8.162  17.301  0.00  0.00    +0.000 NA
ATOM     19  C   UNL     1       8.122   7.688  18.521  0.00  0.00    +0.000 A 
ATOM     20  N   UNL     1       7.732   6.381  18.540  0.00  0.00    +0.000 N 
ATOM     21  C   UNL     1       7.676   5.531  19.697  0.00  0.00    +0.000 C 
ENDBRANCH  15  16
ENDBRANCH  14  15
ENDBRANCH   6  14
TORSDOF 3
ENDMDL
