MODEL 1
REMARK VINA RESULT:      -6.7      0.000      0.000
REMARK  Name = 
REMARK  7 active torsions:
REMARK  status: ('A' for Active; 'I' for Inactive)
REMARK    1  A    between atoms: C_1  and  C_2
REMARK    2  A    between atoms: C_2  and  C_3
REMARK    3  A    between atoms: C_2  and  O_4
REMARK    4  A    between atoms: C_2  and  C_5
REMARK    5  A    between atoms: N_7  and  C_8
REMARK    6  A    between atoms: C_12  and  C_13
REMARK    7  A    between atoms: C_12  and  C_14
REMARK                            x       y       z     vdW  Elec       q    Type
REMARK                         _______ _______ _______ _____ _____    ______ ____
ROOT
ATOM      1  C   UNL     1      -1.672  12.730  21.202  0.00  0.00    +0.000 C 
ATOM      2  C   UNL     1      -0.871  11.543  20.825  0.00  0.00    +0.000 C 
ATOM      3  C   UNL     1      -0.423  10.921  21.906  0.00  0.00    +0.000 C 
ATOM      4  O   UNL     1      -0.833  11.457  23.120  0.00  0.00    +0.000 OA
ATOM      5  C   UNL     1      -1.677  12.595  22.761  0.00  0.00    +0.000 C 
ATOM      6  C   UNL     1      -3.088  12.274  23.280  0.00  0.00    +0.000 C 
ATOM      7  C   UNL     1      -1.137  13.801  23.540  0.00  0.00    +0.000 C 
ATOM      8  C   UNL     1       0.471   9.749  21.825  0.00  0.00    +0.000 C 
ATOM      9  O   UNL     1       0.851   9.146  22.819  0.00  0.00    +0.000 OA
ATOM     10  C   UNL     1       0.888   9.337  20.462  0.00  0.00    +0.000 A 
ATOM     11  C   UNL     1       1.778   8.263  20.315  0.00  0.00    +0.000 A 
ATOM     12  C   UNL     1       2.181   7.859  19.042  0.00  0.00    +0.000 A 
ATOM     13  C   UNL     1       1.701   8.523  17.913  0.00  0.00    +0.000 A 
ATOM     14  C   UNL     1       0.812   9.593  18.052  0.00  0.00    +0.000 A 
ATOM     15  C   UNL     1       0.404  10.000  19.327  0.00  0.00    +0.000 A 
ATOM     16  C   UNL     1      -0.552  11.124  19.465  0.00  0.00    +0.000 C 
ATOM     17  O   UNL     1      -1.079  11.657  18.499  0.00  0.00    +0.000 OA
ENDROOT
BRANCH   1  20
ATOM     18  C   UNL     1      -0.834  15.943  19.849  0.00  0.00    +0.000 A 
ATOM     19  C   UNL     1      -1.808  15.086  20.315  0.00  0.00    +0.000 A 
ATOM     20  N   UNL     1      -1.121  13.969  20.684  0.00  0.00    +0.000 N 
ATOM     21  N   UNL     1       0.204  14.135  20.510  0.00  0.00    +0.000 NA
ATOM     22  N   UNL     1       0.390  15.335  19.980  0.00  0.00    +0.000 NA
BRANCH  18  24
ATOM     23  C   UNL     1      -2.414  17.810  19.347  0.00  0.00    +0.000 C 
ATOM     24  C   UNL     1      -0.961  17.322  19.274  0.00  0.00    +0.000 C 
ATOM     25  C   UNL     1      -0.466  17.359  17.825  0.00  0.00    +0.000 C 
BRANCH  24  26
ATOM     26  O   UNL     1      -0.157  18.251  20.023  0.00  0.00    +0.000 OA
ATOM     27  H   UNL     1      -0.663  19.076  20.097  0.00  0.00    +0.000 HD
ENDBRANCH  24  26
ENDBRANCH  18  24
ENDBRANCH   1  20
TORSDOF 3
ENDMDL
MODEL 2
REMARK VINA RESULT:      -6.5      0.748      1.037
REMARK  Name = 
REMARK  7 active torsions:
REMARK  status: ('A' for Active; 'I' for Inactive)
REMARK    1  A    between atoms: C_1  and  C_2
REMARK    2  A    between atoms: C_2  and  C_3
REMARK    3  A    between atoms: C_2  and  O_4
REMARK    4  A    between atoms: C_2  and  C_5
REMARK    5  A    between atoms: N_7  and  C_8
REMARK    6  A    between atoms: C_12  and  C_13
REMARK    7  A    between atoms: C_12  and  C_14
REMARK                            x       y       z     vdW  Elec       q    Type
REMARK                         _______ _______ _______ _____ _____    ______ ____
ROOT
ATOM      1  C   UNL     1      -1.478  12.867  21.104  0.00  0.00    +0.000 C 
ATOM      2  C   UNL     1      -0.736  11.627  20.783  0.00  0.00    +0.000 C 
ATOM      3  C   UNL     1      -0.441  10.961  21.891  0.00  0.00    +0.000 C 
ATOM      4  O   UNL     1      -0.924  11.514  23.069  0.00  0.00    +0.000 OA
ATOM      5  C   UNL     1      -1.641  12.717  22.653  0.00  0.00    +0.000 C 
ATOM      6  C   UNL     1      -3.115  12.500  23.031  0.00  0.00    +0.000 C 
ATOM      7  C   UNL     1      -1.088  13.870  23.501  0.00  0.00    +0.000 C 
ATOM      8  C   UNL     1       0.365   9.724  21.873  0.00  0.00    +0.000 C 
ATOM      9  O   UNL     1       0.602   9.084  22.887  0.00  0.00    +0.000 OA
ATOM     10  C   UNL     1       0.878   9.296  20.548  0.00  0.00    +0.000 A 
ATOM     11  C   UNL     1       1.694   8.159  20.467  0.00  0.00    +0.000 A 
ATOM     12  C   UNL     1       2.186   7.738  19.230  0.00  0.00    +0.000 A 
ATOM     13  C   UNL     1       1.866   8.449  18.073  0.00  0.00    +0.000 A 
ATOM     14  C   UNL     1       1.051   9.582  18.147  0.00  0.00    +0.000 A 
ATOM     15  C   UNL     1       0.556  10.007  19.385  0.00  0.00    +0.000 A 
ATOM     16  C   UNL     1      -0.321  11.199  19.452  0.00  0.00    +0.000 C 
ATOM     17  O   UNL     1      -0.712  11.781  18.451  0.00  0.00    +0.000 OA
ENDROOT
BRANCH   1  20
ATOM     18  C   UNL     1      -0.266  15.996  19.836  0.00  0.00    +0.000 A 
ATOM     19  C   UNL     1      -1.346  15.191  20.136  0.00  0.00    +0.000 A 
ATOM     20  N   UNL     1      -0.788  14.066  20.662  0.00  0.00    +0.000 N 
ATOM     21  N   UNL     1       0.552  14.179  20.738  0.00  0.00    +0.000 NA
ATOM     22  N   UNL     1       0.885  15.351  20.217  0.00  0.00    +0.000 NA
BRANCH  18  24
ATOM     23  C   UNL     1       1.222  17.825  19.016  0.00  0.00    +0.000 C 
ATOM     24  C   UNL     1      -0.226  17.356  19.206  0.00  0.00    +0.000 C 
ATOM     25  C   UNL     1      -1.003  18.372  20.050  0.00  0.00    +0.000 C 
BRANCH  24  26
ATOM     26  O   UNL     1      -0.842  17.322  17.906  0.00  0.00    +0.000 OA
ATOM     27  H   UNL     1      -1.177  18.214  17.722  0.00  0.00    +0.000 HD
ENDBRANCH  24  26
ENDBRANCH  18  24
ENDBRANCH   1  20
TORSDOF 3
ENDMDL
MODEL 3
REMARK VINA RESULT:      -6.5      1.385      1.509
REMARK  Name = 
REMARK  7 active torsions:
REMARK  status: ('A' for Active; 'I' for Inactive)
REMARK    1  A    between atoms: C_1  and  C_2
REMARK    2  A    between atoms: C_2  and  C_3
REMARK    3  A    between atoms: C_2  and  O_4
REMARK    4  A    between atoms: C_2  and  C_5
REMARK    5  A    between atoms: N_7  and  C_8
REMARK    6  A    between atoms: C_12  and  C_13
REMARK    7  A    between atoms: C_12  and  C_14
REMARK                            x       y       z     vdW  Elec       q    Type
REMARK                         _______ _______ _______ _____ _____    ______ ____
ROOT
ATOM      1  C   UNL     1      -1.540  12.758  21.093  0.00  0.00    +0.000 C 
ATOM      2  C   UNL     1      -0.768  11.543  20.748  0.00  0.00    +0.000 C 
ATOM      3  C   UNL     1      -0.407  10.892  21.845  0.00  0.00    +0.000 C 
ATOM      4  O   UNL     1      -0.863  11.434  23.040  0.00  0.00    +0.000 OA
ATOM      5  C   UNL     1      -1.637  12.610  22.648  0.00  0.00    +0.000 C 
ATOM      6  C   UNL     1      -3.087  12.344  23.084  0.00  0.00    +0.000 C 
ATOM      7  C   UNL     1      -1.092  13.785  23.470  0.00  0.00    +0.000 C 
ATOM      8  C   UNL     1       0.440   9.685  21.801  0.00  0.00    +0.000 C 
ATOM      9  O   UNL     1       0.738   9.058  22.807  0.00  0.00    +0.000 OA
ATOM     10  C   UNL     1       0.915   9.268  20.458  0.00  0.00    +0.000 A 
ATOM     11  C   UNL     1       1.767   8.160  20.349  0.00  0.00    +0.000 A 
ATOM     12  C   UNL     1       2.224   7.750  19.095  0.00  0.00    +0.000 A 
ATOM     13  C   UNL     1       1.835   8.444  17.949  0.00  0.00    +0.000 A 
ATOM     14  C   UNL     1       0.985   9.549  18.051  0.00  0.00    +0.000 A 
ATOM     15  C   UNL     1       0.523   9.962  19.306  0.00  0.00    +0.000 A 
ATOM     16  C   UNL     1      -0.391  11.123  19.403  0.00  0.00    +0.000 C 
ATOM     17  O   UNL     1      -0.841  11.686  18.416  0.00  0.00    +0.000 OA
ENDROOT
BRANCH   1  20
ATOM     18  C   UNL     1       0.490  15.529  20.061  0.00  0.00    +0.000 A 
ATOM     19  C   UNL     1       0.424  14.220  20.492  0.00  0.00    +0.000 A 
ATOM     20  N   UNL     1      -0.910  13.978  20.621  0.00  0.00    +0.000 N 
ATOM     21  N   UNL     1      -1.635  15.049  20.244  0.00  0.00    +0.000 NA
ATOM     22  N   UNL     1      -0.787  16.012  19.917  0.00  0.00    +0.000 NA
BRANCH  18  24
ATOM     23  C   UNL     1       1.291  17.865  19.696  0.00  0.00    +0.000 C 
ATOM     24  C   UNL     1       1.686  16.384  19.767  0.00  0.00    +0.000 C 
ATOM     25  C   UNL     1       2.356  15.955  18.457  0.00  0.00    +0.000 C 
BRANCH  24  26
ATOM     26  O   UNL     1       2.666  16.248  20.811  0.00  0.00    +0.000 OA
ATOM     27  H   UNL     1       3.243  17.028  20.768  0.00  0.00    +0.000 HD
ENDBRANCH  24  26
ENDBRANCH  18  24
ENDBRANCH   1  20
TORSDOF 3
ENDMDL
MODEL 4
REMARK VINA RESULT:      -6.5      1.793      2.131
REMARK  Name = 
REMARK  7 active torsions:
REMARK  status: ('A' for Active; 'I' for Inactive)
REMARK    1  A    between atoms: C_1  and  C_2
REMARK    2  A    between atoms: C_2  and  C_3
REMARK    3  A    between atoms: C_2  and  O_4
REMARK    4  A    between atoms: C_2  and  C_5
REMARK    5  A    between atoms: N_7  and  C_8
REMARK    6  A    between atoms: C_12  and  C_13
REMARK    7  A    between atoms: C_12  and  C_14
REMARK                            x       y       z     vdW  Elec       q    Type
REMARK                         _______ _______ _______ _____ _____    ______ ____
ROOT
ATOM      1  C   UNL     1      -0.949  13.181  20.620  0.00  0.00    +0.000 C 
ATOM      2  C   UNL     1      -0.325  11.852  20.430  0.00  0.00    +0.000 C 
ATOM      3  C   UNL     1      -0.023  11.308  21.601  0.00  0.00    +0.000 C 
ATOM      4  O   UNL     1      -0.396  12.043  22.718  0.00  0.00    +0.000 OA
ATOM      5  C   UNL     1      -1.039  13.241  22.181  0.00  0.00    +0.000 C 
ATOM      6  C   UNL     1      -2.502  13.198  22.649  0.00  0.00    +0.000 C 
ATOM      7  C   UNL     1      -0.352  14.441  22.847  0.00  0.00    +0.000 C 
ATOM      8  C   UNL     1       0.682  10.016  21.709  0.00  0.00    +0.000 C 
ATOM      9  O   UNL     1       0.924   9.490  22.786  0.00  0.00    +0.000 OA
ATOM     10  C   UNL     1       1.088   9.382  20.430  0.00  0.00    +0.000 A 
ATOM     11  C   UNL     1       1.807   8.179  20.461  0.00  0.00    +0.000 A 
ATOM     12  C   UNL     1       2.195   7.566  19.269  0.00  0.00    +0.000 A 
ATOM     13  C   UNL     1       1.870   8.150  18.044  0.00  0.00    +0.000 A 
ATOM     14  C   UNL     1       1.150   9.348  18.006  0.00  0.00    +0.000 A 
ATOM     15  C   UNL     1       0.758   9.965  19.200  0.00  0.00    +0.000 A 
ATOM     16  C   UNL     1      -0.018  11.226  19.150  0.00  0.00    +0.000 C 
ATOM     17  O   UNL     1      -0.417  11.708  18.099  0.00  0.00    +0.000 OA
ENDROOT
BRANCH   1  20
ATOM     18  C   UNL     1       1.364  15.550  19.243  0.00  0.00    +0.000 A 
ATOM     19  C   UNL     1       1.157  14.322  19.835  0.00  0.00    +0.000 A 
ATOM     20  N   UNL     1      -0.194  14.251  19.996  0.00  0.00    +0.000 N 
ATOM     21  N   UNL     1      -0.799  15.342  19.488  0.00  0.00    +0.000 NA
ATOM     22  N   UNL     1       0.147  16.154  19.041  0.00  0.00    +0.000 NA
BRANCH  18  24
ATOM     23  C   UNL     1       3.326  15.451  17.702  0.00  0.00    +0.000 C 
ATOM     24  C   UNL     1       2.643  16.221  18.840  0.00  0.00    +0.000 C 
ATOM     25  C   UNL     1       3.594  16.346  20.036  0.00  0.00    +0.000 C 
BRANCH  24  26
ATOM     26  O   UNL     1       2.380  17.552  18.364  0.00  0.00    +0.000 OA
ATOM     27  H   UNL     1       3.228  18.025  18.348  0.00  0.00    +0.000 HD
ENDBRANCH  24  26
ENDBRANCH  18  24
ENDBRANCH   1  20
TORSDOF 3
ENDMDL
MODEL 5
REMARK VINA RESULT:      -6.4      1.319      1.559
REMARK  Name = 
REMARK  7 active torsions:
REMARK  status: ('A' for Active; 'I' for Inactive)
REMARK    1  A    between atoms: C_1  and  C_2
REMARK    2  A    between atoms: C_2  and  C_3
REMARK    3  A    between atoms: C_2  and  O_4
REMARK    4  A    between atoms: C_2  and  C_5
REMARK    5  A    between atoms: N_7  and  C_8
REMARK    6  A    between atoms: C_12  and  C_13
REMARK    7  A    between atoms: C_12  and  C_14
REMARK                            x       y       z     vdW  Elec       q    Type
REMARK                         _______ _______ _______ _____ _____    ______ ____
ROOT
ATOM      1  C   UNL     1      -0.818  13.258  20.675  0.00  0.00    +0.000 C 
ATOM      2  C   UNL     1      -0.284  11.878  20.612  0.00  0.00    +0.000 C 
ATOM      3  C   UNL     1      -0.318  11.311  21.810  0.00  0.00    +0.000 C 
ATOM      4  O   UNL     1      -0.880  12.078  22.821  0.00  0.00    +0.000 OA
ATOM      5  C   UNL     1      -1.269  13.328  22.171  0.00  0.00    +0.000 C 
ATOM      6  C   UNL     1      -2.801  13.418  22.278  0.00  0.00    +0.000 C 
ATOM      7  C   UNL     1      -0.659  14.462  23.004  0.00  0.00    +0.000 C 
ATOM      8  C   UNL     1       0.226   9.961  22.055  0.00  0.00    +0.000 C 
ATOM      9  O   UNL     1       0.158   9.417  23.148  0.00  0.00    +0.000 OA
ATOM     10  C   UNL     1       0.866   9.291  20.896  0.00  0.00    +0.000 A 
ATOM     11  C   UNL     1       1.449   8.029  21.072  0.00  0.00    +0.000 A 
ATOM     12  C   UNL     1       2.055   7.382  19.994  0.00  0.00    +0.000 A 
ATOM     13  C   UNL     1       2.082   7.991  18.739  0.00  0.00    +0.000 A 
ATOM     14  C   UNL     1       1.500   9.249  18.556  0.00  0.00    +0.000 A 
ATOM     15  C   UNL     1       0.891   9.900  19.635  0.00  0.00    +0.000 A 
ATOM     16  C   UNL     1       0.262  11.226  19.428  0.00  0.00    +0.000 C 
ATOM     17  O   UNL     1       0.167  11.740  18.322  0.00  0.00    +0.000 OA
ENDROOT
BRANCH   1  20
ATOM     18  C   UNL     1       1.192  15.912  19.340  0.00  0.00    +0.000 A 
ATOM     19  C   UNL     1      -0.049  15.317  19.439  0.00  0.00    +0.000 A 
ATOM     20  N   UNL     1       0.155  14.256  20.269  0.00  0.00    +0.000 N 
ATOM     21  N   UNL     1       1.430  14.220  20.705  0.00  0.00    +0.000 NA
ATOM     22  N   UNL     1       2.079  15.219  20.126  0.00  0.00    +0.000 NA
BRANCH  18  24
ATOM     23  C   UNL     1       0.442  17.698  17.764  0.00  0.00    +0.000 C 
ATOM     24  C   UNL     1       1.623  17.108  18.546  0.00  0.00    +0.000 C 
ATOM     25  C   UNL     1       2.761  16.746  17.586  0.00  0.00    +0.000 C 
BRANCH  24  26
ATOM     26  O   UNL     1       2.117  18.137  19.422  0.00  0.00    +0.000 OA
ATOM     27  H   UNL     1       1.433  18.824  19.475  0.00  0.00    +0.000 HD
ENDBRANCH  24  26
ENDBRANCH  18  24
ENDBRANCH   1  20
TORSDOF 3
ENDMDL
MODEL 6
REMARK VINA RESULT:      -6.4      2.657      3.162
REMARK  Name = 
REMARK  7 active torsions:
REMARK  status: ('A' for Active; 'I' for Inactive)
REMARK    1  A    between atoms: C_1  and  C_2
REMARK    2  A    between atoms: C_2  and  C_3
REMARK    3  A    between atoms: C_2  and  O_4
REMARK    4  A    between atoms: C_2  and  C_5
REMARK    5  A    between atoms: N_7  and  C_8
REMARK    6  A    between atoms: C_12  and  C_13
REMARK    7  A    between atoms: C_12  and  C_14
REMARK                            x       y       z     vdW  Elec       q    Type
REMARK                         _______ _______ _______ _____ _____    ______ ____
ROOT
ATOM      1  C   UNL     1       0.138  12.250  19.511  0.00  0.00    +0.000 C 
ATOM      2  C   UNL     1       0.486  10.819  19.660  0.00  0.00    +0.000 C 
ATOM      3  C   UNL     1      -0.048  10.323  20.769  0.00  0.00    +0.000 C 
ATOM      4  O   UNL     1      -0.839  11.201  21.498  0.00  0.00    +0.000 OA
ATOM      5  C   UNL     1      -0.811  12.450  20.739  0.00  0.00    +0.000 C 
ATOM      6  C   UNL     1      -2.255  12.713  20.279  0.00  0.00    +0.000 C 
ATOM      7  C   UNL     1      -0.409  13.552  21.727  0.00  0.00    +0.000 C 
ATOM      8  C   UNL     1       0.201   8.936  21.208  0.00  0.00    +0.000 C 
ATOM      9  O   UNL     1      -0.323   8.463  22.206  0.00  0.00    +0.000 OA
ATOM     10  C   UNL     1       1.130   8.140  20.369  0.00  0.00    +0.000 A 
ATOM     11  C   UNL     1       1.452   6.832  20.758  0.00  0.00    +0.000 A 
ATOM     12  C   UNL     1       2.322   6.066  19.982  0.00  0.00    +0.000 A 
ATOM     13  C   UNL     1       2.875   6.600  18.817  0.00  0.00    +0.000 A 
ATOM     14  C   UNL     1       2.557   7.903  18.423  0.00  0.00    +0.000 A 
ATOM     15  C   UNL     1       1.683   8.674  19.198  0.00  0.00    +0.000 A 
ATOM     16  C   UNL     1       1.338  10.048  18.764  0.00  0.00    +0.000 C 
ATOM     17  O   UNL     1       1.713  10.510  17.696  0.00  0.00    +0.000 OA
ENDROOT
BRANCH   1  20
ATOM     18  C   UNL     1       2.835  14.546  18.945  0.00  0.00    +0.000 A 
ATOM     19  C   UNL     1       1.608  14.058  18.547  0.00  0.00    +0.000 A 
ATOM     20  N   UNL     1       1.306  13.112  19.480  0.00  0.00    +0.000 N 
ATOM     21  N   UNL     1       2.258  13.048  20.431  0.00  0.00    +0.000 NA
ATOM     22  N   UNL     1       3.210  13.909  20.102  0.00  0.00    +0.000 NA
BRANCH  18  24
ATOM     23  C   UNL     1       4.631  16.233  19.352  0.00  0.00    +0.000 C 
ATOM     24  C   UNL     1       3.707  15.587  18.310  0.00  0.00    +0.000 C 
ATOM     25  C   UNL     1       2.861  16.661  17.619  0.00  0.00    +0.000 C 
BRANCH  24  26
ATOM     26  O   UNL     1       4.544  14.991  17.303  0.00  0.00    +0.000 OA
ATOM     27  H   UNL     1       3.961  14.520  16.686  0.00  0.00    +0.000 HD
ENDBRANCH  24  26
ENDBRANCH  18  24
ENDBRANCH   1  20
TORSDOF 3
ENDMDL
MODEL 7
REMARK VINA RESULT:      -6.4      2.840      5.056
REMARK  Name = 
REMARK  7 active torsions:
REMARK  status: ('A' for Active; 'I' for Inactive)
REMARK    1  A    between atoms: C_1  and  C_2
REMARK    2  A    between atoms: C_2  and  C_3
REMARK    3  A    between atoms: C_2  and  O_4
REMARK    4  A    between atoms: C_2  and  C_5
REMARK    5  A    between atoms: N_7  and  C_8
REMARK    6  A    between atoms: C_12  and  C_13
REMARK    7  A    between atoms: C_12  and  C_14
REMARK                            x       y       z     vdW  Elec       q    Type
REMARK                         _______ _______ _______ _____ _____    ______ ____
ROOT
ATOM      1  C   UNL     1       0.378  11.067  19.839  0.00  0.00    +0.000 C 
ATOM      2  C   UNL     1      -1.006  11.115  19.316  0.00  0.00    +0.000 C 
ATOM      3  C   UNL     1      -1.102  10.426  18.187  0.00  0.00    +0.000 C 
ATOM      4  O   UNL     1       0.057   9.780  17.779  0.00  0.00    +0.000 OA
ATOM      5  C   UNL     1       1.047  10.100  18.806  0.00  0.00    +0.000 C 
ATOM      6  C   UNL     1       1.433   8.769  19.471  0.00  0.00    +0.000 C 
ATOM      7  C   UNL     1       2.276  10.649  18.071  0.00  0.00    +0.000 C 
ATOM      8  C   UNL     1      -2.353  10.368  17.405  0.00  0.00    +0.000 C 
ATOM      9  O   UNL     1      -2.457   9.700  16.387  0.00  0.00    +0.000 OA
ATOM     10  C   UNL     1      -3.487  11.173  17.924  0.00  0.00    +0.000 A 
ATOM     11  C   UNL     1      -4.688  11.205  17.202  0.00  0.00    +0.000 A 
ATOM     12  C   UNL     1      -5.767  11.954  17.674  0.00  0.00    +0.000 A 
ATOM     13  C   UNL     1      -5.652  12.673  18.864  0.00  0.00    +0.000 A 
ATOM     14  C   UNL     1      -4.458  12.643  19.590  0.00  0.00    +0.000 A 
ATOM     15  C   UNL     1      -3.374  11.893  19.120  0.00  0.00    +0.000 A 
ATOM     16  C   UNL     1      -2.117  11.853  19.905  0.00  0.00    +0.000 C 
ATOM     17  O   UNL     1      -2.016  12.378  21.004  0.00  0.00    +0.000 OA
ENDROOT
BRANCH   1  20
ATOM     18  C   UNL     1       1.677  14.401  19.600  0.00  0.00    +0.000 A 
ATOM     19  C   UNL     1       0.880  13.412  19.062  0.00  0.00    +0.000 A 
ATOM     20  N   UNL     1       0.984  12.381  19.947  0.00  0.00    +0.000 N 
ATOM     21  N   UNL     1       1.755  12.721  20.998  0.00  0.00    +0.000 NA
ATOM     22  N   UNL     1       2.201  13.950  20.787  0.00  0.00    +0.000 NA
BRANCH  18  24
ATOM     23  C   UNL     1       0.721  16.487  18.617  0.00  0.00    +0.000 C 
ATOM     24  C   UNL     1       1.996  15.769  19.076  0.00  0.00    +0.000 C 
ATOM     25  C   UNL     1       3.002  15.692  17.922  0.00  0.00    +0.000 C 
BRANCH  24  26
ATOM     26  O   UNL     1       2.595  16.572  20.109  0.00  0.00    +0.000 OA
ATOM     27  H   UNL     1       3.557  16.521  19.993  0.00  0.00    +0.000 HD
ENDBRANCH  24  26
ENDBRANCH  18  24
ENDBRANCH   1  20
TORSDOF 3
ENDMDL
MODEL 8
REMARK VINA RESULT:      -6.4      2.122      2.424
REMARK  Name = 
REMARK  7 active torsions:
REMARK  status: ('A' for Active; 'I' for Inactive)
REMARK    1  A    between atoms: C_1  and  C_2
REMARK    2  A    between atoms: C_2  and  C_3
REMARK    3  A    between atoms: C_2  and  O_4
REMARK    4  A    between atoms: C_2  and  C_5
REMARK    5  A    between atoms: N_7  and  C_8
REMARK    6  A    between atoms: C_12  and  C_13
REMARK    7  A    between atoms: C_12  and  C_14
REMARK                            x       y       z     vdW  Elec       q    Type
REMARK                         _______ _______ _______ _____ _____    ______ ____
ROOT
ATOM      1  C   UNL     1      -0.723  12.837  20.283  0.00  0.00    +0.000 C 
ATOM      2  C   UNL     1      -0.114  11.490  20.202  0.00  0.00    +0.000 C 
ATOM      3  C   UNL     1       0.147  11.023  21.416  0.00  0.00    +0.000 C 
ATOM      4  O   UNL     1      -0.246  11.838  22.469  0.00  0.00    +0.000 OA
ATOM      5  C   UNL     1      -0.856  13.005  21.833  0.00  0.00    +0.000 C 
ATOM      6  C   UNL     1      -2.333  13.013  22.260  0.00  0.00    +0.000 C 
ATOM      7  C   UNL     1      -0.170  14.237  22.436  0.00  0.00    +0.000 C 
ATOM      8  C   UNL     1       0.829   9.732  21.631  0.00  0.00    +0.000 C 
ATOM      9  O   UNL     1       1.032   9.278  22.748  0.00  0.00    +0.000 OA
ATOM     10  C   UNL     1       1.260   9.007  20.410  0.00  0.00    +0.000 A 
ATOM     11  C   UNL     1       1.960   7.800  20.543  0.00  0.00    +0.000 A 
ATOM     12  C   UNL     1       2.373   7.102  19.408  0.00  0.00    +0.000 A 
ATOM     13  C   UNL     1       2.090   7.605  18.137  0.00  0.00    +0.000 A 
ATOM     14  C   UNL     1       1.391   8.807  17.997  0.00  0.00    +0.000 A 
ATOM     15  C   UNL     1       0.975   9.509  19.134  0.00  0.00    +0.000 A 
ATOM     16  C   UNL     1       0.219  10.774  18.976  0.00  0.00    +0.000 C 
ATOM     17  O   UNL     1      -0.143  11.188  17.884  0.00  0.00    +0.000 OA
ENDROOT
BRANCH   1  20
ATOM     18  C   UNL     1       1.662  15.043  18.764  0.00  0.00    +0.000 A 
ATOM     19  C   UNL     1       1.408  13.834  19.379  0.00  0.00    +0.000 A 
ATOM     20  N   UNL     1       0.066  13.852  19.610  0.00  0.00    +0.000 N 
ATOM     21  N   UNL     1      -0.494  14.977  19.124  0.00  0.00    +0.000 NA
ATOM     22  N   UNL     1       0.478  15.723  18.620  0.00  0.00    +0.000 NA
BRANCH  18  24
ATOM     23  C   UNL     1       3.910  15.871  19.468  0.00  0.00    +0.000 C 
ATOM     24  C   UNL     1       2.959  15.626  18.289  0.00  0.00    +0.000 C 
ATOM     25  C   UNL     1       2.723  16.932  17.524  0.00  0.00    +0.000 C 
BRANCH  24  26
ATOM     26  O   UNL     1       3.615  14.717  17.388  0.00  0.00    +0.000 OA
ATOM     27  H   UNL     1       3.434  15.025  16.485  0.00  0.00    +0.000 HD
ENDBRANCH  24  26
ENDBRANCH  18  24
ENDBRANCH   1  20
TORSDOF 3
ENDMDL
MODEL 9
REMARK VINA RESULT:      -6.3      3.913      5.865
REMARK  Name = 
REMARK  7 active torsions:
REMARK  status: ('A' for Active; 'I' for Inactive)
REMARK    1  A    between atoms: C_1  and  C_2
REMARK    2  A    between atoms: C_2  and  C_3
REMARK    3  A    between atoms: C_2  and  O_4
REMARK    4  A    between atoms: C_2  and  C_5
REMARK    5  A    between atoms: N_7  and  C_8
REMARK    6  A    between atoms: C_12  and  C_13
REMARK    7  A    between atoms: C_12  and  C_14
REMARK                            x       y       z     vdW  Elec       q    Type
REMARK                         _______ _______ _______ _____ _____    ______ ____
ROOT
ATOM      1  C   UNL     1      -5.097  12.946  19.043  0.00  0.00    +0.000 C 
ATOM      2  C   UNL     1      -3.794  12.268  18.858  0.00  0.00    +0.000 C 
ATOM      3  C   UNL     1      -3.896  11.296  17.962  0.00  0.00    +0.000 C 
ATOM      4  O   UNL     1      -5.142  11.162  17.363  0.00  0.00    +0.000 OA
ATOM      5  C   UNL     1      -5.963  12.211  17.966  0.00  0.00    +0.000 C 
ATOM      6  C   UNL     1      -6.352  13.169  16.828  0.00  0.00    +0.000 C 
ATOM      7  C   UNL     1      -7.236  11.527  18.480  0.00  0.00    +0.000 C 
ATOM      8  C   UNL     1      -2.767  10.403  17.638  0.00  0.00    +0.000 C 
ATOM      9  O   UNL     1      -2.845   9.535  16.781  0.00  0.00    +0.000 OA
ATOM     10  C   UNL     1      -1.520  10.616  18.414  0.00  0.00    +0.000 A 
ATOM     11  C   UNL     1      -0.425   9.770  18.194  0.00  0.00    +0.000 A 
ATOM     12  C   UNL     1       0.757   9.954  18.913  0.00  0.00    +0.000 A 
ATOM     13  C   UNL     1       0.851  10.982  19.852  0.00  0.00    +0.000 A 
ATOM     14  C   UNL     1      -0.236  11.831  20.074  0.00  0.00    +0.000 A 
ATOM     15  C   UNL     1      -1.423  11.649  19.355  0.00  0.00    +0.000 A 
ATOM     16  C   UNL     1      -2.566  12.565  19.586  0.00  0.00    +0.000 C 
ATOM     17  O   UNL     1      -2.484  13.542  20.316  0.00  0.00    +0.000 OA
ENDROOT
BRANCH   1  20
ATOM     18  C   UNL     1      -6.144  13.247  22.459  0.00  0.00    +0.000 A 
ATOM     19  C   UNL     1      -5.662  13.861  21.322  0.00  0.00    +0.000 A 
ATOM     20  N   UNL     1      -5.589  12.857  20.405  0.00  0.00    +0.000 N 
ATOM     21  N   UNL     1      -6.047  11.698  20.918  0.00  0.00    +0.000 NA
ATOM     22  N   UNL     1      -6.371  11.921  22.183  0.00  0.00    +0.000 NA
BRANCH  18  24
ATOM     23  C   UNL     1      -7.912  13.754  24.148  0.00  0.00    +0.000 C 
ATOM     24  C   UNL     1      -6.415  13.818  23.819  0.00  0.00    +0.000 C 
ATOM     25  C   UNL     1      -5.916  15.264  23.914  0.00  0.00    +0.000 C 
BRANCH  24  26
ATOM     26  O   UNL     1      -5.719  13.061  24.826  0.00  0.00    +0.000 OA
ATOM     27  H   UNL     1      -5.041  13.641  25.206  0.00  0.00    +0.000 HD
ENDBRANCH  24  26
ENDBRANCH  18  24
ENDBRANCH   1  20
TORSDOF 3
ENDMDL
