MODEL 1
REMARK VINA RESULT:      -8.9      0.000      0.000
REMARK  Name = 
REMARK  6 active torsions:
REMARK  status: ('A' for Active; 'I' for Inactive)
REMARK    1  A    between atoms: C_1  and  C_2
REMARK    2  A    between atoms: C_10  and  C_11
REMARK    3  A    between atoms: C_11  and  C_13
REMARK    4  A    between atoms: N_15  and  C_16
REMARK    5  A    between atoms: C_16  and  C_17
REMARK    6  A    between atoms: N_21  and  C_22
REMARK                            x       y       z     vdW  Elec       q    Type
REMARK                         _______ _______ _______ _____ _____    ______ ____
ROOT
ATOM      1  C   UNL     1       1.708   8.417  19.288  0.00  0.00    +0.000 C 
ATOM      2  O   UNL     1       1.551   8.409  20.502  0.00  0.00    +0.000 OA
ATOM      3  N   UNL     1       2.208   7.334  18.572  0.00  0.00    +0.000 N 
ATOM      4  H   UNL     1       2.070   7.317  17.562  0.00  0.00    +0.000 HD
ENDROOT
BRANCH   1   5
ATOM      5  C   UNL     1       1.305   9.623  18.454  0.00  0.00    +0.000 C 
ATOM      6  O   UNL     1       2.027   9.844  17.480  0.00  0.00    +0.000 OA
BRANCH   5  16
ATOM      7  C   UNL     1       1.061  11.930  20.830  0.00  0.00    +0.000 C 
ATOM      8  C   UNL     1       0.091  11.444  19.810  0.00  0.00    +0.000 A 
ATOM      9  N   UNL     1      -1.164  12.001  19.758  0.00  0.00    +0.000 N 
ATOM     10  C   UNL     1      -1.918  11.426  18.770  0.00  0.00    +0.000 A 
ATOM     11  C   UNL     1      -3.236  11.693  18.379  0.00  0.00    +0.000 A 
ATOM     12  C   UNL     1      -3.768  10.935  17.335  0.00  0.00    +0.000 A 
ATOM     13  C   UNL     1      -3.011   9.948  16.713  0.00  0.00    +0.000 A 
ATOM     14  C   UNL     1      -1.693   9.698  17.115  0.00  0.00    +0.000 A 
ATOM     15  C   UNL     1      -1.126  10.452  18.167  0.00  0.00    +0.000 A 
ATOM     16  C   UNL     1       0.163  10.471  18.813  0.00  0.00    +0.000 A 
ATOM     17  H   UNL     1      -1.497  12.737  20.367  0.00  0.00    +0.000 HD
ENDBRANCH   5  16
ENDBRANCH   1   5
BRANCH   3  18
ATOM     18  C   UNL     1       2.414   6.106  19.295  0.00  0.00    +0.000 C 
BRANCH  18  19
ATOM     19  C   UNL     1       2.707   4.957  18.414  0.00  0.00    +0.000 A 
ATOM     20  N   UNL     1       1.867   4.044  17.965  0.00  0.00    +0.000 NA
ATOM     21  N   UNL     1       2.547   3.333  17.012  0.00  0.00    +0.000 NA
ATOM     22  N   UNL     1       3.775   3.803  16.853  0.00  0.00    +0.000 NA
ATOM     23  N   UNL     1       3.936   4.756  17.799  0.00  0.00    +0.000 N 
BRANCH  23  24
ATOM     24  C   UNL     1       5.189   5.391  18.010  0.00  0.00    +0.000 A 
ATOM     25  C   UNL     1       5.604   6.401  17.128  0.00  0.00    +0.000 A 
ATOM     26  C   UNL     1       6.811   7.069  17.355  0.00  0.00    +0.000 A 
ATOM     27  C   UNL     1       7.612   6.704  18.430  0.00  0.00    +0.000 A 
ATOM     28  F   UNL     1       8.769   7.342  18.642  0.00  0.00    +0.000 F 
ATOM     29  C   UNL     1       7.234   5.676  19.283  0.00  0.00    +0.000 A 
ATOM     30  C   UNL     1       6.021   5.015  19.074  0.00  0.00    +0.000 A 
ENDBRANCH  23  24
ENDBRANCH  18  19
ENDBRANCH   3  18
TORSDOF 5
ENDMDL
MODEL 2
REMARK VINA RESULT:      -8.3      1.531      1.807
REMARK  Name = 
REMARK  6 active torsions:
REMARK  status: ('A' for Active; 'I' for Inactive)
REMARK    1  A    between atoms: C_1  and  C_2
REMARK    2  A    between atoms: C_10  and  C_11
REMARK    3  A    between atoms: C_11  and  C_13
REMARK    4  A    between atoms: N_15  and  C_16
REMARK    5  A    between atoms: C_16  and  C_17
REMARK    6  A    between atoms: N_21  and  C_22
REMARK                            x       y       z     vdW  Elec       q    Type
REMARK                         _______ _______ _______ _____ _____    ______ ____
ROOT
ATOM      1  C   UNL     1       1.776   8.306  19.330  0.00  0.00    +0.000 C 
ATOM      2  O   UNL     1       1.384   8.176  20.483  0.00  0.00    +0.000 OA
ATOM      3  N   UNL     1       2.646   7.415  18.711  0.00  0.00    +0.000 N 
ATOM      4  H   UNL     1       2.723   7.441  17.694  0.00  0.00    +0.000 HD
ENDROOT
BRANCH   1   5
ATOM      5  C   UNL     1       1.285   9.452  18.459  0.00  0.00    +0.000 C 
ATOM      6  O   UNL     1       1.931   9.631  17.425  0.00  0.00    +0.000 OA
BRANCH   5  16
ATOM      7  C   UNL     1       1.032  11.610  20.970  0.00  0.00    +0.000 C 
ATOM      8  C   UNL     1       0.074  11.205  19.905  0.00  0.00    +0.000 A 
ATOM      9  N   UNL     1      -1.172  11.785  19.866  0.00  0.00    +0.000 N 
ATOM     10  C   UNL     1      -1.916  11.285  18.830  0.00  0.00    +0.000 A 
ATOM     11  C   UNL     1      -3.222  11.598  18.434  0.00  0.00    +0.000 A 
ATOM     12  C   UNL     1      -3.746  10.914  17.335  0.00  0.00    +0.000 A 
ATOM     13  C   UNL     1      -2.993   9.955  16.666  0.00  0.00    +0.000 A 
ATOM     14  C   UNL     1      -1.687   9.660  17.075  0.00  0.00    +0.000 A 
ATOM     15  C   UNL     1      -1.127  10.337  18.181  0.00  0.00    +0.000 A 
ATOM     16  C   UNL     1       0.150  10.295  18.850  0.00  0.00    +0.000 A 
ATOM     17  H   UNL     1      -1.504  12.486  20.513  0.00  0.00    +0.000 HD
ENDBRANCH   5  16
ENDBRANCH   1   5
BRANCH   3  18
ATOM     18  C   UNL     1       2.978   6.213  19.430  0.00  0.00    +0.000 C 
BRANCH  18  19
ATOM     19  C   UNL     1       2.414   4.993  18.816  0.00  0.00    +0.000 A 
ATOM     20  N   UNL     1       1.312   4.351  19.153  0.00  0.00    +0.000 NA
ATOM     21  N   UNL     1       1.085   3.434  18.161  0.00  0.00    +0.000 NA
ATOM     22  N   UNL     1       2.010   3.515  17.217  0.00  0.00    +0.000 NA
ATOM     23  N   UNL     1       2.917   4.415  17.658  0.00  0.00    +0.000 N 
BRANCH  23  24
ATOM     24  C   UNL     1       4.126   4.661  16.953  0.00  0.00    +0.000 A 
ATOM     25  C   UNL     1       4.917   3.575  16.548  0.00  0.00    +0.000 A 
ATOM     26  C   UNL     1       6.082   3.803  15.809  0.00  0.00    +0.000 A 
ATOM     27  C   UNL     1       6.470   5.103  15.511  0.00  0.00    +0.000 A 
ATOM     28  F   UNL     1       7.588   5.318  14.807  0.00  0.00    +0.000 F 
ATOM     29  C   UNL     1       5.719   6.187  15.945  0.00  0.00    +0.000 A 
ATOM     30  C   UNL     1       4.545   5.969  16.669  0.00  0.00    +0.000 A 
ENDBRANCH  23  24
ENDBRANCH  18  19
ENDBRANCH   3  18
TORSDOF 5
ENDMDL
MODEL 3
REMARK VINA RESULT:      -8.3      2.175      3.236
REMARK  Name = 
REMARK  6 active torsions:
REMARK  status: ('A' for Active; 'I' for Inactive)
REMARK    1  A    between atoms: C_1  and  C_2
REMARK    2  A    between atoms: C_10  and  C_11
REMARK    3  A    between atoms: C_11  and  C_13
REMARK    4  A    between atoms: N_15  and  C_16
REMARK    5  A    between atoms: C_16  and  C_17
REMARK    6  A    between atoms: N_21  and  C_22
REMARK                            x       y       z     vdW  Elec       q    Type
REMARK                         _______ _______ _______ _____ _____    ______ ____
ROOT
ATOM      1  C   UNL     1       1.432   9.444  17.837  0.00  0.00    +0.000 C 
ATOM      2  O   UNL     1       2.351  10.192  17.528  0.00  0.00    +0.000 OA
ATOM      3  N   UNL     1       1.589   8.076  18.028  0.00  0.00    +0.000 N 
ATOM      4  H   UNL     1       0.857   7.569  18.526  0.00  0.00    +0.000 HD
ENDROOT
BRANCH   1   5
ATOM      5  C   UNL     1       0.033   9.984  18.092  0.00  0.00    +0.000 C 
ATOM      6  O   UNL     1      -0.803   9.679  17.240  0.00  0.00    +0.000 OA
BRANCH   5  16
ATOM      7  C   UNL     1      -0.565  13.248  18.210  0.00  0.00    +0.000 C 
ATOM      8  C   UNL     1      -0.534  12.203  19.269  0.00  0.00    +0.000 A 
ATOM      9  N   UNL     1      -0.800  12.556  20.570  0.00  0.00    +0.000 N 
ATOM     10  C   UNL     1      -0.717  11.472  21.403  0.00  0.00    +0.000 A 
ATOM     11  C   UNL     1      -0.913  11.389  22.787  0.00  0.00    +0.000 A 
ATOM     12  C   UNL     1      -0.748  10.142  23.391  0.00  0.00    +0.000 A 
ATOM     13  C   UNL     1      -0.397   9.026  22.637  0.00  0.00    +0.000 A 
ATOM     14  C   UNL     1      -0.210   9.128  21.254  0.00  0.00    +0.000 A 
ATOM     15  C   UNL     1      -0.374  10.377  20.614  0.00  0.00    +0.000 A 
ATOM     16  C   UNL     1      -0.274  10.832  19.249  0.00  0.00    +0.000 A 
ATOM     17  H   UNL     1      -1.025  13.491  20.881  0.00  0.00    +0.000 HD
ENDBRANCH   5  16
ENDBRANCH   1   5
BRANCH   3  18
ATOM     18  C   UNL     1       2.931   7.555  17.992  0.00  0.00    +0.000 C 
BRANCH  18  19
ATOM     19  C   UNL     1       3.120   6.378  18.864  0.00  0.00    +0.000 A 
ATOM     20  N   UNL     1       2.473   6.078  19.974  0.00  0.00    +0.000 NA
ATOM     21  N   UNL     1       2.831   4.794  20.291  0.00  0.00    +0.000 NA
ATOM     22  N   UNL     1       3.665   4.296  19.391  0.00  0.00    +0.000 NA
ATOM     23  N   UNL     1       3.946   5.309  18.540  0.00  0.00    +0.000 N 
BRANCH  23  24
ATOM     24  C   UNL     1       4.918   5.171  17.513  0.00  0.00    +0.000 A 
ATOM     25  C   UNL     1       4.643   4.341  16.415  0.00  0.00    +0.000 A 
ATOM     26  C   UNL     1       5.570   4.237  15.374  0.00  0.00    +0.000 A 
ATOM     27  C   UNL     1       6.774   4.926  15.449  0.00  0.00    +0.000 A 
ATOM     28  F   UNL     1       7.662   4.822  14.452  0.00  0.00    +0.000 F 
ATOM     29  C   UNL     1       7.077   5.714  16.551  0.00  0.00    +0.000 A 
ATOM     30  C   UNL     1       6.150   5.838  17.588  0.00  0.00    +0.000 A 
ENDBRANCH  23  24
ENDBRANCH  18  19
ENDBRANCH   3  18
TORSDOF 5
ENDMDL
MODEL 4
REMARK VINA RESULT:      -8.3      3.544      8.551
REMARK  Name = 
REMARK  6 active torsions:
REMARK  status: ('A' for Active; 'I' for Inactive)
REMARK    1  A    between atoms: C_1  and  C_2
REMARK    2  A    between atoms: C_10  and  C_11
REMARK    3  A    between atoms: C_11  and  C_13
REMARK    4  A    between atoms: N_15  and  C_16
REMARK    5  A    between atoms: C_16  and  C_17
REMARK    6  A    between atoms: N_21  and  C_22
REMARK                            x       y       z     vdW  Elec       q    Type
REMARK                         _______ _______ _______ _____ _____    ______ ____
ROOT
ATOM      1  C   UNL     1       2.193   4.966  20.328  0.00  0.00    +0.000 C 
ATOM      2  O   UNL     1       1.062   4.738  20.738  0.00  0.00    +0.000 OA
ATOM      3  N   UNL     1       2.670   6.246  20.069  0.00  0.00    +0.000 N 
ATOM      4  H   UNL     1       3.678   6.378  19.981  0.00  0.00    +0.000 HD
ENDROOT
BRANCH   1   5
ATOM      5  C   UNL     1       3.194   3.840  20.121  0.00  0.00    +0.000 C 
ATOM      6  O   UNL     1       3.282   3.046  21.058  0.00  0.00    +0.000 OA
BRANCH   5  16
ATOM      7  C   UNL     1       2.658   2.075  17.360  0.00  0.00    +0.000 C 
ATOM      8  C   UNL     1       3.756   2.999  17.753  0.00  0.00    +0.000 A 
ATOM      9  N   UNL     1       4.781   3.238  16.869  0.00  0.00    +0.000 N 
ATOM     10  C   UNL     1       5.701   4.101  17.403  0.00  0.00    +0.000 A 
ATOM     11  C   UNL     1       6.884   4.605  16.847  0.00  0.00    +0.000 A 
ATOM     12  C   UNL     1       7.650   5.470  17.630  0.00  0.00    +0.000 A 
ATOM     13  C   UNL     1       7.248   5.811  18.918  0.00  0.00    +0.000 A 
ATOM     14  C   UNL     1       6.060   5.300  19.454  0.00  0.00    +0.000 A 
ATOM     15  C   UNL     1       5.261   4.426  18.684  0.00  0.00    +0.000 A 
ATOM     16  C   UNL     1       4.011   3.741  18.907  0.00  0.00    +0.000 A 
ATOM     17  H   UNL     1       4.856   2.832  15.947  0.00  0.00    +0.000 HD
ENDBRANCH   5  16
ENDBRANCH   1   5
BRANCH   3  18
ATOM     18  C   UNL     1       1.826   7.352  20.439  0.00  0.00    +0.000 C 
BRANCH  18  19
ATOM     19  C   UNL     1       1.789   8.421  19.419  0.00  0.00    +0.000 A 
ATOM     20  N   UNL     1       2.362   8.428  18.231  0.00  0.00    +0.000 NA
ATOM     21  N   UNL     1       1.856   9.516  17.569  0.00  0.00    +0.000 NA
ATOM     22  N   UNL     1       0.973  10.160  18.316  0.00  0.00    +0.000 NA
ATOM     23  N   UNL     1       0.991   9.553  19.524  0.00  0.00    +0.000 N 
BRANCH  23  24
ATOM     24  C   UNL     1       0.255  10.065  20.626  0.00  0.00    +0.000 A 
ATOM     25  C   UNL     1      -0.460  11.263  20.476  0.00  0.00    +0.000 A 
ATOM     26  C   UNL     1      -1.230  11.750  21.537  0.00  0.00    +0.000 A 
ATOM     27  C   UNL     1      -1.253  11.066  22.746  0.00  0.00    +0.000 A 
ATOM     28  F   UNL     1      -1.987  11.536  23.761  0.00  0.00    +0.000 F 
ATOM     29  C   UNL     1      -0.513   9.904  22.921  0.00  0.00    +0.000 A 
ATOM     30  C   UNL     1       0.244   9.401  21.861  0.00  0.00    +0.000 A 
ENDBRANCH  23  24
ENDBRANCH  18  19
ENDBRANCH   3  18
TORSDOF 5
ENDMDL
MODEL 5
REMARK VINA RESULT:      -8.2      2.112      3.354
REMARK  Name = 
REMARK  6 active torsions:
REMARK  status: ('A' for Active; 'I' for Inactive)
REMARK    1  A    between atoms: C_1  and  C_2
REMARK    2  A    between atoms: C_10  and  C_11
REMARK    3  A    between atoms: C_11  and  C_13
REMARK    4  A    between atoms: N_15  and  C_16
REMARK    5  A    between atoms: C_16  and  C_17
REMARK    6  A    between atoms: N_21  and  C_22
REMARK                            x       y       z     vdW  Elec       q    Type
REMARK                         _______ _______ _______ _____ _____    ______ ____
ROOT
ATOM      1  C   UNL     1       1.633   9.005  18.534  0.00  0.00    +0.000 C 
ATOM      2  O   UNL     1       1.973   9.342  17.407  0.00  0.00    +0.000 OA
ATOM      3  N   UNL     1       2.045   7.822  19.137  0.00  0.00    +0.000 N 
ATOM      4  H   UNL     1       1.939   7.731  20.148  0.00  0.00    +0.000 HD
ENDROOT
BRANCH   1   5
ATOM      5  C   UNL     1       0.760   9.907  19.392  0.00  0.00    +0.000 C 
ATOM      6  O   UNL     1       0.599   9.523  20.551  0.00  0.00    +0.000 OA
BRANCH   5  16
ATOM      7  C   UNL     1      -1.912  10.212  17.444  0.00  0.00    +0.000 C 
ATOM      8  C   UNL     1      -1.000  11.221  18.048  0.00  0.00    +0.000 A 
ATOM      9  N   UNL     1      -1.232  12.557  17.821  0.00  0.00    +0.000 N 
ATOM     10  C   UNL     1      -0.291  13.334  18.444  0.00  0.00    +0.000 A 
ATOM     11  C   UNL     1      -0.158  14.727  18.473  0.00  0.00    +0.000 A 
ATOM     12  C   UNL     1       0.919  15.259  19.184  0.00  0.00    +0.000 A 
ATOM     13  C   UNL     1       1.826  14.428  19.834  0.00  0.00    +0.000 A 
ATOM     14  C   UNL     1       1.672  13.037  19.797  0.00  0.00    +0.000 A 
ATOM     15  C   UNL     1       0.590  12.469  19.089  0.00  0.00    +0.000 A 
ATOM     16  C   UNL     1       0.133  11.120  18.856  0.00  0.00    +0.000 A 
ATOM     17  H   UNL     1      -1.992  12.926  17.267  0.00  0.00    +0.000 HD
ENDBRANCH   5  16
ENDBRANCH   1   5
BRANCH   3  18
ATOM     18  C   UNL     1       3.029   7.035  18.440  0.00  0.00    +0.000 C 
BRANCH  18  19
ATOM     19  C   UNL     1       3.286   5.728  19.080  0.00  0.00    +0.000 A 
ATOM     20  N   UNL     1       2.701   5.219  20.147  0.00  0.00    +0.000 NA
ATOM     21  N   UNL     1       3.101   3.910  20.214  0.00  0.00    +0.000 NA
ATOM     22  N   UNL     1       3.899   3.603  19.202  0.00  0.00    +0.000 NA
ATOM     23  N   UNL     1       4.116   4.758  18.534  0.00  0.00    +0.000 N 
BRANCH  23  24
ATOM     24  C   UNL     1       5.038   4.831  17.455  0.00  0.00    +0.000 A 
ATOM     25  C   UNL     1       4.761   4.135  16.268  0.00  0.00    +0.000 A 
ATOM     26  C   UNL     1       5.635   4.241  15.182  0.00  0.00    +0.000 A 
ATOM     27  C   UNL     1       6.791   5.004  15.295  0.00  0.00    +0.000 A 
ATOM     28  F   UNL     1       7.628   5.100  14.255  0.00  0.00    +0.000 F 
ATOM     29  C   UNL     1       7.098   5.660  16.479  0.00  0.00    +0.000 A 
ATOM     30  C   UNL     1       6.222   5.574  17.564  0.00  0.00    +0.000 A 
ENDBRANCH  23  24
ENDBRANCH  18  19
ENDBRANCH   3  18
TORSDOF 5
ENDMDL
MODEL 6
REMARK VINA RESULT:      -8.1      1.081      1.534
REMARK  Name = 
REMARK  6 active torsions:
REMARK  status: ('A' for Active; 'I' for Inactive)
REMARK    1  A    between atoms: C_1  and  C_2
REMARK    2  A    between atoms: C_10  and  C_11
REMARK    3  A    between atoms: C_11  and  C_13
REMARK    4  A    between atoms: N_15  and  C_16
REMARK    5  A    between atoms: C_16  and  C_17
REMARK    6  A    between atoms: N_21  and  C_22
REMARK                            x       y       z     vdW  Elec       q    Type
REMARK                         _______ _______ _______ _____ _____    ______ ____
ROOT
ATOM      1  C   UNL     1       1.062   8.465  20.326  0.00  0.00    +0.000 C 
ATOM      2  O   UNL     1       0.342   8.290  21.300  0.00  0.00    +0.000 OA
ATOM      3  N   UNL     1       2.091   7.599  19.968  0.00  0.00    +0.000 N 
ATOM      4  H   UNL     1       2.471   7.664  19.024  0.00  0.00    +0.000 HD
ENDROOT
BRANCH   1   5
ATOM      5  C   UNL     1       0.841   9.641  19.388  0.00  0.00    +0.000 C 
ATOM      6  O   UNL     1       1.773   9.870  18.615  0.00  0.00    +0.000 OA
BRANCH   5  16
ATOM      7  C   UNL     1      -0.163  11.799  21.703  0.00  0.00    +0.000 C 
ATOM      8  C   UNL     1      -0.771  11.365  20.416  0.00  0.00    +0.000 A 
ATOM      9  N   UNL     1      -1.969  11.912  20.022  0.00  0.00    +0.000 N 
ATOM     10  C   UNL     1      -2.379  11.389  18.824  0.00  0.00    +0.000 A 
ATOM     11  C   UNL     1      -3.528  11.666  18.073  0.00  0.00    +0.000 A 
ATOM     12  C   UNL     1      -3.704  10.967  16.878  0.00  0.00    +0.000 A 
ATOM     13  C   UNL     1      -2.769  10.026  16.458  0.00  0.00    +0.000 A 
ATOM     14  C   UNL     1      -1.625   9.766  17.221  0.00  0.00    +0.000 A 
ATOM     15  C   UNL     1      -1.417  10.461  18.433  0.00  0.00    +0.000 A 
ATOM     16  C   UNL     1      -0.379  10.454  19.435  0.00  0.00    +0.000 A 
ATOM     17  H   UNL     1      -2.487  12.606  20.542  0.00  0.00    +0.000 HD
ENDBRANCH   5  16
ENDBRANCH   1   5
BRANCH   3  18
ATOM     18  C   UNL     1       2.207   6.372  20.712  0.00  0.00    +0.000 C 
BRANCH  18  19
ATOM     19  C   UNL     1       2.065   5.167  19.869  0.00  0.00    +0.000 A 
ATOM     20  N   UNL     1       1.079   4.291  19.867  0.00  0.00    +0.000 NA
ATOM     21  N   UNL     1       1.277   3.494  18.770  0.00  0.00    +0.000 NA
ATOM     22  N   UNL     1       2.348   3.876  18.091  0.00  0.00    +0.000 NA
ATOM     23  N   UNL     1       2.922   4.859  18.821  0.00  0.00    +0.000 N 
BRANCH  23  24
ATOM     24  C   UNL     1       4.175   5.421  18.457  0.00  0.00    +0.000 A 
ATOM     25  C   UNL     1       5.314   5.107  19.214  0.00  0.00    +0.000 A 
ATOM     26  C   UNL     1       6.561   5.613  18.835  0.00  0.00    +0.000 A 
ATOM     27  C   UNL     1       6.661   6.454  17.734  0.00  0.00    +0.000 A 
ATOM     28  F   UNL     1       7.856   6.940  17.376  0.00  0.00    +0.000 F 
ATOM     29  C   UNL     1       5.535   6.807  17.003  0.00  0.00    +0.000 A 
ATOM     30  C   UNL     1       4.288   6.293  17.364  0.00  0.00    +0.000 A 
ENDBRANCH  23  24
ENDBRANCH  18  19
ENDBRANCH   3  18
TORSDOF 5
ENDMDL
MODEL 7
REMARK VINA RESULT:      -8.1      1.336      1.610
REMARK  Name = 
REMARK  6 active torsions:
REMARK  status: ('A' for Active; 'I' for Inactive)
REMARK    1  A    between atoms: C_1  and  C_2
REMARK    2  A    between atoms: C_10  and  C_11
REMARK    3  A    between atoms: C_11  and  C_13
REMARK    4  A    between atoms: N_15  and  C_16
REMARK    5  A    between atoms: C_16  and  C_17
REMARK    6  A    between atoms: N_21  and  C_22
REMARK                            x       y       z     vdW  Elec       q    Type
REMARK                         _______ _______ _______ _____ _____    ______ ____
ROOT
ATOM      1  C   UNL     1       1.748   8.366  19.571  0.00  0.00    +0.000 C 
ATOM      2  O   UNL     1       1.539   8.569  20.760  0.00  0.00    +0.000 OA
ATOM      3  N   UNL     1       2.361   7.215  19.086  0.00  0.00    +0.000 N 
ATOM      4  H   UNL     1       2.269   7.000  18.093  0.00  0.00    +0.000 HD
ENDROOT
BRANCH   1   5
ATOM      5  C   UNL     1       1.290   9.359  18.513  0.00  0.00    +0.000 C 
ATOM      6  O   UNL     1       1.900   9.296  17.444  0.00  0.00    +0.000 OA
BRANCH   5  16
ATOM      7  C   UNL     1       1.260  11.931  20.613  0.00  0.00    +0.000 C 
ATOM      8  C   UNL     1       0.245  11.417  19.653  0.00  0.00    +0.000 A 
ATOM      9  N   UNL     1      -0.959  12.070  19.536  0.00  0.00    +0.000 N 
ATOM     10  C   UNL     1      -1.767  11.453  18.617  0.00  0.00    +0.000 A 
ATOM     11  C   UNL     1      -3.060  11.786  18.197  0.00  0.00    +0.000 A 
ATOM     12  C   UNL     1      -3.663  10.963  17.244  0.00  0.00    +0.000 A 
ATOM     13  C   UNL     1      -2.996   9.850  16.739  0.00  0.00    +0.000 A 
ATOM     14  C   UNL     1      -1.702   9.537  17.169  0.00  0.00    +0.000 A 
ATOM     15  C   UNL     1      -1.064  10.354  18.130  0.00  0.00    +0.000 A 
ATOM     16  C   UNL     1       0.227  10.336  18.772  0.00  0.00    +0.000 A 
ATOM     17  H   UNL     1      -1.223  12.895  20.057  0.00  0.00    +0.000 HD
ENDBRANCH   5  16
ENDBRANCH   1   5
BRANCH   3  18
ATOM     18  C   UNL     1       2.629   6.164  20.031  0.00  0.00    +0.000 C 
BRANCH  18  19
ATOM     19  C   UNL     1       2.131   4.845  19.590  0.00  0.00    +0.000 A 
ATOM     20  N   UNL     1       0.993   4.259  19.910  0.00  0.00    +0.000 NA
ATOM     21  N   UNL     1       0.877   3.173  19.083  0.00  0.00    +0.000 NA
ATOM     22  N   UNL     1       1.905   3.093  18.254  0.00  0.00    +0.000 NA
ATOM     23  N   UNL     1       2.762   4.072  18.624  0.00  0.00    +0.000 N 
BRANCH  23  24
ATOM     24  C   UNL     1       4.045   4.202  18.030  0.00  0.00    +0.000 A 
ATOM     25  C   UNL     1       4.178   4.047  16.641  0.00  0.00    +0.000 A 
ATOM     26  C   UNL     1       5.427   4.223  16.039  0.00  0.00    +0.000 A 
ATOM     27  C   UNL     1       6.538   4.513  16.821  0.00  0.00    +0.000 A 
ATOM     28  F   UNL     1       7.734   4.677  16.243  0.00  0.00    +0.000 F 
ATOM     29  C   UNL     1       6.427   4.624  18.201  0.00  0.00    +0.000 A 
ATOM     30  C   UNL     1       5.181   4.467  18.809  0.00  0.00    +0.000 A 
ENDBRANCH  23  24
ENDBRANCH  18  19
ENDBRANCH   3  18
TORSDOF 5
ENDMDL
MODEL 8
REMARK VINA RESULT:      -8.1      3.375      8.339
REMARK  Name = 
REMARK  6 active torsions:
REMARK  status: ('A' for Active; 'I' for Inactive)
REMARK    1  A    between atoms: C_1  and  C_2
REMARK    2  A    between atoms: C_10  and  C_11
REMARK    3  A    between atoms: C_11  and  C_13
REMARK    4  A    between atoms: N_15  and  C_16
REMARK    5  A    between atoms: C_16  and  C_17
REMARK    6  A    between atoms: N_21  and  C_22
REMARK                            x       y       z     vdW  Elec       q    Type
REMARK                         _______ _______ _______ _____ _____    ______ ____
ROOT
ATOM      1  C   UNL     1       2.579   7.577  18.585  0.00  0.00    +0.000 C 
ATOM      2  O   UNL     1       2.282   7.363  19.753  0.00  0.00    +0.000 OA
ATOM      3  N   UNL     1       1.998   8.581  17.817  0.00  0.00    +0.000 N 
ATOM      4  H   UNL     1       2.466   8.864  16.956  0.00  0.00    +0.000 HD
ENDROOT
BRANCH   1   5
ATOM      5  C   UNL     1       3.669   6.772  17.893  0.00  0.00    +0.000 C 
ATOM      6  O   UNL     1       4.186   7.327  16.922  0.00  0.00    +0.000 OA
BRANCH   5  16
ATOM      7  C   UNL     1       6.636   5.604  18.818  0.00  0.00    +0.000 C 
ATOM      8  C   UNL     1       5.296   4.962  18.733  0.00  0.00    +0.000 A 
ATOM      9  N   UNL     1       5.159   3.643  19.093  0.00  0.00    +0.000 N 
ATOM     10  C   UNL     1       3.864   3.222  18.941  0.00  0.00    +0.000 A 
ATOM     11  C   UNL     1       3.296   1.967  19.192  0.00  0.00    +0.000 A 
ATOM     12  C   UNL     1       1.933   1.810  18.931  0.00  0.00    +0.000 A 
ATOM     13  C   UNL     1       1.175   2.867  18.436  0.00  0.00    +0.000 A 
ATOM     14  C   UNL     1       1.761   4.115  18.197  0.00  0.00    +0.000 A 
ATOM     15  C   UNL     1       3.137   4.306  18.454  0.00  0.00    +0.000 A 
ATOM     16  C   UNL     1       4.040   5.424  18.337  0.00  0.00    +0.000 A 
ATOM     17  H   UNL     1       5.909   3.053  19.424  0.00  0.00    +0.000 HD
ENDBRANCH   5  16
ENDBRANCH   1   5
BRANCH   3  18
ATOM     18  C   UNL     1       1.108   9.491  18.489  0.00  0.00    +0.000 C 
BRANCH  18  19
ATOM     19  C   UNL     1       1.648  10.863  18.590  0.00  0.00    +0.000 A 
ATOM     20  N   UNL     1       2.556  11.435  17.822  0.00  0.00    +0.000 NA
ATOM     21  N   UNL     1       2.556  12.764  18.157  0.00  0.00    +0.000 NA
ATOM     22  N   UNL     1       1.657  13.019  19.095  0.00  0.00    +0.000 NA
ATOM     23  N   UNL     1       1.147  11.821  19.461  0.00  0.00    +0.000 N 
BRANCH  23  24
ATOM     24  C   UNL     1       0.239  11.699  20.546  0.00  0.00    +0.000 A 
ATOM     25  C   UNL     1      -0.899  12.519  20.585  0.00  0.00    +0.000 A 
ATOM     26  C   UNL     1      -1.826  12.372  21.621  0.00  0.00    +0.000 A 
ATOM     27  C   UNL     1      -1.598  11.441  22.627  0.00  0.00    +0.000 A 
ATOM     28  F   UNL     1      -2.485  11.306  23.620  0.00  0.00    +0.000 F 
ATOM     29  C   UNL     1      -0.453  10.655  22.623  0.00  0.00    +0.000 A 
ATOM     30  C   UNL     1       0.470  10.783  21.583  0.00  0.00    +0.000 A 
ENDBRANCH  23  24
ENDBRANCH  18  19
ENDBRANCH   3  18
TORSDOF 5
ENDMDL
MODEL 9
REMARK VINA RESULT:      -8.1      3.707      8.392
REMARK  Name = 
REMARK  6 active torsions:
REMARK  status: ('A' for Active; 'I' for Inactive)
REMARK    1  A    between atoms: C_1  and  C_2
REMARK    2  A    between atoms: C_10  and  C_11
REMARK    3  A    between atoms: C_11  and  C_13
REMARK    4  A    between atoms: N_15  and  C_16
REMARK    5  A    between atoms: C_16  and  C_17
REMARK    6  A    between atoms: N_21  and  C_22
REMARK                            x       y       z     vdW  Elec       q    Type
REMARK                         _______ _______ _______ _____ _____    ______ ____
ROOT
ATOM      1  C   UNL     1       3.483   5.165  18.906  0.00  0.00    +0.000 C 
ATOM      2  O   UNL     1       2.482   4.810  18.298  0.00  0.00    +0.000 OA
ATOM      3  N   UNL     1       3.533   6.307  19.700  0.00  0.00    +0.000 N 
ATOM      4  H   UNL     1       4.298   6.398  20.368  0.00  0.00    +0.000 HD
ENDROOT
BRANCH   1   5
ATOM      5  C   UNL     1       4.756   4.333  18.877  0.00  0.00    +0.000 C 
ATOM      6  O   UNL     1       4.786   3.404  19.685  0.00  0.00    +0.000 OA
BRANCH   5  16
ATOM      7  C   UNL     1       7.760   5.556  19.587  0.00  0.00    +0.000 C 
ATOM      8  C   UNL     1       7.129   5.149  18.302  0.00  0.00    +0.000 A 
ATOM      9  N   UNL     1       7.850   5.254  17.136  0.00  0.00    +0.000 N 
ATOM     10  C   UNL     1       7.109   4.846  16.059  0.00  0.00    +0.000 A 
ATOM     11  C   UNL     1       7.456   4.791  14.704  0.00  0.00    +0.000 A 
ATOM     12  C   UNL     1       6.486   4.341  13.806  0.00  0.00    +0.000 A 
ATOM     13  C   UNL     1       5.221   3.968  14.249  0.00  0.00    +0.000 A 
ATOM     14  C   UNL     1       4.896   4.027  15.610  0.00  0.00    +0.000 A 
ATOM     15  C   UNL     1       5.857   4.474  16.543  0.00  0.00    +0.000 A 
ATOM     16  C   UNL     1       5.869   4.647  17.975  0.00  0.00    +0.000 A 
ATOM     17  H   UNL     1       8.801   5.590  17.073  0.00  0.00    +0.000 HD
ENDBRANCH   5  16
ENDBRANCH   1   5
BRANCH   3  18
ATOM     18  C   UNL     1       2.298   7.014  19.914  0.00  0.00    +0.000 C 
BRANCH  18  19
ATOM     19  C   UNL     1       2.115   8.156  18.995  0.00  0.00    +0.000 A 
ATOM     20  N   UNL     1       2.590   8.296  17.772  0.00  0.00    +0.000 NA
ATOM     21  N   UNL     1       1.969   9.398  17.245  0.00  0.00    +0.000 NA
ATOM     22  N   UNL     1       1.112   9.921  18.108  0.00  0.00    +0.000 NA
ATOM     23  N   UNL     1       1.264   9.222  19.256  0.00  0.00    +0.000 N 
BRANCH  23  24
ATOM     24  C   UNL     1       0.590   9.595  20.449  0.00  0.00    +0.000 A 
ATOM     25  C   UNL     1       0.348  10.954  20.705  0.00  0.00    +0.000 A 
ATOM     26  C   UNL     1      -0.359  11.329  21.851  0.00  0.00    +0.000 A 
ATOM     27  C   UNL     1      -0.786  10.359  22.750  0.00  0.00    +0.000 A 
ATOM     28  F   UNL     1      -1.459  10.722  23.848  0.00  0.00    +0.000 F 
ATOM     29  C   UNL     1      -0.513   9.016  22.530  0.00  0.00    +0.000 A 
ATOM     30  C   UNL     1       0.178   8.630  21.380  0.00  0.00    +0.000 A 
ENDBRANCH  23  24
ENDBRANCH  18  19
ENDBRANCH   3  18
TORSDOF 5
ENDMDL
