MODEL 1
REMARK VINA RESULT:      -8.4      0.000      0.000
REMARK  Name = 
REMARK  9 active torsions:
REMARK  status: ('A' for Active; 'I' for Inactive)
REMARK    1  A    between atoms: C_1  and  C_2
REMARK    2  A    between atoms: C_6  and  C_7
REMARK    3  A    between atoms: C_7  and  N_8
REMARK    4  A    between atoms: C_9  and  C_10
REMARK    5  A    between atoms: C_10  and  N_11
REMARK    6  A    between atoms: C_14  and  C_15
REMARK    7  A    between atoms: N_17  and  C_18
REMARK    8  A    between atoms: C_18  and  C_19
REMARK    9  A    between atoms: C_18  and  C_20
REMARK                            x       y       z     vdW  Elec       q    Type
REMARK                         _______ _______ _______ _____ _____    ______ ____
ROOT
ATOM      1  N   UNL     1       2.717   5.829  18.771  0.00  0.00    +0.000 N 
ATOM      2  C   UNL     1       2.092   6.411  19.870  0.00  0.00    +0.000 A 
ATOM      3  C   UNL     1       1.342   5.401  20.451  0.00  0.00    +0.000 A 
ATOM      4  C   UNL     1       1.618   4.175  19.799  0.00  0.00    +0.000 A 
ATOM      5  C   UNL     1       1.201   2.845  19.997  0.00  0.00    +0.000 A 
ATOM      6  C   UNL     1       1.694   1.828  19.174  0.00  0.00    +0.000 A 
ATOM      7  C   UNL     1       2.596   2.118  18.155  0.00  0.00    +0.000 A 
ATOM      8  C   UNL     1       3.009   3.437  17.923  0.00  0.00    +0.000 A 
ATOM      9  C   UNL     1       2.503   4.450  18.761  0.00  0.00    +0.000 A 
ENDROOT
BRANCH   1  10
ATOM     10  C   UNL     1       3.443   6.505  17.690  0.00  0.00    +0.000 C 
BRANCH  10  16
ATOM     11  C   UNL     1       6.757   4.638  14.422  0.00  0.00    +0.000 C 
ATOM     12  C   UNL     1       6.409   4.991  15.838  0.00  0.00    +0.000 A 
ATOM     13  C   UNL     1       7.283   4.698  16.888  0.00  0.00    +0.000 A 
ATOM     14  C   UNL     1       6.973   5.092  18.188  0.00  0.00    +0.000 A 
ATOM     15  C   UNL     1       5.771   5.747  18.455  0.00  0.00    +0.000 A 
ATOM     16  C   UNL     1       4.837   5.973  17.435  0.00  0.00    +0.000 A 
ATOM     17  C   UNL     1       5.190   5.622  16.118  0.00  0.00    +0.000 A 
ENDBRANCH  10  16
ENDBRANCH   1  10
BRANCH   2  18
ATOM     18  C   UNL     1       2.234   7.872  20.258  0.00  0.00    +0.000 C 
BRANCH  18  19
ATOM     19  N   UNL     1       0.953   8.602  20.531  0.00  0.00    +0.000 NA
ATOM     20  C   UNL     1       1.052   9.442  21.730  0.00  0.00    +0.000 C 
ATOM     21  C   UNL     1      -0.143  10.384  21.952  0.00  0.00    +0.000 C 
ATOM     22  C   UNL     1      -0.353  11.336  20.783  0.00  0.00    +0.000 C 
ATOM     23  C   UNL     1      -0.494  10.477  19.511  0.00  0.00    +0.000 C 
ATOM     24  C   UNL     1       0.579   9.381  19.334  0.00  0.00    +0.000 C 
BRANCH  22  25
ATOM     25  C   UNL     1       0.736  12.412  20.631  0.00  0.00    +0.000 C 
ATOM     26  O   UNL     1       1.374  12.811  21.604  0.00  0.00    +0.000 OA
ATOM     27  N   UNL     1       1.041  12.863  19.334  0.00  0.00    +0.000 N 
ATOM     28  H   UNL     1       0.390  12.691  18.584  0.00  0.00    +0.000 HD
BRANCH  27  29
ATOM     29  C   UNL     1       2.124  13.851  19.174  0.00  0.00    +0.000 C 
ATOM     30  C   UNL     1       3.134  13.535  18.061  0.00  0.00    +0.000 C 
ATOM     31  C   UNL     1       1.586  15.266  18.975  0.00  0.00    +0.000 C 
ENDBRANCH  27  29
ENDBRANCH  22  25
ENDBRANCH  18  19
ENDBRANCH   2  18
TORSDOF 6
ENDMDL
MODEL 2
REMARK VINA RESULT:      -8.2      3.135      8.020
REMARK  Name = 
REMARK  9 active torsions:
REMARK  status: ('A' for Active; 'I' for Inactive)
REMARK    1  A    between atoms: C_1  and  C_2
REMARK    2  A    between atoms: C_6  and  C_7
REMARK    3  A    between atoms: C_7  and  N_8
REMARK    4  A    between atoms: C_9  and  C_10
REMARK    5  A    between atoms: C_10  and  N_11
REMARK    6  A    between atoms: C_14  and  C_15
REMARK    7  A    between atoms: N_17  and  C_18
REMARK    8  A    between atoms: C_18  and  C_19
REMARK    9  A    between atoms: C_18  and  C_20
REMARK                            x       y       z     vdW  Elec       q    Type
REMARK                         _______ _______ _______ _____ _____    ______ ____
ROOT
ATOM      1  N   UNL     1       2.716   7.411  19.188  0.00  0.00    +0.000 N 
ATOM      2  C   UNL     1       2.729   7.927  17.896  0.00  0.00    +0.000 A 
ATOM      3  C   UNL     1       1.739   8.896  17.873  0.00  0.00    +0.000 A 
ATOM      4  C   UNL     1       1.221   9.073  19.178  0.00  0.00    +0.000 A 
ATOM      5  C   UNL     1       0.265   9.939  19.744  0.00  0.00    +0.000 A 
ATOM      6  C   UNL     1      -0.007   9.879  21.113  0.00  0.00    +0.000 A 
ATOM      7  C   UNL     1       0.657   8.967  21.927  0.00  0.00    +0.000 A 
ATOM      8  C   UNL     1       1.595   8.080  21.385  0.00  0.00    +0.000 A 
ATOM      9  C   UNL     1       1.859   8.152  20.003  0.00  0.00    +0.000 A 
ENDROOT
BRANCH   1  10
ATOM     10  C   UNL     1       3.407   6.214  19.683  0.00  0.00    +0.000 C 
BRANCH  10  16
ATOM     11  C   UNL     1       2.321   1.739  17.697  0.00  0.00    +0.000 C 
ATOM     12  C   UNL     1       1.993   2.819  18.687  0.00  0.00    +0.000 A 
ATOM     13  C   UNL     1       0.860   2.731  19.500  0.00  0.00    +0.000 A 
ATOM     14  C   UNL     1       0.607   3.710  20.457  0.00  0.00    +0.000 A 
ATOM     15  C   UNL     1       1.462   4.804  20.585  0.00  0.00    +0.000 A 
ATOM     16  C   UNL     1       2.555   4.963  19.722  0.00  0.00    +0.000 A 
ATOM     17  C   UNL     1       2.830   3.936  18.799  0.00  0.00    +0.000 A 
ENDBRANCH  10  16
ENDBRANCH   1  10
BRANCH   2  18
ATOM     18  C   UNL     1       3.652   7.443  16.793  0.00  0.00    +0.000 C 
BRANCH  18  19
ATOM     19  N   UNL     1       4.682   6.433  17.199  0.00  0.00    +0.000 NA
ATOM     20  C   UNL     1       4.408   5.113  16.621  0.00  0.00    +0.000 C 
ATOM     21  C   UNL     1       5.533   4.083  16.813  0.00  0.00    +0.000 C 
ATOM     22  C   UNL     1       6.850   4.546  16.209  0.00  0.00    +0.000 C 
ATOM     23  C   UNL     1       7.182   5.919  16.826  0.00  0.00    +0.000 C 
ATOM     24  C   UNL     1       6.021   6.936  16.831  0.00  0.00    +0.000 C 
BRANCH  22  25
ATOM     25  C   UNL     1       6.868   4.589  14.671  0.00  0.00    +0.000 C 
ATOM     26  O   UNL     1       7.490   5.460  14.068  0.00  0.00    +0.000 OA
ATOM     27  N   UNL     1       6.221   3.552  13.975  0.00  0.00    +0.000 N 
ATOM     28  H   UNL     1       5.554   2.971  14.458  0.00  0.00    +0.000 HD
BRANCH  27  29
ATOM     29  C   UNL     1       6.283   3.554  12.502  0.00  0.00    +0.000 C 
ATOM     30  C   UNL     1       6.996   2.345  11.878  0.00  0.00    +0.000 C 
ATOM     31  C   UNL     1       4.902   3.701  11.869  0.00  0.00    +0.000 C 
ENDBRANCH  27  29
ENDBRANCH  22  25
ENDBRANCH  18  19
ENDBRANCH   2  18
TORSDOF 6
ENDMDL
MODEL 3
REMARK VINA RESULT:      -8.2      1.020      1.198
REMARK  Name = 
REMARK  9 active torsions:
REMARK  status: ('A' for Active; 'I' for Inactive)
REMARK    1  A    between atoms: C_1  and  C_2
REMARK    2  A    between atoms: C_6  and  C_7
REMARK    3  A    between atoms: C_7  and  N_8
REMARK    4  A    between atoms: C_9  and  C_10
REMARK    5  A    between atoms: C_10  and  N_11
REMARK    6  A    between atoms: C_14  and  C_15
REMARK    7  A    between atoms: N_17  and  C_18
REMARK    8  A    between atoms: C_18  and  C_19
REMARK    9  A    between atoms: C_18  and  C_20
REMARK                            x       y       z     vdW  Elec       q    Type
REMARK                         _______ _______ _______ _____ _____    ______ ____
ROOT
ATOM      1  N   UNL     1       2.718   5.787  18.805  0.00  0.00    +0.000 N 
ATOM      2  C   UNL     1       2.097   6.305  19.937  0.00  0.00    +0.000 A 
ATOM      3  C   UNL     1       1.332   5.269  20.450  0.00  0.00    +0.000 A 
ATOM      4  C   UNL     1       1.594   4.085  19.720  0.00  0.00    +0.000 A 
ATOM      5  C   UNL     1       1.158   2.750  19.831  0.00  0.00    +0.000 A 
ATOM      6  C   UNL     1       1.641   1.783  18.945  0.00  0.00    +0.000 A 
ATOM      7  C   UNL     1       2.549   2.126  17.949  0.00  0.00    +0.000 A 
ATOM      8  C   UNL     1       2.981   3.451  17.804  0.00  0.00    +0.000 A 
ATOM      9  C   UNL     1       2.486   4.415  18.704  0.00  0.00    +0.000 A 
ENDROOT
BRANCH   1  10
ATOM     10  C   UNL     1       3.456   6.522  17.772  0.00  0.00    +0.000 C 
BRANCH  10  16
ATOM     11  C   UNL     1       6.781   4.755  14.458  0.00  0.00    +0.000 C 
ATOM     12  C   UNL     1       6.431   5.071  15.883  0.00  0.00    +0.000 A 
ATOM     13  C   UNL     1       7.306   4.756  16.926  0.00  0.00    +0.000 A 
ATOM     14  C   UNL     1       6.994   5.115  18.235  0.00  0.00    +0.000 A 
ATOM     15  C   UNL     1       5.789   5.757  18.519  0.00  0.00    +0.000 A 
ATOM     16  C   UNL     1       4.854   6.004  17.503  0.00  0.00    +0.000 A 
ATOM     17  C   UNL     1       5.209   5.688  16.179  0.00  0.00    +0.000 A 
ENDBRANCH  10  16
ENDBRANCH   1  10
BRANCH   2  18
ATOM     18  C   UNL     1       2.257   7.736  20.420  0.00  0.00    +0.000 C 
BRANCH  18  19
ATOM     19  N   UNL     1       1.081   8.637  20.192  0.00  0.00    +0.000 NA
ATOM     20  C   UNL     1       1.068   9.762  21.133  0.00  0.00    +0.000 C 
ATOM     21  C   UNL     1       0.019  10.843  20.824  0.00  0.00    +0.000 C 
ATOM     22  C   UNL     1       0.203  11.449  19.441  0.00  0.00    +0.000 C 
ATOM     23  C   UNL     1       0.187  10.289  18.425  0.00  0.00    +0.000 C 
ATOM     24  C   UNL     1       1.085   9.086  18.786  0.00  0.00    +0.000 C 
BRANCH  22  25
ATOM     25  C   UNL     1       1.458  12.326  19.289  0.00  0.00    +0.000 C 
ATOM     26  O   UNL     1       2.197  12.213  18.313  0.00  0.00    +0.000 OA
ATOM     27  N   UNL     1       1.689  13.320  20.258  0.00  0.00    +0.000 N 
ATOM     28  H   UNL     1       1.208  13.272  21.142  0.00  0.00    +0.000 HD
BRANCH  27  29
ATOM     29  C   UNL     1       2.858  14.203  20.088  0.00  0.00    +0.000 C 
ATOM     30  C   UNL     1       2.527  15.658  19.722  0.00  0.00    +0.000 C 
ATOM     31  C   UNL     1       3.770  14.191  21.312  0.00  0.00    +0.000 C 
ENDBRANCH  27  29
ENDBRANCH  22  25
ENDBRANCH  18  19
ENDBRANCH   2  18
TORSDOF 6
ENDMDL
MODEL 4
REMARK VINA RESULT:      -8.2      1.159      1.538
REMARK  Name = 
REMARK  9 active torsions:
REMARK  status: ('A' for Active; 'I' for Inactive)
REMARK    1  A    between atoms: C_1  and  C_2
REMARK    2  A    between atoms: C_6  and  C_7
REMARK    3  A    between atoms: C_7  and  N_8
REMARK    4  A    between atoms: C_9  and  C_10
REMARK    5  A    between atoms: C_10  and  N_11
REMARK    6  A    between atoms: C_14  and  C_15
REMARK    7  A    between atoms: N_17  and  C_18
REMARK    8  A    between atoms: C_18  and  C_19
REMARK    9  A    between atoms: C_18  and  C_20
REMARK                            x       y       z     vdW  Elec       q    Type
REMARK                         _______ _______ _______ _____ _____    ______ ____
ROOT
ATOM      1  N   UNL     1       2.729   5.700  18.797  0.00  0.00    +0.000 N 
ATOM      2  C   UNL     1       2.228   6.735  19.580  0.00  0.00    +0.000 A 
ATOM      3  C   UNL     1       1.820   6.142  20.764  0.00  0.00    +0.000 A 
ATOM      4  C   UNL     1       2.200   4.779  20.764  0.00  0.00    +0.000 A 
ATOM      5  C   UNL     1       2.100   3.734  21.703  0.00  0.00    +0.000 A 
ATOM      6  C   UNL     1       2.613   2.470  21.399  0.00  0.00    +0.000 A 
ATOM      7  C   UNL     1       3.224   2.231  20.172  0.00  0.00    +0.000 A 
ATOM      8  C   UNL     1       3.316   3.247  19.212  0.00  0.00    +0.000 A 
ATOM      9  C   UNL     1       2.793   4.516  19.533  0.00  0.00    +0.000 A 
ENDROOT
BRANCH   1  10
ATOM     10  C   UNL     1       3.083   5.742  17.373  0.00  0.00    +0.000 C 
BRANCH  10  16
ATOM     11  C   UNL     1       7.701   7.679  17.632  0.00  0.00    +0.000 C 
ATOM     12  C   UNL     1       6.792   6.586  17.151  0.00  0.00    +0.000 A 
ATOM     13  C   UNL     1       7.273   5.553  16.342  0.00  0.00    +0.000 A 
ATOM     14  C   UNL     1       6.429   4.513  15.959  0.00  0.00    +0.000 A 
ATOM     15  C   UNL     1       5.090   4.516  16.348  0.00  0.00    +0.000 A 
ATOM     16  C   UNL     1       4.561   5.586  17.083  0.00  0.00    +0.000 A 
ATOM     17  C   UNL     1       5.438   6.599  17.512  0.00  0.00    +0.000 A 
ENDBRANCH  10  16
ENDBRANCH   1  10
BRANCH   2  18
ATOM     18  C   UNL     1       2.152   8.184  19.133  0.00  0.00    +0.000 C 
BRANCH  18  19
ATOM     19  N   UNL     1       0.877   8.902  19.460  0.00  0.00    +0.000 NA
ATOM     20  C   UNL     1       0.927   9.519  20.789  0.00  0.00    +0.000 C 
ATOM     21  C   UNL     1      -0.253  10.452  21.107  0.00  0.00    +0.000 C 
ATOM     22  C   UNL     1      -0.369  11.597  20.111  0.00  0.00    +0.000 C 
ATOM     23  C   UNL     1      -0.458  10.975  18.703  0.00  0.00    +0.000 C 
ATOM     24  C   UNL     1       0.595   9.887  18.398  0.00  0.00    +0.000 C 
BRANCH  22  25
ATOM     25  C   UNL     1       0.755  12.643  20.206  0.00  0.00    +0.000 C 
ATOM     26  O   UNL     1       1.438  12.749  21.222  0.00  0.00    +0.000 OA
ATOM     27  N   UNL     1       1.034  13.416  19.065  0.00  0.00    +0.000 N 
ATOM     28  H   UNL     1       0.354  13.469  18.323  0.00  0.00    +0.000 HD
BRANCH  27  29
ATOM     29  C   UNL     1       2.148  14.380  19.129  0.00  0.00    +0.000 C 
ATOM     30  C   UNL     1       3.384  14.003  18.298  0.00  0.00    +0.000 C 
ATOM     31  C   UNL     1       1.708  15.794  18.758  0.00  0.00    +0.000 C 
ENDBRANCH  27  29
ENDBRANCH  22  25
ENDBRANCH  18  19
ENDBRANCH   2  18
TORSDOF 6
ENDMDL
MODEL 5
REMARK VINA RESULT:      -8.2      0.641      1.400
REMARK  Name = 
REMARK  9 active torsions:
REMARK  status: ('A' for Active; 'I' for Inactive)
REMARK    1  A    between atoms: C_1  and  C_2
REMARK    2  A    between atoms: C_6  and  C_7
REMARK    3  A    between atoms: C_7  and  N_8
REMARK    4  A    between atoms: C_9  and  C_10
REMARK    5  A    between atoms: C_10  and  N_11
REMARK    6  A    between atoms: C_14  and  C_15
REMARK    7  A    between atoms: N_17  and  C_18
REMARK    8  A    between atoms: C_18  and  C_19
REMARK    9  A    between atoms: C_18  and  C_20
REMARK                            x       y       z     vdW  Elec       q    Type
REMARK                         _______ _______ _______ _____ _____    ______ ____
ROOT
ATOM      1  N   UNL     1       2.519   5.876  18.778  0.00  0.00    +0.000 N 
ATOM      2  C   UNL     1       1.974   6.415  19.938  0.00  0.00    +0.000 A 
ATOM      3  C   UNL     1       1.261   5.383  20.530  0.00  0.00    +0.000 A 
ATOM      4  C   UNL     1       1.486   4.184  19.812  0.00  0.00    +0.000 A 
ATOM      5  C   UNL     1       1.078   2.848  19.986  0.00  0.00    +0.000 A 
ATOM      6  C   UNL     1       1.509   1.864  19.092  0.00  0.00    +0.000 A 
ATOM      7  C   UNL     1       2.339   2.192  18.025  0.00  0.00    +0.000 A 
ATOM      8  C   UNL     1       2.741   3.518  17.817  0.00  0.00    +0.000 A 
ATOM      9  C   UNL     1       2.299   4.499  18.727  0.00  0.00    +0.000 A 
ENDROOT
BRANCH   1  10
ATOM     10  C   UNL     1       3.172   6.592  17.676  0.00  0.00    +0.000 C 
BRANCH  10  16
ATOM     11  C   UNL     1       7.843   5.733  19.283  0.00  0.00    +0.000 C 
ATOM     12  C   UNL     1       6.866   5.784  18.146  0.00  0.00    +0.000 A 
ATOM     13  C   UNL     1       7.278   5.552  16.831  0.00  0.00    +0.000 A 
ATOM     14  C   UNL     1       6.345   5.539  15.797  0.00  0.00    +0.000 A 
ATOM     15  C   UNL     1       5.000   5.796  16.061  0.00  0.00    +0.000 A 
ATOM     16  C   UNL     1       4.575   6.121  17.357  0.00  0.00    +0.000 A 
ATOM     17  C   UNL     1       5.518   6.072  18.400  0.00  0.00    +0.000 A 
ENDBRANCH  10  16
ENDBRANCH   1  10
BRANCH   2  18
ATOM     18  C   UNL     1       2.148   7.859  20.373  0.00  0.00    +0.000 C 
BRANCH  18  19
ATOM     19  N   UNL     1       0.945   8.739  20.214  0.00  0.00    +0.000 NA
ATOM     20  C   UNL     1       0.738   9.593  21.388  0.00  0.00    +0.000 C 
ATOM     21  C   UNL     1      -0.343  10.673  21.212  0.00  0.00    +0.000 C 
ATOM     22  C   UNL     1      -0.040  11.610  20.053  0.00  0.00    +0.000 C 
ATOM     23  C   UNL     1       0.150  10.739  18.795  0.00  0.00    +0.000 C 
ATOM     24  C   UNL     1       1.083   9.523  18.971  0.00  0.00    +0.000 C 
BRANCH  22  25
ATOM     25  C   UNL     1       1.156  12.549  20.286  0.00  0.00    +0.000 C 
ATOM     26  O   UNL     1       1.770  12.541  21.351  0.00  0.00    +0.000 OA
ATOM     27  N   UNL     1       1.580  13.356  19.214  0.00  0.00    +0.000 N 
ATOM     28  H   UNL     1       0.962  13.507  18.433  0.00  0.00    +0.000 HD
BRANCH  27  29
ATOM     29  C   UNL     1       2.762  14.215  19.411  0.00  0.00    +0.000 C 
ATOM     30  C   UNL     1       3.759  14.228  18.243  0.00  0.00    +0.000 C 
ATOM     31  C   UNL     1       2.378  15.651  19.757  0.00  0.00    +0.000 C 
ENDBRANCH  27  29
ENDBRANCH  22  25
ENDBRANCH  18  19
ENDBRANCH   2  18
TORSDOF 6
ENDMDL
MODEL 6
REMARK VINA RESULT:      -8.1      1.455      1.933
REMARK  Name = 
REMARK  9 active torsions:
REMARK  status: ('A' for Active; 'I' for Inactive)
REMARK    1  A    between atoms: C_1  and  C_2
REMARK    2  A    between atoms: C_6  and  C_7
REMARK    3  A    between atoms: C_7  and  N_8
REMARK    4  A    between atoms: C_9  and  C_10
REMARK    5  A    between atoms: C_10  and  N_11
REMARK    6  A    between atoms: C_14  and  C_15
REMARK    7  A    between atoms: N_17  and  C_18
REMARK    8  A    between atoms: C_18  and  C_19
REMARK    9  A    between atoms: C_18  and  C_20
REMARK                            x       y       z     vdW  Elec       q    Type
REMARK                         _______ _______ _______ _____ _____    ______ ____
ROOT
ATOM      1  N   UNL     1       3.235   5.565  18.925  0.00  0.00    +0.000 N 
ATOM      2  C   UNL     1       2.433   6.549  19.495  0.00  0.00    +0.000 A 
ATOM      3  C   UNL     1       1.768   5.929  20.541  0.00  0.00    +0.000 A 
ATOM      4  C   UNL     1       2.266   4.613  20.701  0.00  0.00    +0.000 A 
ATOM      5  C   UNL     1       2.009   3.574  21.616  0.00  0.00    +0.000 A 
ATOM      6  C   UNL     1       2.710   2.369  21.519  0.00  0.00    +0.000 A 
ATOM      7  C   UNL     1       3.663   2.183  20.521  0.00  0.00    +0.000 A 
ATOM      8  C   UNL     1       3.920   3.193  19.586  0.00  0.00    +0.000 A 
ATOM      9  C   UNL     1       3.206   4.403  19.697  0.00  0.00    +0.000 A 
ENDROOT
BRANCH   1  10
ATOM     10  C   UNL     1       3.970   5.630  17.656  0.00  0.00    +0.000 C 
BRANCH  10  16
ATOM     11  C   UNL     1       8.352   5.332  20.075  0.00  0.00    +0.000 C 
ATOM     12  C   UNL     1       7.508   5.991  19.025  0.00  0.00    +0.000 A 
ATOM     13  C   UNL     1       7.984   7.088  18.301  0.00  0.00    +0.000 A 
ATOM     14  C   UNL     1       7.211   7.645  17.286  0.00  0.00    +0.000 A 
ATOM     15  C   UNL     1       5.942   7.138  17.009  0.00  0.00    +0.000 A 
ATOM     16  C   UNL     1       5.405   6.097  17.780  0.00  0.00    +0.000 A 
ATOM     17  C   UNL     1       6.219   5.506  18.763  0.00  0.00    +0.000 A 
ENDBRANCH  10  16
ENDBRANCH   1  10
BRANCH   2  18
ATOM     18  C   UNL     1       2.343   7.977  18.987  0.00  0.00    +0.000 C 
BRANCH  18  19
ATOM     19  N   UNL     1       1.054   8.689  19.267  0.00  0.00    +0.000 NA
ATOM     20  C   UNL     1       1.027   9.250  20.622  0.00  0.00    +0.000 C 
ATOM     21  C   UNL     1      -0.166  10.177  20.908  0.00  0.00    +0.000 C 
ATOM     22  C   UNL     1      -0.218  11.363  19.956  0.00  0.00    +0.000 C 
ATOM     23  C   UNL     1      -0.225  10.801  18.520  0.00  0.00    +0.000 C 
ATOM     24  C   UNL     1       0.839   9.720  18.232  0.00  0.00    +0.000 C 
BRANCH  22  25
ATOM     25  C   UNL     1       0.903  12.397  20.161  0.00  0.00    +0.000 C 
ATOM     26  O   UNL     1       1.550  12.432  21.206  0.00  0.00    +0.000 OA
ATOM     27  N   UNL     1       1.224  13.245  19.085  0.00  0.00    +0.000 N 
ATOM     28  H   UNL     1       0.570  13.350  18.326  0.00  0.00    +0.000 HD
BRANCH  27  29
ATOM     29  C   UNL     1       2.336  14.198  19.254  0.00  0.00    +0.000 C 
ATOM     30  C   UNL     1       3.492  14.033  18.257  0.00  0.00    +0.000 C 
ATOM     31  C   UNL     1       1.859  15.648  19.231  0.00  0.00    +0.000 C 
ENDBRANCH  27  29
ENDBRANCH  22  25
ENDBRANCH  18  19
ENDBRANCH   2  18
TORSDOF 6
ENDMDL
MODEL 7
REMARK VINA RESULT:      -8.0      2.022      4.942
REMARK  Name = 
REMARK  9 active torsions:
REMARK  status: ('A' for Active; 'I' for Inactive)
REMARK    1  A    between atoms: C_1  and  C_2
REMARK    2  A    between atoms: C_6  and  C_7
REMARK    3  A    between atoms: C_7  and  N_8
REMARK    4  A    between atoms: C_9  and  C_10
REMARK    5  A    between atoms: C_10  and  N_11
REMARK    6  A    between atoms: C_14  and  C_15
REMARK    7  A    between atoms: N_17  and  C_18
REMARK    8  A    between atoms: C_18  and  C_19
REMARK    9  A    between atoms: C_18  and  C_20
REMARK                            x       y       z     vdW  Elec       q    Type
REMARK                         _______ _______ _______ _____ _____    ______ ____
ROOT
ATOM      1  N   UNL     1       3.581   6.638  18.533  0.00  0.00    +0.000 N 
ATOM      2  C   UNL     1       3.315   7.658  17.625  0.00  0.00    +0.000 A 
ATOM      3  C   UNL     1       4.431   7.730  16.807  0.00  0.00    +0.000 A 
ATOM      4  C   UNL     1       5.314   6.669  17.119  0.00  0.00    +0.000 A 
ATOM      5  C   UNL     1       6.540   6.226  16.587  0.00  0.00    +0.000 A 
ATOM      6  C   UNL     1       7.163   5.092  17.117  0.00  0.00    +0.000 A 
ATOM      7  C   UNL     1       6.582   4.395  18.172  0.00  0.00    +0.000 A 
ATOM      8  C   UNL     1       5.375   4.828  18.734  0.00  0.00    +0.000 A 
ATOM      9  C   UNL     1       4.759   5.972  18.189  0.00  0.00    +0.000 A 
ENDROOT
BRANCH   1  10
ATOM     10  C   UNL     1       2.832   6.299  19.748  0.00  0.00    +0.000 C 
BRANCH  10  16
ATOM     11  C   UNL     1       1.217   2.223  22.183  0.00  0.00    +0.000 C 
ATOM     12  C   UNL     1       1.395   2.959  20.887  0.00  0.00    +0.000 A 
ATOM     13  C   UNL     1       1.037   2.371  19.671  0.00  0.00    +0.000 A 
ATOM     14  C   UNL     1       1.148   3.093  18.485  0.00  0.00    +0.000 A 
ATOM     15  C   UNL     1       1.653   4.393  18.499  0.00  0.00    +0.000 A 
ATOM     16  C   UNL     1       2.103   4.973  19.693  0.00  0.00    +0.000 A 
ATOM     17  C   UNL     1       1.930   4.253  20.890  0.00  0.00    +0.000 A 
ENDBRANCH  10  16
ENDBRANCH   1  10
BRANCH   2  18
ATOM     18  C   UNL     1       2.046   8.491  17.626  0.00  0.00    +0.000 C 
BRANCH  18  19
ATOM     19  N   UNL     1       1.998   9.606  18.627  0.00  0.00    +0.000 NA
ATOM     20  C   UNL     1       2.023  10.921  17.978  0.00  0.00    +0.000 C 
ATOM     21  C   UNL     1       1.759  12.107  18.921  0.00  0.00    +0.000 C 
ATOM     22  C   UNL     1       0.410  12.003  19.616  0.00  0.00    +0.000 C 
ATOM     23  C   UNL     1       0.368  10.640  20.337  0.00  0.00    +0.000 C 
ATOM     24  C   UNL     1       0.809   9.431  19.485  0.00  0.00    +0.000 C 
BRANCH  22  25
ATOM     25  C   UNL     1      -0.803  12.198  18.689  0.00  0.00    +0.000 C 
ATOM     26  O   UNL     1      -0.811  13.078  17.831  0.00  0.00    +0.000 OA
ATOM     27  N   UNL     1      -1.868  11.285  18.796  0.00  0.00    +0.000 N 
ATOM     28  H   UNL     1      -1.947  10.709  19.619  0.00  0.00    +0.000 HD
BRANCH  27  29
ATOM     29  C   UNL     1      -3.009  11.431  17.872  0.00  0.00    +0.000 C 
ATOM     30  C   UNL     1      -3.223  10.251  16.912  0.00  0.00    +0.000 C 
ATOM     31  C   UNL     1      -4.314  11.718  18.610  0.00  0.00    +0.000 C 
ENDBRANCH  27  29
ENDBRANCH  22  25
ENDBRANCH  18  19
ENDBRANCH   2  18
TORSDOF 6
ENDMDL
MODEL 8
REMARK VINA RESULT:      -7.9      2.048      4.661
REMARK  Name = 
REMARK  9 active torsions:
REMARK  status: ('A' for Active; 'I' for Inactive)
REMARK    1  A    between atoms: C_1  and  C_2
REMARK    2  A    between atoms: C_6  and  C_7
REMARK    3  A    between atoms: C_7  and  N_8
REMARK    4  A    between atoms: C_9  and  C_10
REMARK    5  A    between atoms: C_10  and  N_11
REMARK    6  A    between atoms: C_14  and  C_15
REMARK    7  A    between atoms: N_17  and  C_18
REMARK    8  A    between atoms: C_18  and  C_19
REMARK    9  A    between atoms: C_18  and  C_20
REMARK                            x       y       z     vdW  Elec       q    Type
REMARK                         _______ _______ _______ _____ _____    ______ ____
ROOT
ATOM      1  N   UNL     1       2.995   5.681  17.536  0.00  0.00    +0.000 N 
ATOM      2  C   UNL     1       2.951   7.050  17.779  0.00  0.00    +0.000 A 
ATOM      3  C   UNL     1       4.241   7.509  17.562  0.00  0.00    +0.000 A 
ATOM      4  C   UNL     1       5.036   6.455  17.051  0.00  0.00    +0.000 A 
ATOM      5  C   UNL     1       6.369   6.360  16.608  0.00  0.00    +0.000 A 
ATOM      6  C   UNL     1       6.858   5.145  16.120  0.00  0.00    +0.000 A 
ATOM      7  C   UNL     1       6.038   4.022  16.069  0.00  0.00    +0.000 A 
ATOM      8  C   UNL     1       4.715   4.084  16.525  0.00  0.00    +0.000 A 
ATOM      9  C   UNL     1       4.237   5.316  17.014  0.00  0.00    +0.000 A 
ENDROOT
BRANCH   1  10
ATOM     10  C   UNL     1       1.961   4.683  17.834  0.00  0.00    +0.000 C 
BRANCH  10  16
ATOM     11  C   UNL     1       4.696   1.746  20.840  0.00  0.00    +0.000 C 
ATOM     12  C   UNL     1       3.424   2.503  20.596  0.00  0.00    +0.000 A 
ATOM     13  C   UNL     1       2.368   2.450  21.509  0.00  0.00    +0.000 A 
ATOM     14  C   UNL     1       1.220   3.211  21.297  0.00  0.00    +0.000 A 
ATOM     15  C   UNL     1       1.102   4.000  20.154  0.00  0.00    +0.000 A 
ATOM     16  C   UNL     1       2.109   4.001  19.178  0.00  0.00    +0.000 A 
ATOM     17  C   UNL     1       3.286   3.273  19.434  0.00  0.00    +0.000 A 
ENDBRANCH  10  16
ENDBRANCH   1  10
BRANCH   2  18
ATOM     18  C   UNL     1       1.706   7.800  18.220  0.00  0.00    +0.000 C 
BRANCH  18  19
ATOM     19  N   UNL     1       1.942   9.122  18.886  0.00  0.00    +0.000 NA
ATOM     20  C   UNL     1       1.981  10.220  17.915  0.00  0.00    +0.000 C 
ATOM     21  C   UNL     1       2.001  11.626  18.539  0.00  0.00    +0.000 C 
ATOM     22  C   UNL     1       0.791  11.883  19.423  0.00  0.00    +0.000 C 
ATOM     23  C   UNL     1       0.744  10.759  20.478  0.00  0.00    +0.000 C 
ATOM     24  C   UNL     1       0.911   9.329  19.922  0.00  0.00    +0.000 C 
BRANCH  22  25
ATOM     25  C   UNL     1      -0.541  12.012  18.663  0.00  0.00    +0.000 C 
ATOM     26  O   UNL     1      -0.738  12.938  17.880  0.00  0.00    +0.000 OA
ATOM     27  N   UNL     1      -1.494  10.989  18.826  0.00  0.00    +0.000 N 
ATOM     28  H   UNL     1      -1.415  10.357  19.607  0.00  0.00    +0.000 HD
BRANCH  27  29
ATOM     29  C   UNL     1      -2.749  11.075  18.056  0.00  0.00    +0.000 C 
ATOM     30  C   UNL     1      -3.281   9.734  17.527  0.00  0.00    +0.000 C 
ATOM     31  C   UNL     1      -3.855  11.780  18.836  0.00  0.00    +0.000 C 
ENDBRANCH  27  29
ENDBRANCH  22  25
ENDBRANCH  18  19
ENDBRANCH   2  18
TORSDOF 6
ENDMDL
MODEL 9
REMARK VINA RESULT:      -7.9      3.069      7.882
REMARK  Name = 
REMARK  9 active torsions:
REMARK  status: ('A' for Active; 'I' for Inactive)
REMARK    1  A    between atoms: C_1  and  C_2
REMARK    2  A    between atoms: C_6  and  C_7
REMARK    3  A    between atoms: C_7  and  N_8
REMARK    4  A    between atoms: C_9  and  C_10
REMARK    5  A    between atoms: C_10  and  N_11
REMARK    6  A    between atoms: C_14  and  C_15
REMARK    7  A    between atoms: N_17  and  C_18
REMARK    8  A    between atoms: C_18  and  C_19
REMARK    9  A    between atoms: C_18  and  C_20
REMARK                            x       y       z     vdW  Elec       q    Type
REMARK                         _______ _______ _______ _____ _____    ______ ____
ROOT
ATOM      1  N   UNL     1       2.056   6.995  20.174  0.00  0.00    +0.000 N 
ATOM      2  C   UNL     1       2.419   7.038  18.831  0.00  0.00    +0.000 A 
ATOM      3  C   UNL     1       1.880   8.216  18.337  0.00  0.00    +0.000 A 
ATOM      4  C   UNL     1       1.315   8.959  19.402  0.00  0.00    +0.000 A 
ATOM      5  C   UNL     1       0.699  10.221  19.496  0.00  0.00    +0.000 A 
ATOM      6  C   UNL     1       0.262  10.694  20.737  0.00  0.00    +0.000 A 
ATOM      7  C   UNL     1       0.428   9.926  21.885  0.00  0.00    +0.000 A 
ATOM      8  C   UNL     1       1.018   8.657  21.814  0.00  0.00    +0.000 A 
ATOM      9  C   UNL     1       1.454   8.194  20.557  0.00  0.00    +0.000 A 
ENDROOT
BRANCH   1  10
ATOM     10  C   UNL     1       2.177   5.864  21.100  0.00  0.00    +0.000 C 
BRANCH  10  16
ATOM     11  C   UNL     1       4.131   1.566  19.407  0.00  0.00    +0.000 C 
ATOM     12  C   UNL     1       2.931   2.451  19.582  0.00  0.00    +0.000 A 
ATOM     13  C   UNL     1       1.689   2.093  19.051  0.00  0.00    +0.000 A 
ATOM     14  C   UNL     1       0.573   2.895  19.279  0.00  0.00    +0.000 A 
ATOM     15  C   UNL     1       0.695   4.078  20.006  0.00  0.00    +0.000 A 
ATOM     16  C   UNL     1       1.946   4.505  20.473  0.00  0.00    +0.000 A 
ATOM     17  C   UNL     1       3.053   3.657  20.285  0.00  0.00    +0.000 A 
ENDBRANCH  10  16
ENDBRANCH   1  10
BRANCH   2  18
ATOM     18  C   UNL     1       3.215   5.955  18.127  0.00  0.00    +0.000 C 
BRANCH  18  19
ATOM     19  N   UNL     1       4.697   6.169  18.065  0.00  0.00    +0.000 NA
ATOM     20  C   UNL     1       5.435   4.913  18.237  0.00  0.00    +0.000 C 
ATOM     21  C   UNL     1       6.946   5.017  17.970  0.00  0.00    +0.000 C 
ATOM     22  C   UNL     1       7.253   5.500  16.560  0.00  0.00    +0.000 C 
ATOM     23  C   UNL     1       6.514   6.839  16.362  0.00  0.00    +0.000 C 
ATOM     24  C   UNL     1       5.033   6.844  16.796  0.00  0.00    +0.000 C 
BRANCH  22  25
ATOM     25  C   UNL     1       6.913   4.490  15.451  0.00  0.00    +0.000 C 
ATOM     26  O   UNL     1       6.521   3.357  15.723  0.00  0.00    +0.000 OA
ATOM     27  N   UNL     1       6.984   4.928  14.116  0.00  0.00    +0.000 N 
ATOM     28  H   UNL     1       7.493   5.769  13.896  0.00  0.00    +0.000 HD
BRANCH  27  29
ATOM     29  C   UNL     1       6.605   3.983  13.049  0.00  0.00    +0.000 C 
ATOM     30  C   UNL     1       5.095   3.870  12.786  0.00  0.00    +0.000 C 
ATOM     31  C   UNL     1       7.321   4.281  11.735  0.00  0.00    +0.000 C 
ENDBRANCH  27  29
ENDBRANCH  22  25
ENDBRANCH  18  19
ENDBRANCH   2  18
TORSDOF 6
ENDMDL
