MODEL 1
REMARK VINA RESULT:      -8.3      0.000      0.000
REMARK  Name = 
REMARK  9 active torsions:
REMARK  status: ('A' for Active; 'I' for Inactive)
REMARK    1  A    between atoms: C_2  and  C_13
REMARK    2  A    between atoms: N_3  and  C_4
REMARK    3  A    between atoms: C_4  and  C_5
REMARK    4  A    between atoms: C_5  and  C_6
REMARK    5  A    between atoms: N_15  and  C_16
REMARK    6  A    between atoms: C_16  and  C_17
REMARK    7  A    between atoms: C_17  and  C_18
REMARK    8  A    between atoms: C_17  and  S_23
REMARK    9  A    between atoms: S_23  and  C_26
REMARK                            x       y       z     vdW  Elec       q    Type
REMARK                         _______ _______ _______ _____ _____    ______ ____
ROOT
ATOM      1  C   UNL     1       2.086   8.638  18.306  0.00  0.00    +0.000 C 
ATOM      2  O   UNL     1       2.450   8.874  17.162  0.00  0.00    +0.000 OA
ATOM      3  N   UNL     1       2.469   7.546  19.052  0.00  0.00    +0.000 N 
ATOM      4  H   UNL     1       2.094   7.486  19.998  0.00  0.00    +0.000 HD
ENDROOT
BRANCH   1   6
ATOM      5  O   UNL     1       0.824   9.390  20.209  0.00  0.00    +0.000 OA
ATOM      6  C   UNL     1       1.128   9.606  19.045  0.00  0.00    +0.000 C 
ATOM      7  N   UNL     1       0.697  10.664  18.275  0.00  0.00    +0.000 N 
ATOM      8  H   UNL     1       1.057  10.715  17.324  0.00  0.00    +0.000 HD
BRANCH   7   9
ATOM      9  C   UNL     1      -0.199  11.678  18.797  0.00  0.00    +0.000 C 
BRANCH   9  10
ATOM     10  C   UNL     1      -1.608  11.142  19.058  0.00  0.00    +0.000 C 
BRANCH  10  11
ATOM     11  C   UNL     1      -2.371  10.851  17.786  0.00  0.00    +0.000 A 
ATOM     12  C   UNL     1      -3.547  11.555  17.482  0.00  0.00    +0.000 A 
ATOM     13  C   UNL     1      -4.242  11.291  16.299  0.00  0.00    +0.000 A 
ATOM     14  C   UNL     1      -3.768  10.324  15.423  0.00  0.00    +0.000 A 
ATOM     15  F   UNL     1      -4.431  10.079  14.285  0.00  0.00    +0.000 F 
ATOM     16  C   UNL     1      -2.612   9.609  15.710  0.00  0.00    +0.000 A 
ATOM     17  C   UNL     1      -1.916   9.870  16.892  0.00  0.00    +0.000 A 
ENDBRANCH  10  11
ENDBRANCH   9  10
ENDBRANCH   7   9
ENDBRANCH   1   6
BRANCH   3  18
ATOM     18  C   UNL     1       3.387   6.532  18.550  0.00  0.00    +0.000 C 
BRANCH  18  19
ATOM     19  C   UNL     1       3.653   5.385  19.539  0.00  0.00    +0.000 C 
BRANCH  19  20
ATOM     20  C   UNL     1       2.611   4.283  19.437  0.00  0.00    +0.000 A 
ATOM     21  C   UNL     1       2.010   3.733  18.317  0.00  0.00    +0.000 A 
ATOM     22  C   UNL     1       1.015   2.768  18.647  0.00  0.00    +0.000 A 
ATOM     23  C   UNL     1       0.905   2.585  20.005  0.00  0.00    +0.000 A 
ATOM     24  S   UNL     1       1.976   3.590  20.876  0.00  0.00    +0.000 S 
ENDBRANCH  19  20
BRANCH  19  25
ATOM     25  S   UNL     1       5.280   4.659  19.251  0.00  0.00    +0.000 S 
ATOM     26  O   UNL     1       6.319   5.585  19.661  0.00  0.00    +0.000 OA
ATOM     27  O   UNL     1       5.269   3.292  19.744  0.00  0.00    +0.000 OA
BRANCH  25  28
ATOM     28  C   UNL     1       5.435   4.555  17.469  0.00  0.00    +0.000 A 
ATOM     29  C   UNL     1       5.933   5.648  16.752  0.00  0.00    +0.000 A 
ATOM     30  C   UNL     1       6.054   5.560  15.361  0.00  0.00    +0.000 A 
ATOM     31  C   UNL     1       5.692   4.383  14.702  0.00  0.00    +0.000 A 
ATOM     32 CL   UNL     1       5.833   4.282  12.991  0.00  0.00    +0.000 Cl
ATOM     33  C   UNL     1       5.220   3.286  15.423  0.00  0.00    +0.000 A 
ATOM     34  C   UNL     1       5.093   3.368  16.812  0.00  0.00    +0.000 A 
ENDBRANCH  25  28
ENDBRANCH  19  25
ENDBRANCH  18  19
ENDBRANCH   3  18
TORSDOF 9
ENDMDL
MODEL 2
REMARK VINA RESULT:      -8.3      2.782      3.425
REMARK  Name = 
REMARK  9 active torsions:
REMARK  status: ('A' for Active; 'I' for Inactive)
REMARK    1  A    between atoms: C_2  and  C_13
REMARK    2  A    between atoms: N_3  and  C_4
REMARK    3  A    between atoms: C_4  and  C_5
REMARK    4  A    between atoms: C_5  and  C_6
REMARK    5  A    between atoms: N_15  and  C_16
REMARK    6  A    between atoms: C_16  and  C_17
REMARK    7  A    between atoms: C_17  and  C_18
REMARK    8  A    between atoms: C_17  and  S_23
REMARK    9  A    between atoms: S_23  and  C_26
REMARK                            x       y       z     vdW  Elec       q    Type
REMARK                         _______ _______ _______ _____ _____    ______ ____
ROOT
ATOM      1  C   UNL     1       2.126   8.273  17.924  0.00  0.00    +0.000 C 
ATOM      2  O   UNL     1       1.213   7.561  17.526  0.00  0.00    +0.000 OA
ATOM      3  N   UNL     1       3.423   7.858  18.128  0.00  0.00    +0.000 N 
ATOM      4  H   UNL     1       4.081   8.567  18.451  0.00  0.00    +0.000 HD
ENDROOT
BRANCH   1   6
ATOM      5  O   UNL     1       2.304  10.625  17.464  0.00  0.00    +0.000 OA
ATOM      6  C   UNL     1       1.882   9.771  18.230  0.00  0.00    +0.000 C 
ATOM      7  N   UNL     1       1.177   9.998  19.392  0.00  0.00    +0.000 N 
ATOM      8  H   UNL     1       0.877   9.177  19.913  0.00  0.00    +0.000 HD
BRANCH   7   9
ATOM      9  C   UNL     1       0.847  11.338  19.840  0.00  0.00    +0.000 C 
BRANCH   9  10
ATOM     10  C   UNL     1      -0.617  11.701  19.587  0.00  0.00    +0.000 C 
BRANCH  10  11
ATOM     11  C   UNL     1      -1.411  11.863  20.863  0.00  0.00    +0.000 A 
ATOM     12  C   UNL     1      -2.593  12.620  20.877  0.00  0.00    +0.000 A 
ATOM     13  C   UNL     1      -3.330  12.757  22.057  0.00  0.00    +0.000 A 
ATOM     14  C   UNL     1      -2.886  12.144  23.221  0.00  0.00    +0.000 A 
ATOM     15  F   UNL     1      -3.598  12.269  24.349  0.00  0.00    +0.000 F 
ATOM     16  C   UNL     1      -1.713  11.399  23.231  0.00  0.00    +0.000 A 
ATOM     17  C   UNL     1      -0.974  11.261  22.053  0.00  0.00    +0.000 A 
ENDBRANCH  10  11
ENDBRANCH   9  10
ENDBRANCH   7   9
ENDBRANCH   1   6
BRANCH   3  18
ATOM     18  C   UNL     1       3.864   6.494  17.872  0.00  0.00    +0.000 C 
BRANCH  18  19
ATOM     19  C   UNL     1       4.003   5.633  19.138  0.00  0.00    +0.000 C 
BRANCH  19  20
ATOM     20  C   UNL     1       2.807   4.721  19.348  0.00  0.00    +0.000 A 
ATOM     21  C   UNL     1       2.034   4.044  18.419  0.00  0.00    +0.000 A 
ATOM     22  C   UNL     1       0.942   3.350  19.015  0.00  0.00    +0.000 A 
ATOM     23  C   UNL     1       0.928   3.489  20.384  0.00  0.00    +0.000 A 
ATOM     24  S   UNL     1       2.207   4.472  20.941  0.00  0.00    +0.000 S 
ENDBRANCH  19  20
BRANCH  19  25
ATOM     25  S   UNL     1       5.490   4.614  19.056  0.00  0.00    +0.000 S 
ATOM     26  O   UNL     1       6.609   5.314  19.659  0.00  0.00    +0.000 OA
ATOM     27  O   UNL     1       5.148   3.265  19.475  0.00  0.00    +0.000 OA
BRANCH  25  28
ATOM     28  C   UNL     1       5.894   4.518  17.314  0.00  0.00    +0.000 A 
ATOM     29  C   UNL     1       5.024   3.861  16.436  0.00  0.00    +0.000 A 
ATOM     30  C   UNL     1       5.343   3.792  15.076  0.00  0.00    +0.000 A 
ATOM     31  C   UNL     1       6.515   4.386  14.603  0.00  0.00    +0.000 A 
ATOM     32 CL   UNL     1       6.909   4.289  12.931  0.00  0.00    +0.000 Cl
ATOM     33  C   UNL     1       7.367   5.062  15.476  0.00  0.00    +0.000 A 
ATOM     34  C   UNL     1       7.057   5.132  16.836  0.00  0.00    +0.000 A 
ENDBRANCH  25  28
ENDBRANCH  19  25
ENDBRANCH  18  19
ENDBRANCH   3  18
TORSDOF 9
ENDMDL
MODEL 3
REMARK VINA RESULT:      -8.3      1.436      1.874
REMARK  Name = 
REMARK  9 active torsions:
REMARK  status: ('A' for Active; 'I' for Inactive)
REMARK    1  A    between atoms: C_2  and  C_13
REMARK    2  A    between atoms: N_3  and  C_4
REMARK    3  A    between atoms: C_4  and  C_5
REMARK    4  A    between atoms: C_5  and  C_6
REMARK    5  A    between atoms: N_15  and  C_16
REMARK    6  A    between atoms: C_16  and  C_17
REMARK    7  A    between atoms: C_17  and  C_18
REMARK    8  A    between atoms: C_17  and  S_23
REMARK    9  A    between atoms: S_23  and  C_26
REMARK                            x       y       z     vdW  Elec       q    Type
REMARK                         _______ _______ _______ _____ _____    ______ ____
ROOT
ATOM      1  C   UNL     1       2.206   8.525  18.090  0.00  0.00    +0.000 C 
ATOM      2  O   UNL     1       2.752   8.831  17.039  0.00  0.00    +0.000 OA
ATOM      3  N   UNL     1       2.491   7.402  18.834  0.00  0.00    +0.000 N 
ATOM      4  H   UNL     1       1.963   7.282  19.699  0.00  0.00    +0.000 HD
ENDROOT
BRANCH   1   6
ATOM      5  O   UNL     1       1.115   9.670  19.900  0.00  0.00    +0.000 OA
ATOM      6  C   UNL     1       1.107   9.429  18.702  0.00  0.00    +0.000 C 
ATOM      7  N   UNL     1       0.190   9.894  17.785  0.00  0.00    +0.000 N 
ATOM      8  H   UNL     1       0.332   9.618  16.816  0.00  0.00    +0.000 HD
BRANCH   7   9
ATOM      9  C   UNL     1      -0.908  10.760  18.171  0.00  0.00    +0.000 C 
BRANCH   9  10
ATOM     10  C   UNL     1      -2.080  10.700  17.189  0.00  0.00    +0.000 C 
BRANCH  10  11
ATOM     11  C   UNL     1      -3.336  11.342  17.733  0.00  0.00    +0.000 A 
ATOM     12  C   UNL     1      -4.487  11.446  16.936  0.00  0.00    +0.000 A 
ATOM     13  C   UNL     1      -5.649  12.030  17.447  0.00  0.00    +0.000 A 
ATOM     14  C   UNL     1      -5.662  12.514  18.748  0.00  0.00    +0.000 A 
ATOM     15  F   UNL     1      -6.779  13.067  19.239  0.00  0.00    +0.000 F 
ATOM     16  C   UNL     1      -4.529  12.432  19.550  0.00  0.00    +0.000 A 
ATOM     17  C   UNL     1      -3.366  11.849  19.041  0.00  0.00    +0.000 A 
ENDBRANCH  10  11
ENDBRANCH   9  10
ENDBRANCH   7   9
ENDBRANCH   1   6
BRANCH   3  18
ATOM     18  C   UNL     1       3.512   6.438  18.447  0.00  0.00    +0.000 C 
BRANCH  18  19
ATOM     19  C   UNL     1       3.742   5.321  19.479  0.00  0.00    +0.000 C 
BRANCH  19  20
ATOM     20  C   UNL     1       2.720   4.203  19.355  0.00  0.00    +0.000 A 
ATOM     21  C   UNL     1       1.936   3.835  18.274  0.00  0.00    +0.000 A 
ATOM     22  C   UNL     1       1.036   2.775  18.585  0.00  0.00    +0.000 A 
ATOM     23  C   UNL     1       1.177   2.343  19.883  0.00  0.00    +0.000 A 
ATOM     24  S   UNL     1       2.368   3.228  20.727  0.00  0.00    +0.000 S 
ENDBRANCH  19  20
BRANCH  19  25
ATOM     25  S   UNL     1       5.390   4.610  19.292  0.00  0.00    +0.000 S 
ATOM     26  O   UNL     1       6.390   5.525  19.808  0.00  0.00    +0.000 OA
ATOM     27  O   UNL     1       5.349   3.228  19.741  0.00  0.00    +0.000 OA
BRANCH  25  28
ATOM     28  C   UNL     1       5.679   4.562  17.526  0.00  0.00    +0.000 A 
ATOM     29  C   UNL     1       6.725   5.310  16.974  0.00  0.00    +0.000 A 
ATOM     30  C   UNL     1       6.948   5.266  15.594  0.00  0.00    +0.000 A 
ATOM     31  C   UNL     1       6.138   4.470  14.781  0.00  0.00    +0.000 A 
ATOM     32 CL   UNL     1       6.409   4.427  13.083  0.00  0.00    +0.000 Cl
ATOM     33  C   UNL     1       5.112   3.705  15.337  0.00  0.00    +0.000 A 
ATOM     34  C   UNL     1       4.882   3.747  16.714  0.00  0.00    +0.000 A 
ENDBRANCH  25  28
ENDBRANCH  19  25
ENDBRANCH  18  19
ENDBRANCH   3  18
TORSDOF 9
ENDMDL
MODEL 4
REMARK VINA RESULT:      -8.2      1.021      1.642
REMARK  Name = 
REMARK  9 active torsions:
REMARK  status: ('A' for Active; 'I' for Inactive)
REMARK    1  A    between atoms: C_2  and  C_13
REMARK    2  A    between atoms: N_3  and  C_4
REMARK    3  A    between atoms: C_4  and  C_5
REMARK    4  A    between atoms: C_5  and  C_6
REMARK    5  A    between atoms: N_15  and  C_16
REMARK    6  A    between atoms: C_16  and  C_17
REMARK    7  A    between atoms: C_17  and  C_18
REMARK    8  A    between atoms: C_17  and  S_23
REMARK    9  A    between atoms: S_23  and  C_26
REMARK                            x       y       z     vdW  Elec       q    Type
REMARK                         _______ _______ _______ _____ _____    ______ ____
ROOT
ATOM      1  C   UNL     1       2.281   8.437  18.083  0.00  0.00    +0.000 C 
ATOM      2  O   UNL     1       2.668   8.591  16.932  0.00  0.00    +0.000 OA
ATOM      3  N   UNL     1       2.663   7.410  18.917  0.00  0.00    +0.000 N 
ATOM      4  H   UNL     1       2.267   7.417  19.857  0.00  0.00    +0.000 HD
ENDROOT
BRANCH   1   6
ATOM      5  O   UNL     1       1.256   9.567  19.939  0.00  0.00    +0.000 OA
ATOM      6  C   UNL     1       1.293   9.442  18.724  0.00  0.00    +0.000 C 
ATOM      7  N   UNL     1       0.521  10.128  17.812  0.00  0.00    +0.000 N 
ATOM      8  H   UNL     1       0.685   9.924  16.829  0.00  0.00    +0.000 HD
BRANCH   7   9
ATOM      9  C   UNL     1      -0.457  11.117  18.225  0.00  0.00    +0.000 C 
BRANCH   9  10
ATOM     10  C   UNL     1      -1.712  10.487  18.833  0.00  0.00    +0.000 C 
BRANCH  10  11
ATOM     11  C   UNL     1      -2.991  11.045  18.250  0.00  0.00    +0.000 A 
ATOM     12  C   UNL     1      -3.308  10.841  16.898  0.00  0.00    +0.000 A 
ATOM     13  C   UNL     1      -4.497  11.349  16.368  0.00  0.00    +0.000 A 
ATOM     14  C   UNL     1      -5.365  12.063  17.183  0.00  0.00    +0.000 A 
ATOM     15  F   UNL     1      -6.508  12.542  16.675  0.00  0.00    +0.000 F 
ATOM     16  C   UNL     1      -5.064  12.285  18.521  0.00  0.00    +0.000 A 
ATOM     17  C   UNL     1      -3.877  11.779  19.054  0.00  0.00    +0.000 A 
ENDBRANCH  10  11
ENDBRANCH   9  10
ENDBRANCH   7   9
ENDBRANCH   1   6
BRANCH   3  18
ATOM     18  C   UNL     1       3.607   6.377  18.515  0.00  0.00    +0.000 C 
BRANCH  18  19
ATOM     19  C   UNL     1       3.798   5.264  19.559  0.00  0.00    +0.000 C 
BRANCH  19  20
ATOM     20  C   UNL     1       2.712   4.204  19.478  0.00  0.00    +0.000 A 
ATOM     21  C   UNL     1       2.066   3.681  18.370  0.00  0.00    +0.000 A 
ATOM     22  C   UNL     1       1.041   2.755  18.721  0.00  0.00    +0.000 A 
ATOM     23  C   UNL     1       0.952   2.574  20.081  0.00  0.00    +0.000 A 
ATOM     24  S   UNL     1       2.080   3.534  20.930  0.00  0.00    +0.000 S 
ENDBRANCH  19  20
BRANCH  19  25
ATOM     25  S   UNL     1       5.399   4.457  19.345  0.00  0.00    +0.000 S 
ATOM     26  O   UNL     1       6.449   5.267  19.933  0.00  0.00    +0.000 OA
ATOM     27  O   UNL     1       5.258   3.054  19.699  0.00  0.00    +0.000 OA
BRANCH  25  28
ATOM     28  C   UNL     1       5.713   4.507  17.582  0.00  0.00    +0.000 A 
ATOM     29  C   UNL     1       4.907   3.765  16.713  0.00  0.00    +0.000 A 
ATOM     30  C   UNL     1       5.156   3.810  15.337  0.00  0.00    +0.000 A 
ATOM     31  C   UNL     1       6.194   4.602  14.841  0.00  0.00    +0.000 A 
ATOM     32 CL   UNL     1       6.503   4.647  13.150  0.00  0.00    +0.000 Cl
ATOM     33  C   UNL     1       6.979   5.362  15.708  0.00  0.00    +0.000 A 
ATOM     34  C   UNL     1       6.739   5.318  17.084  0.00  0.00    +0.000 A 
ENDBRANCH  25  28
ENDBRANCH  19  25
ENDBRANCH  18  19
ENDBRANCH   3  18
TORSDOF 9
ENDMDL
MODEL 5
REMARK VINA RESULT:      -8.2      5.083      9.692
REMARK  Name = 
REMARK  9 active torsions:
REMARK  status: ('A' for Active; 'I' for Inactive)
REMARK    1  A    between atoms: C_2  and  C_13
REMARK    2  A    between atoms: N_3  and  C_4
REMARK    3  A    between atoms: C_4  and  C_5
REMARK    4  A    between atoms: C_5  and  C_6
REMARK    5  A    between atoms: N_15  and  C_16
REMARK    6  A    between atoms: C_16  and  C_17
REMARK    7  A    between atoms: C_17  and  C_18
REMARK    8  A    between atoms: C_17  and  S_23
REMARK    9  A    between atoms: S_23  and  C_26
REMARK                            x       y       z     vdW  Elec       q    Type
REMARK                         _______ _______ _______ _____ _____    ______ ____
ROOT
ATOM      1  C   UNL     1       2.237   8.446  18.387  0.00  0.00    +0.000 C 
ATOM      2  O   UNL     1       2.518   8.606  17.206  0.00  0.00    +0.000 OA
ATOM      3  N   UNL     1       1.615   9.378  19.187  0.00  0.00    +0.000 N 
ATOM      4  H   UNL     1       1.433   9.100  20.151  0.00  0.00    +0.000 HD
ENDROOT
BRANCH   1   6
ATOM      5  O   UNL     1       3.414   6.366  18.637  0.00  0.00    +0.000 OA
ATOM      6  C   UNL     1       2.565   7.112  19.102  0.00  0.00    +0.000 C 
ATOM      7  N   UNL     1       1.831   6.895  20.247  0.00  0.00    +0.000 N 
ATOM      8  H   UNL     1       1.173   7.624  20.514  0.00  0.00    +0.000 HD
BRANCH   7   9
ATOM      9  C   UNL     1       2.004   5.702  21.055  0.00  0.00    +0.000 C 
BRANCH   9  10
ATOM     10  C   UNL     1       1.176   4.520  20.547  0.00  0.00    +0.000 C 
BRANCH  10  11
ATOM     11  C   UNL     1       1.996   3.525  19.757  0.00  0.00    +0.000 A 
ATOM     12  C   UNL     1       3.166   2.972  20.301  0.00  0.00    +0.000 A 
ATOM     13  C   UNL     1       3.913   2.044  19.571  0.00  0.00    +0.000 A 
ATOM     14  C   UNL     1       3.497   1.672  18.300  0.00  0.00    +0.000 A 
ATOM     15  F   UNL     1       4.211   0.776  17.605  0.00  0.00    +0.000 F 
ATOM     16  C   UNL     1       2.348   2.216  17.739  0.00  0.00    +0.000 A 
ATOM     17  C   UNL     1       1.600   3.144  18.465  0.00  0.00    +0.000 A 
ENDBRANCH  10  11
ENDBRANCH   9  10
ENDBRANCH   7   9
ENDBRANCH   1   6
BRANCH   3  18
ATOM     18  C   UNL     1       1.198  10.685  18.699  0.00  0.00    +0.000 C 
BRANCH  18  19
ATOM     19  C   UNL     1       0.064  11.325  19.515  0.00  0.00    +0.000 C 
BRANCH  19  20
ATOM     20  C   UNL     1      -1.304  11.058  18.910  0.00  0.00    +0.000 A 
ATOM     21  C   UNL     1      -1.714  10.044  18.060  0.00  0.00    +0.000 A 
ATOM     22  C   UNL     1      -3.070  10.189  17.648  0.00  0.00    +0.000 A 
ATOM     23  C   UNL     1      -3.668  11.288  18.218  0.00  0.00    +0.000 A 
ATOM     24  S   UNL     1      -2.592  12.155  19.221  0.00  0.00    +0.000 S 
ENDBRANCH  19  20
BRANCH  19  25
ATOM     25  S   UNL     1       0.069  10.705  21.210  0.00  0.00    +0.000 S 
ATOM     26  O   UNL     1      -0.745   9.507  21.305  0.00  0.00    +0.000 OA
ATOM     27  O   UNL     1       1.437  10.711  21.700  0.00  0.00    +0.000 OA
BRANCH  25  28
ATOM     28  C   UNL     1      -0.817  11.938  22.160  0.00  0.00    +0.000 A 
ATOM     29  C   UNL     1      -1.939  11.564  22.907  0.00  0.00    +0.000 A 
ATOM     30  C   UNL     1      -2.625  12.531  23.649  0.00  0.00    +0.000 A 
ATOM     31  C   UNL     1      -2.180  13.855  23.650  0.00  0.00    +0.000 A 
ATOM     32 CL   UNL     1      -3.032  15.043  24.556  0.00  0.00    +0.000 Cl
ATOM     33  C   UNL     1      -1.045  14.220  22.925  0.00  0.00    +0.000 A 
ATOM     34  C   UNL     1      -0.358  13.260  22.179  0.00  0.00    +0.000 A 
ENDBRANCH  25  28
ENDBRANCH  19  25
ENDBRANCH  18  19
ENDBRANCH   3  18
TORSDOF 9
ENDMDL
MODEL 6
REMARK VINA RESULT:      -8.1      4.912      9.909
REMARK  Name = 
REMARK  9 active torsions:
REMARK  status: ('A' for Active; 'I' for Inactive)
REMARK    1  A    between atoms: C_2  and  C_13
REMARK    2  A    between atoms: N_3  and  C_4
REMARK    3  A    between atoms: C_4  and  C_5
REMARK    4  A    between atoms: C_5  and  C_6
REMARK    5  A    between atoms: N_15  and  C_16
REMARK    6  A    between atoms: C_16  and  C_17
REMARK    7  A    between atoms: C_17  and  C_18
REMARK    8  A    between atoms: C_17  and  S_23
REMARK    9  A    between atoms: S_23  and  C_26
REMARK                            x       y       z     vdW  Elec       q    Type
REMARK                         _______ _______ _______ _____ _____    ______ ____
ROOT
ATOM      1  C   UNL     1       2.158   8.402  18.341  0.00  0.00    +0.000 C 
ATOM      2  O   UNL     1       2.579   8.597  17.209  0.00  0.00    +0.000 OA
ATOM      3  N   UNL     1       1.488   9.328  19.109  0.00  0.00    +0.000 N 
ATOM      4  H   UNL     1       1.184   9.019  20.032  0.00  0.00    +0.000 HD
ENDROOT
BRANCH   1   6
ATOM      5  O   UNL     1       2.217   6.927  20.238  0.00  0.00    +0.000 OA
ATOM      6  C   UNL     1       2.344   7.025  19.026  0.00  0.00    +0.000 C 
ATOM      7  N   UNL     1       2.647   6.002  18.154  0.00  0.00    +0.000 N 
ATOM      8  H   UNL     1       2.699   6.243  17.167  0.00  0.00    +0.000 HD
BRANCH   7   9
ATOM      9  C   UNL     1       2.851   4.640  18.611  0.00  0.00    +0.000 C 
BRANCH   9  10
ATOM     10  C   UNL     1       4.321   4.329  18.900  0.00  0.00    +0.000 C 
BRANCH  10  11
ATOM     11  C   UNL     1       5.212   4.528  17.695  0.00  0.00    +0.000 A 
ATOM     12  C   UNL     1       4.946   3.854  16.492  0.00  0.00    +0.000 A 
ATOM     13  C   UNL     1       5.766   4.052  15.377  0.00  0.00    +0.000 A 
ATOM     14  C   UNL     1       6.850   4.915  15.463  0.00  0.00    +0.000 A 
ATOM     15  F   UNL     1       7.629   5.109  14.392  0.00  0.00    +0.000 F 
ATOM     16  C   UNL     1       7.136   5.582  16.648  0.00  0.00    +0.000 A 
ATOM     17  C   UNL     1       6.319   5.387  17.764  0.00  0.00    +0.000 A 
ENDBRANCH  10  11
ENDBRANCH   9  10
ENDBRANCH   7   9
ENDBRANCH   1   6
BRANCH   3  18
ATOM     18  C   UNL     1       1.186  10.672  18.638  0.00  0.00    +0.000 C 
BRANCH  18  19
ATOM     19  C   UNL     1       0.153  11.419  19.497  0.00  0.00    +0.000 C 
BRANCH  19  20
ATOM     20  C   UNL     1      -1.248  11.342  18.912  0.00  0.00    +0.000 A 
ATOM     21  C   UNL     1      -2.382  12.068  19.232  0.00  0.00    +0.000 A 
ATOM     22  C   UNL     1      -3.531  11.638  18.506  0.00  0.00    +0.000 A 
ATOM     23  C   UNL     1      -3.237  10.618  17.632  0.00  0.00    +0.000 A 
ATOM     24  S   UNL     1      -1.592  10.165  17.706  0.00  0.00    +0.000 S 
ENDBRANCH  19  20
BRANCH  19  25
ATOM     25  S   UNL     1       0.109  10.746  21.171  0.00  0.00    +0.000 S 
ATOM     26  O   UNL     1      -0.707   9.547  21.206  0.00  0.00    +0.000 OA
ATOM     27  O   UNL     1       1.463  10.736  21.699  0.00  0.00    +0.000 OA
BRANCH  25  28
ATOM     28  C   UNL     1      -0.802  11.950  22.134  0.00  0.00    +0.000 A 
ATOM     29  C   UNL     1      -1.918  11.545  22.874  0.00  0.00    +0.000 A 
ATOM     30  C   UNL     1      -2.624  12.490  23.626  0.00  0.00    +0.000 A 
ATOM     31  C   UNL     1      -2.206  13.822  23.643  0.00  0.00    +0.000 A 
ATOM     32 CL   UNL     1      -3.084  14.982  24.561  0.00  0.00    +0.000 Cl
ATOM     33  C   UNL     1      -1.078  14.218  22.925  0.00  0.00    +0.000 A 
ATOM     34  C   UNL     1      -0.370  13.281  22.168  0.00  0.00    +0.000 A 
ENDBRANCH  25  28
ENDBRANCH  19  25
ENDBRANCH  18  19
ENDBRANCH   3  18
TORSDOF 9
ENDMDL
MODEL 7
REMARK VINA RESULT:      -8.0      4.968      9.923
REMARK  Name = 
REMARK  9 active torsions:
REMARK  status: ('A' for Active; 'I' for Inactive)
REMARK    1  A    between atoms: C_2  and  C_13
REMARK    2  A    between atoms: N_3  and  C_4
REMARK    3  A    between atoms: C_4  and  C_5
REMARK    4  A    between atoms: C_5  and  C_6
REMARK    5  A    between atoms: N_15  and  C_16
REMARK    6  A    between atoms: C_16  and  C_17
REMARK    7  A    between atoms: C_17  and  C_18
REMARK    8  A    between atoms: C_17  and  S_23
REMARK    9  A    between atoms: S_23  and  C_26
REMARK                            x       y       z     vdW  Elec       q    Type
REMARK                         _______ _______ _______ _____ _____    ______ ____
ROOT
ATOM      1  C   UNL     1       2.013   8.661  18.351  0.00  0.00    +0.000 C 
ATOM      2  O   UNL     1       2.481   8.900  17.246  0.00  0.00    +0.000 OA
ATOM      3  N   UNL     1       1.247   9.530  19.094  0.00  0.00    +0.000 N 
ATOM      4  H   UNL     1       0.915   9.188  19.996  0.00  0.00    +0.000 HD
ENDROOT
BRANCH   1   6
ATOM      5  O   UNL     1       2.219   7.195  20.246  0.00  0.00    +0.000 OA
ATOM      6  C   UNL     1       2.249   7.287  19.027  0.00  0.00    +0.000 C 
ATOM      7  N   UNL     1       2.477   6.258  18.140  0.00  0.00    +0.000 N 
ATOM      8  H   UNL     1       2.451   6.493  17.150  0.00  0.00    +0.000 HD
BRANCH   7   9
ATOM      9  C   UNL     1       2.712   4.898  18.587  0.00  0.00    +0.000 C 
BRANCH   9  10
ATOM     10  C   UNL     1       4.191   4.613  18.858  0.00  0.00    +0.000 C 
BRANCH  10  11
ATOM     11  C   UNL     1       5.055   4.768  17.626  0.00  0.00    +0.000 A 
ATOM     12  C   UNL     1       6.193   5.590  17.651  0.00  0.00    +0.000 A 
ATOM     13  C   UNL     1       6.994   5.720  16.514  0.00  0.00    +0.000 A 
ATOM     14  C   UNL     1       6.659   5.037  15.353  0.00  0.00    +0.000 A 
ATOM     15  F   UNL     1       7.433   5.156  14.266  0.00  0.00    +0.000 F 
ATOM     16  C   UNL     1       5.530   4.227  15.304  0.00  0.00    +0.000 A 
ATOM     17  C   UNL     1       4.727   4.095  16.439  0.00  0.00    +0.000 A 
ENDBRANCH  10  11
ENDBRANCH   9  10
ENDBRANCH   7   9
ENDBRANCH   1   6
BRANCH   3  18
ATOM     18  C   UNL     1       0.887  10.861  18.625  0.00  0.00    +0.000 C 
BRANCH  18  19
ATOM     19  C   UNL     1      -0.095  11.605  19.546  0.00  0.00    +0.000 C 
BRANCH  19  20
ATOM     20  C   UNL     1      -1.529  11.513  19.054  0.00  0.00    +0.000 A 
ATOM     21  C   UNL     1      -2.639  12.260  19.412  0.00  0.00    +0.000 A 
ATOM     22  C   UNL     1      -3.832  11.808  18.779  0.00  0.00    +0.000 A 
ATOM     23  C   UNL     1      -3.598  10.749  17.932  0.00  0.00    +0.000 A 
ATOM     24  S   UNL     1      -1.954  10.288  17.923  0.00  0.00    +0.000 S 
ENDBRANCH  19  20
BRANCH  19  25
ATOM     25  S   UNL     1      -0.024  10.941  21.223  0.00  0.00    +0.000 S 
ATOM     26  O   UNL     1      -0.797   9.716  21.307  0.00  0.00    +0.000 OA
ATOM     27  O   UNL     1       1.357  10.979  21.676  0.00  0.00    +0.000 OA
BRANCH  25  28
ATOM     28  C   UNL     1      -0.921  12.120  22.229  0.00  0.00    +0.000 A 
ATOM     29  C   UNL     1      -0.483  13.447  22.300  0.00  0.00    +0.000 A 
ATOM     30  C   UNL     1      -1.189  14.363  23.085  0.00  0.00    +0.000 A 
ATOM     31  C   UNL     1      -2.330  13.955  23.779  0.00  0.00    +0.000 A 
ATOM     32 CL   UNL     1      -3.190  15.083  24.751  0.00  0.00    +0.000 Cl
ATOM     33  C   UNL     1      -2.780  12.637  23.686  0.00  0.00    +0.000 A 
ATOM     34  C   UNL     1      -2.077  11.715  22.907  0.00  0.00    +0.000 A 
ENDBRANCH  25  28
ENDBRANCH  19  25
ENDBRANCH  18  19
ENDBRANCH   3  18
TORSDOF 9
ENDMDL
MODEL 8
REMARK VINA RESULT:      -8.0      5.112      9.715
REMARK  Name = 
REMARK  9 active torsions:
REMARK  status: ('A' for Active; 'I' for Inactive)
REMARK    1  A    between atoms: C_2  and  C_13
REMARK    2  A    between atoms: N_3  and  C_4
REMARK    3  A    between atoms: C_4  and  C_5
REMARK    4  A    between atoms: C_5  and  C_6
REMARK    5  A    between atoms: N_15  and  C_16
REMARK    6  A    between atoms: C_16  and  C_17
REMARK    7  A    between atoms: C_17  and  C_18
REMARK    8  A    between atoms: C_17  and  S_23
REMARK    9  A    between atoms: S_23  and  C_26
REMARK                            x       y       z     vdW  Elec       q    Type
REMARK                         _______ _______ _______ _____ _____    ______ ____
ROOT
ATOM      1  C   UNL     1       1.536   9.302  18.176  0.00  0.00    +0.000 C 
ATOM      2  O   UNL     1       0.990   9.251  17.082  0.00  0.00    +0.000 OA
ATOM      3  N   UNL     1       1.552  10.401  19.005  0.00  0.00    +0.000 N 
ATOM      4  H   UNL     1       2.037  10.292  19.895  0.00  0.00    +0.000 HD
ENDROOT
BRANCH   1   6
ATOM      5  O   UNL     1       2.108   7.742  19.913  0.00  0.00    +0.000 OA
ATOM      6  C   UNL     1       2.275   8.066  18.746  0.00  0.00    +0.000 C 
ATOM      7  N   UNL     1       3.083   7.425  17.832  0.00  0.00    +0.000 N 
ATOM      8  H   UNL     1       3.100   7.808  16.889  0.00  0.00    +0.000 HD
BRANCH   7   9
ATOM      9  C   UNL     1       3.850   6.244  18.182  0.00  0.00    +0.000 C 
BRANCH   9  10
ATOM     10  C   UNL     1       3.136   4.945  17.803  0.00  0.00    +0.000 C 
BRANCH  10  11
ATOM     11  C   UNL     1       2.499   4.257  18.989  0.00  0.00    +0.000 A 
ATOM     12  C   UNL     1       1.485   3.304  18.801  0.00  0.00    +0.000 A 
ATOM     13  C   UNL     1       0.908   2.662  19.900  0.00  0.00    +0.000 A 
ATOM     14  C   UNL     1       1.337   2.974  21.183  0.00  0.00    +0.000 A 
ATOM     15  F   UNL     1       0.789   2.352  22.235  0.00  0.00    +0.000 F 
ATOM     16  C   UNL     1       2.331   3.923  21.391  0.00  0.00    +0.000 A 
ATOM     17  C   UNL     1       2.910   4.566  20.295  0.00  0.00    +0.000 A 
ENDBRANCH  10  11
ENDBRANCH   9  10
ENDBRANCH   7   9
ENDBRANCH   1   6
BRANCH   3  18
ATOM     18  C   UNL     1       0.890  11.653  18.666  0.00  0.00    +0.000 C 
BRANCH  18  19
ATOM     19  C   UNL     1      -0.308  11.992  19.568  0.00  0.00    +0.000 C 
BRANCH  19  20
ATOM     20  C   UNL     1      -1.622  11.488  18.995  0.00  0.00    +0.000 A 
ATOM     21  C   UNL     1      -1.866  10.421  18.146  0.00  0.00    +0.000 A 
ATOM     22  C   UNL     1      -3.237  10.324  17.770  0.00  0.00    +0.000 A 
ATOM     23  C   UNL     1      -4.006  11.297  18.365  0.00  0.00    +0.000 A 
ATOM     24  S   UNL     1      -3.075  12.336  19.348  0.00  0.00    +0.000 S 
ENDBRANCH  19  20
BRANCH  19  25
ATOM     25  S   UNL     1      -0.091  11.277  21.211  0.00  0.00    +0.000 S 
ATOM     26  O   UNL     1      -0.753   9.989  21.286  0.00  0.00    +0.000 OA
ATOM     27  O   UNL     1       1.304  11.417  21.594  0.00  0.00    +0.000 OA
BRANCH  25  28
ATOM     28  C   UNL     1      -1.028  12.339  22.308  0.00  0.00    +0.000 A 
ATOM     29  C   UNL     1      -0.605  13.655  22.528  0.00  0.00    +0.000 A 
ATOM     30  C   UNL     1      -1.343  14.480  23.383  0.00  0.00    +0.000 A 
ATOM     31  C   UNL     1      -2.497  13.993  23.999  0.00  0.00    +0.000 A 
ATOM     32 CL   UNL     1      -3.395  15.008  25.058  0.00  0.00    +0.000 Cl
ATOM     33  C   UNL     1      -2.930  12.689  23.758  0.00  0.00    +0.000 A 
ATOM     34  C   UNL     1      -2.197  11.858  22.908  0.00  0.00    +0.000 A 
ENDBRANCH  25  28
ENDBRANCH  19  25
ENDBRANCH  18  19
ENDBRANCH   3  18
TORSDOF 9
ENDMDL
MODEL 9
REMARK VINA RESULT:      -8.0      4.993      9.754
REMARK  Name = 
REMARK  9 active torsions:
REMARK  status: ('A' for Active; 'I' for Inactive)
REMARK    1  A    between atoms: C_2  and  C_13
REMARK    2  A    between atoms: N_3  and  C_4
REMARK    3  A    between atoms: C_4  and  C_5
REMARK    4  A    between atoms: C_5  and  C_6
REMARK    5  A    between atoms: N_15  and  C_16
REMARK    6  A    between atoms: C_16  and  C_17
REMARK    7  A    between atoms: C_17  and  C_18
REMARK    8  A    between atoms: C_17  and  S_23
REMARK    9  A    between atoms: S_23  and  C_26
REMARK                            x       y       z     vdW  Elec       q    Type
REMARK                         _______ _______ _______ _____ _____    ______ ____
ROOT
ATOM      1  C   UNL     1       1.982   9.113  18.181  0.00  0.00    +0.000 C 
ATOM      2  O   UNL     1       1.898   9.207  16.963  0.00  0.00    +0.000 OA
ATOM      3  N   UNL     1       1.606  10.085  19.080  0.00  0.00    +0.000 N 
ATOM      4  H   UNL     1       1.723   9.861  20.068  0.00  0.00    +0.000 HD
ENDROOT
BRANCH   1   6
ATOM      5  O   UNL     1       2.122   7.472  19.932  0.00  0.00    +0.000 OA
ATOM      6  C   UNL     1       2.534   7.822  18.835  0.00  0.00    +0.000 C 
ATOM      7  N   UNL     1       3.478   7.167  18.074  0.00  0.00    +0.000 N 
ATOM      8  H   UNL     1       3.701   7.577  17.170  0.00  0.00    +0.000 HD
BRANCH   7   9
ATOM      9  C   UNL     1       4.102   5.936  18.521  0.00  0.00    +0.000 C 
BRANCH   9  10
ATOM     10  C   UNL     1       3.316   4.691  18.105  0.00  0.00    +0.000 C 
BRANCH  10  11
ATOM     11  C   UNL     1       2.650   3.999  19.272  0.00  0.00    +0.000 A 
ATOM     12  C   UNL     1       1.251   3.967  19.379  0.00  0.00    +0.000 A 
ATOM     13  C   UNL     1       0.640   3.315  20.454  0.00  0.00    +0.000 A 
ATOM     14  C   UNL     1       1.424   2.702  21.423  0.00  0.00    +0.000 A 
ATOM     15  F   UNL     1       0.836   2.071  22.448  0.00  0.00    +0.000 F 
ATOM     16  C   UNL     1       2.810   2.733  21.342  0.00  0.00    +0.000 A 
ATOM     17  C   UNL     1       3.424   3.384  20.269  0.00  0.00    +0.000 A 
ENDBRANCH  10  11
ENDBRANCH   9  10
ENDBRANCH   7   9
ENDBRANCH   1   6
BRANCH   3  18
ATOM     18  C   UNL     1       1.037  11.361  18.669  0.00  0.00    +0.000 C 
BRANCH  18  19
ATOM     19  C   UNL     1      -0.120  11.846  19.558  0.00  0.00    +0.000 C 
BRANCH  19  20
ATOM     20  C   UNL     1      -1.480  11.527  18.958  0.00  0.00    +0.000 A 
ATOM     21  C   UNL     1      -2.718  12.090  19.220  0.00  0.00    +0.000 A 
ATOM     22  C   UNL     1      -3.772  11.454  18.503  0.00  0.00    +0.000 A 
ATOM     23  C   UNL     1      -3.308  10.446  17.690  0.00  0.00    +0.000 A 
ATOM     24  S   UNL     1      -1.616  10.251  17.813  0.00  0.00    +0.000 S 
ENDBRANCH  19  20
BRANCH  19  25
ATOM     25  S   UNL     1      -0.028  11.089  21.194  0.00  0.00    +0.000 S 
ATOM     26  O   UNL     1      -0.750   9.830  21.202  0.00  0.00    +0.000 OA
ATOM     27  O   UNL     1       1.348  11.157  21.657  0.00  0.00    +0.000 OA
BRANCH  25  28
ATOM     28  C   UNL     1      -0.978  12.170  22.261  0.00  0.00    +0.000 A 
ATOM     29  C   UNL     1      -2.153  11.699  22.855  0.00  0.00    +0.000 A 
ATOM     30  C   UNL     1      -2.889  12.547  23.689  0.00  0.00    +0.000 A 
ATOM     31  C   UNL     1      -2.441  13.847  23.933  0.00  0.00    +0.000 A 
ATOM     32 CL   UNL     1      -3.355  14.889  24.952  0.00  0.00    +0.000 Cl
ATOM     33  C   UNL     1      -1.255  14.305  23.359  0.00  0.00    +0.000 A 
ATOM     34  C   UNL     1      -0.517  13.465  22.522  0.00  0.00    +0.000 A 
ENDBRANCH  25  28
ENDBRANCH  19  25
ENDBRANCH  18  19
ENDBRANCH   3  18
TORSDOF 9
ENDMDL
