MODEL 1
REMARK VINA RESULT:      -6.6      0.000      0.000
REMARK  Name = 
REMARK  6 active torsions:
REMARK  status: ('A' for Active; 'I' for Inactive)
REMARK    1  A    between atoms: C_1  and  O_2
REMARK    2  A    between atoms: O_2  and  C_3
REMARK    3  A    between atoms: C_12  and  C_13
REMARK    4  A    between atoms: C_13  and  N_14
REMARK    5  A    between atoms: N_14  and  C_15
REMARK    6  A    between atoms: N_14  and  C_16
REMARK                            x       y       z     vdW  Elec       q    Type
REMARK                         _______ _______ _______ _____ _____    ______ ____
ROOT
ATOM      1  C   UNL     1       2.154   6.056  19.877  0.00  0.00    +0.000 A 
ATOM      2  C   UNL     1       1.325   5.241  20.653  0.00  0.00    +0.000 A 
ATOM      3  C   UNL     1       1.320   3.860  20.464  0.00  0.00    +0.000 A 
ATOM      4  C   UNL     1       2.128   3.287  19.488  0.00  0.00    +0.000 A 
ATOM      5  F   UNL     1       2.054   1.959  19.326  0.00  0.00    +0.000 F 
ATOM      6  C   UNL     1       2.969   4.081  18.707  0.00  0.00    +0.000 A 
ATOM      7  C   UNL     1       3.014   5.475  18.919  0.00  0.00    +0.000 A 
ATOM      8  C   UNL     1       3.947   6.353  18.115  0.00  0.00    +0.000 C 
ATOM      9  C   UNL     1       5.060   5.552  17.441  0.00  0.00    +0.000 C 
ATOM     10  C   UNL     1       4.444   4.402  16.637  0.00  0.00    +0.000 C 
ATOM     11  C   UNL     1       3.819   3.453  17.656  0.00  0.00    +0.000 C 
ATOM     12  O   UNL     1       3.980   2.238  17.641  0.00  0.00    +0.000 OA
ENDROOT
BRANCH   1  14
ATOM     13  C   UNL     1       1.387   8.041  20.960  0.00  0.00    +0.000 C 
ATOM     14  O   UNL     1       2.210   7.422  19.978  0.00  0.00    +0.000 OA
ENDBRANCH   1  14
BRANCH  10  15
ATOM     15  C   UNL     1       5.515   3.736  15.749  0.00  0.00    +0.000 C 
BRANCH  15  16
ATOM     16  N   UNL     1       5.934   4.491  14.553  0.00  0.00    +0.000 NA
ATOM     17  C   UNL     1       7.279   5.048  14.647  0.00  0.00    +0.000 C 
ATOM     18  C   UNL     1       5.799   3.666  13.355  0.00  0.00    +0.000 C 
ENDBRANCH  15  16
ENDBRANCH  10  15
TORSDOF 3
ENDMDL
MODEL 2
REMARK VINA RESULT:      -6.4      2.117      3.227
REMARK  Name = 
REMARK  6 active torsions:
REMARK  status: ('A' for Active; 'I' for Inactive)
REMARK    1  A    between atoms: C_1  and  O_2
REMARK    2  A    between atoms: O_2  and  C_3
REMARK    3  A    between atoms: C_12  and  C_13
REMARK    4  A    between atoms: C_13  and  N_14
REMARK    5  A    between atoms: N_14  and  C_15
REMARK    6  A    between atoms: N_14  and  C_16
REMARK                            x       y       z     vdW  Elec       q    Type
REMARK                         _______ _______ _______ _____ _____    ______ ____
ROOT
ATOM      1  C   UNL     1       2.165   4.150  20.070  0.00  0.00    +0.000 A 
ATOM      2  C   UNL     1       1.468   5.099  20.825  0.00  0.00    +0.000 A 
ATOM      3  C   UNL     1       1.560   6.454  20.510  0.00  0.00    +0.000 A 
ATOM      4  C   UNL     1       2.362   6.871  19.453  0.00  0.00    +0.000 A 
ATOM      5  F   UNL     1       2.442   8.188  19.222  0.00  0.00    +0.000 F 
ATOM      6  C   UNL     1       3.060   5.941  18.683  0.00  0.00    +0.000 A 
ATOM      7  C   UNL     1       2.941   4.564  18.965  0.00  0.00    +0.000 A 
ATOM      8  C   UNL     1       3.654   3.533  18.118  0.00  0.00    +0.000 C 
ATOM      9  C   UNL     1       4.096   4.096  16.768  0.00  0.00    +0.000 C 
ATOM     10  C   UNL     1       4.902   5.380  16.992  0.00  0.00    +0.000 C 
ATOM     11  C   UNL     1       3.926   6.406  17.562  0.00  0.00    +0.000 C 
ATOM     12  O   UNL     1       3.834   7.556  17.150  0.00  0.00    +0.000 OA
ENDROOT
BRANCH   1  14
ATOM     13  C   UNL     1       2.572   2.369  21.607  0.00  0.00    +0.000 C 
ATOM     14  O   UNL     1       2.151   2.802  20.318  0.00  0.00    +0.000 OA
ENDBRANCH   1  14
BRANCH  10  15
ATOM     15  C   UNL     1       5.571   5.827  15.676  0.00  0.00    +0.000 C 
BRANCH  15  16
ATOM     16  N   UNL     1       6.987   5.451  15.502  0.00  0.00    +0.000 NA
ATOM     17  C   UNL     1       7.531   4.671  16.608  0.00  0.00    +0.000 C 
ATOM     18  C   UNL     1       7.177   4.751  14.233  0.00  0.00    +0.000 C 
ENDBRANCH  15  16
ENDBRANCH  10  15
TORSDOF 3
ENDMDL
MODEL 3
REMARK VINA RESULT:      -6.1      2.798      5.409
REMARK  Name = 
REMARK  6 active torsions:
REMARK  status: ('A' for Active; 'I' for Inactive)
REMARK    1  A    between atoms: C_1  and  O_2
REMARK    2  A    between atoms: O_2  and  C_3
REMARK    3  A    between atoms: C_12  and  C_13
REMARK    4  A    between atoms: C_13  and  N_14
REMARK    5  A    between atoms: N_14  and  C_15
REMARK    6  A    between atoms: N_14  and  C_16
REMARK                            x       y       z     vdW  Elec       q    Type
REMARK                         _______ _______ _______ _____ _____    ______ ____
ROOT
ATOM      1  C   UNL     1       6.304   6.490  16.651  0.00  0.00    +0.000 A 
ATOM      2  C   UNL     1       7.130   5.662  15.886  0.00  0.00    +0.000 A 
ATOM      3  C   UNL     1       6.767   4.339  15.640  0.00  0.00    +0.000 A 
ATOM      4  C   UNL     1       5.588   3.830  16.173  0.00  0.00    +0.000 A 
ATOM      5  F   UNL     1       5.309   2.541  15.936  0.00  0.00    +0.000 F 
ATOM      6  C   UNL     1       4.745   4.640  16.934  0.00  0.00    +0.000 A 
ATOM      7  C   UNL     1       5.081   5.993  17.152  0.00  0.00    +0.000 A 
ATOM      8  C   UNL     1       4.164   6.904  17.938  0.00  0.00    +0.000 C 
ATOM      9  C   UNL     1       2.746   6.345  18.049  0.00  0.00    +0.000 C 
ATOM     10  C   UNL     1       2.807   4.911  18.588  0.00  0.00    +0.000 C 
ATOM     11  C   UNL     1       3.491   4.076  17.509  0.00  0.00    +0.000 C 
ATOM     12  O   UNL     1       3.066   2.996  17.114  0.00  0.00    +0.000 OA
ENDROOT
BRANCH   1  14
ATOM     13  C   UNL     1       7.801   8.052  17.662  0.00  0.00    +0.000 C 
ATOM     14  O   UNL     1       6.590   7.795  16.961  0.00  0.00    +0.000 OA
ENDBRANCH   1  14
BRANCH  10  15
ATOM     15  C   UNL     1       1.391   4.416  18.948  0.00  0.00    +0.000 C 
BRANCH  15  16
ATOM     16  N   UNL     1       1.231   3.804  20.280  0.00  0.00    +0.000 NA
ATOM     17  C   UNL     1       1.420   2.358  20.293  0.00  0.00    +0.000 C 
ATOM     18  C   UNL     1       2.117   4.449  21.247  0.00  0.00    +0.000 C 
ENDBRANCH  15  16
ENDBRANCH  10  15
TORSDOF 3
ENDMDL
MODEL 4
REMARK VINA RESULT:      -6.1      2.110      3.136
REMARK  Name = 
REMARK  6 active torsions:
REMARK  status: ('A' for Active; 'I' for Inactive)
REMARK    1  A    between atoms: C_1  and  O_2
REMARK    2  A    between atoms: O_2  and  C_3
REMARK    3  A    between atoms: C_12  and  C_13
REMARK    4  A    between atoms: C_13  and  N_14
REMARK    5  A    between atoms: N_14  and  C_15
REMARK    6  A    between atoms: N_14  and  C_16
REMARK                            x       y       z     vdW  Elec       q    Type
REMARK                         _______ _______ _______ _____ _____    ______ ____
ROOT
ATOM      1  C   UNL     1       1.938   4.034  20.118  0.00  0.00    +0.000 A 
ATOM      2  C   UNL     1       1.526   5.185  20.795  0.00  0.00    +0.000 A 
ATOM      3  C   UNL     1       1.887   6.447  20.324  0.00  0.00    +0.000 A 
ATOM      4  C   UNL     1       2.678   6.566  19.187  0.00  0.00    +0.000 A 
ATOM      5  F   UNL     1       3.025   7.801  18.802  0.00  0.00    +0.000 F 
ATOM      6  C   UNL     1       3.095   5.431  18.491  0.00  0.00    +0.000 A 
ATOM      7  C   UNL     1       2.699   4.150  18.934  0.00  0.00    +0.000 A 
ATOM      8  C   UNL     1       3.103   2.907  18.174  0.00  0.00    +0.000 C 
ATOM      9  C   UNL     1       3.552   3.219  16.747  0.00  0.00    +0.000 C 
ATOM     10  C   UNL     1       4.635   4.304  16.781  0.00  0.00    +0.000 C 
ATOM     11  C   UNL     1       3.953   5.574  17.280  0.00  0.00    +0.000 C 
ATOM     12  O   UNL     1       4.083   6.670  16.746  0.00  0.00    +0.000 OA
ENDROOT
BRANCH   1  14
ATOM     13  C   UNL     1       1.396   2.544  21.902  0.00  0.00    +0.000 C 
ATOM     14  O   UNL     1       1.649   2.755  20.518  0.00  0.00    +0.000 OA
ENDBRANCH   1  14
BRANCH  10  15
ATOM     15  C   UNL     1       5.283   4.456  15.389  0.00  0.00    +0.000 C 
BRANCH  15  16
ATOM     16  N   UNL     1       6.744   4.270  15.325  0.00  0.00    +0.000 NA
ATOM     17  C   UNL     1       7.390   5.034  14.264  0.00  0.00    +0.000 C 
ATOM     18  C   UNL     1       7.354   4.567  16.620  0.00  0.00    +0.000 C 
ENDBRANCH  15  16
ENDBRANCH  10  15
TORSDOF 3
ENDMDL
MODEL 5
REMARK VINA RESULT:      -6.1      3.338      5.353
REMARK  Name = 
REMARK  6 active torsions:
REMARK  status: ('A' for Active; 'I' for Inactive)
REMARK    1  A    between atoms: C_1  and  O_2
REMARK    2  A    between atoms: O_2  and  C_3
REMARK    3  A    between atoms: C_12  and  C_13
REMARK    4  A    between atoms: C_13  and  N_14
REMARK    5  A    between atoms: N_14  and  C_15
REMARK    6  A    between atoms: N_14  and  C_16
REMARK                            x       y       z     vdW  Elec       q    Type
REMARK                         _______ _______ _______ _____ _____    ______ ____
ROOT
ATOM      1  C   UNL     1       2.776   4.094  20.377  0.00  0.00    +0.000 A 
ATOM      2  C   UNL     1       3.667   3.172  19.819  0.00  0.00    +0.000 A 
ATOM      3  C   UNL     1       4.410   3.507  18.688  0.00  0.00    +0.000 A 
ATOM      4  C   UNL     1       4.254   4.757  18.097  0.00  0.00    +0.000 A 
ATOM      5  F   UNL     1       4.966   5.009  16.991  0.00  0.00    +0.000 F 
ATOM      6  C   UNL     1       3.377   5.695  18.642  0.00  0.00    +0.000 A 
ATOM      7  C   UNL     1       2.652   5.382  19.812  0.00  0.00    +0.000 A 
ATOM      8  C   UNL     1       1.726   6.396  20.446  0.00  0.00    +0.000 C 
ATOM      9  C   UNL     1       2.011   7.819  19.969  0.00  0.00    +0.000 C 
ATOM     10  C   UNL     1       2.010   7.852  18.437  0.00  0.00    +0.000 C 
ATOM     11  C   UNL     1       3.212   7.025  17.990  0.00  0.00    +0.000 C 
ATOM     12  O   UNL     1       4.015   7.397  17.142  0.00  0.00    +0.000 OA
ENDROOT
BRANCH   1  14
ATOM     13  C   UNL     1       1.627   2.492  21.725  0.00  0.00    +0.000 C 
ATOM     14  O   UNL     1       1.991   3.845  21.473  0.00  0.00    +0.000 OA
ENDBRANCH   1  14
BRANCH  10  15
ATOM     15  C   UNL     1       2.042   9.310  17.933  0.00  0.00    +0.000 C 
BRANCH  15  16
ATOM     16  N   UNL     1       1.234  10.281  18.694  0.00  0.00    +0.000 NA
ATOM     17  C   UNL     1       1.720  11.654  18.602  0.00  0.00    +0.000 C 
ATOM     18  C   UNL     1      -0.170  10.202  18.296  0.00  0.00    +0.000 C 
ENDBRANCH  15  16
ENDBRANCH  10  15
TORSDOF 3
ENDMDL
MODEL 6
REMARK VINA RESULT:      -6.1      1.890      2.460
REMARK  Name = 
REMARK  6 active torsions:
REMARK  status: ('A' for Active; 'I' for Inactive)
REMARK    1  A    between atoms: C_1  and  O_2
REMARK    2  A    between atoms: O_2  and  C_3
REMARK    3  A    between atoms: C_12  and  C_13
REMARK    4  A    between atoms: C_13  and  N_14
REMARK    5  A    between atoms: N_14  and  C_15
REMARK    6  A    between atoms: N_14  and  C_16
REMARK                            x       y       z     vdW  Elec       q    Type
REMARK                         _______ _______ _______ _____ _____    ______ ____
ROOT
ATOM      1  C   UNL     1       1.752   8.402  19.307  0.00  0.00    +0.000 A 
ATOM      2  C   UNL     1       1.102   8.134  20.516  0.00  0.00    +0.000 A 
ATOM      3  C   UNL     1       1.277   6.906  21.151  0.00  0.00    +0.000 A 
ATOM      4  C   UNL     1       2.085   5.932  20.575  0.00  0.00    +0.000 A 
ATOM      5  F   UNL     1       2.185   4.757  21.211  0.00  0.00    +0.000 F 
ATOM      6  C   UNL     1       2.748   6.180  19.373  0.00  0.00    +0.000 A 
ATOM      7  C   UNL     1       2.613   7.436  18.743  0.00  0.00    +0.000 A 
ATOM      8  C   UNL     1       3.353   7.745  17.461  0.00  0.00    +0.000 C 
ATOM      9  C   UNL     1       4.517   6.785  17.217  0.00  0.00    +0.000 C 
ATOM     10  C   UNL     1       4.011   5.341  17.308  0.00  0.00    +0.000 C 
ATOM     11  C   UNL     1       3.599   5.121  18.761  0.00  0.00    +0.000 C 
ATOM     12  O   UNL     1       3.927   4.140  19.418  0.00  0.00    +0.000 OA
ENDROOT
BRANCH   1  14
ATOM     13  C   UNL     1       0.306   9.986  18.257  0.00  0.00    +0.000 C 
ATOM     14  O   UNL     1       1.623   9.571  18.602  0.00  0.00    +0.000 OA
ENDBRANCH   1  14
BRANCH  10  15
ATOM     15  C   UNL     1       5.098   4.362  16.818  0.00  0.00    +0.000 C 
BRANCH  15  16
ATOM     16  N   UNL     1       6.427   4.942  16.550  0.00  0.00    +0.000 NA
ATOM     17  C   UNL     1       7.440   4.580  17.535  0.00  0.00    +0.000 C 
ATOM     18  C   UNL     1       6.872   4.598  15.201  0.00  0.00    +0.000 C 
ENDBRANCH  15  16
ENDBRANCH  10  15
TORSDOF 3
ENDMDL
MODEL 7
REMARK VINA RESULT:      -6.0      1.135      1.328
REMARK  Name = 
REMARK  6 active torsions:
REMARK  status: ('A' for Active; 'I' for Inactive)
REMARK    1  A    between atoms: C_1  and  O_2
REMARK    2  A    between atoms: O_2  and  C_3
REMARK    3  A    between atoms: C_12  and  C_13
REMARK    4  A    between atoms: C_13  and  N_14
REMARK    5  A    between atoms: N_14  and  C_15
REMARK    6  A    between atoms: N_14  and  C_16
REMARK                            x       y       z     vdW  Elec       q    Type
REMARK                         _______ _______ _______ _____ _____    ______ ____
ROOT
ATOM      1  C   UNL     1       1.940   5.043  20.400  0.00  0.00    +0.000 A 
ATOM      2  C   UNL     1       0.868   4.146  20.444  0.00  0.00    +0.000 A 
ATOM      3  C   UNL     1       0.848   3.032  19.606  0.00  0.00    +0.000 A 
ATOM      4  C   UNL     1       1.886   2.817  18.707  0.00  0.00    +0.000 A 
ATOM      5  F   UNL     1       1.795   1.751  17.901  0.00  0.00    +0.000 F 
ATOM      6  C   UNL     1       2.969   3.695  18.651  0.00  0.00    +0.000 A 
ATOM      7  C   UNL     1       3.021   4.803  19.525  0.00  0.00    +0.000 A 
ATOM      8  C   UNL     1       4.203   5.746  19.513  0.00  0.00    +0.000 C 
ATOM      9  C   UNL     1       5.426   5.135  18.829  0.00  0.00    +0.000 C 
ATOM     10  C   UNL     1       5.029   4.621  17.441  0.00  0.00    +0.000 C 
ATOM     11  C   UNL     1       4.068   3.458  17.672  0.00  0.00    +0.000 C 
ATOM     12  O   UNL     1       4.161   2.378  17.102  0.00  0.00    +0.000 OA
ENDROOT
BRANCH   1  14
ATOM     13  C   UNL     1       1.319   7.325  20.733  0.00  0.00    +0.000 C 
ATOM     14  O   UNL     1       2.035   6.174  21.169  0.00  0.00    +0.000 OA
ENDBRANCH   1  14
BRANCH  10  15
ATOM     15  C   UNL     1       6.286   4.234  16.635  0.00  0.00    +0.000 C 
BRANCH  15  16
ATOM     16  N   UNL     1       6.422   4.849  15.301  0.00  0.00    +0.000 NA
ATOM     17  C   UNL     1       6.275   3.905  14.198  0.00  0.00    +0.000 C 
ATOM     18  C   UNL     1       5.488   5.964  15.155  0.00  0.00    +0.000 C 
ENDBRANCH  15  16
ENDBRANCH  10  15
TORSDOF 3
ENDMDL
MODEL 8
REMARK VINA RESULT:      -6.0      3.123      5.887
REMARK  Name = 
REMARK  6 active torsions:
REMARK  status: ('A' for Active; 'I' for Inactive)
REMARK    1  A    between atoms: C_1  and  O_2
REMARK    2  A    between atoms: O_2  and  C_3
REMARK    3  A    between atoms: C_12  and  C_13
REMARK    4  A    between atoms: C_13  and  N_14
REMARK    5  A    between atoms: N_14  and  C_15
REMARK    6  A    between atoms: N_14  and  C_16
REMARK                            x       y       z     vdW  Elec       q    Type
REMARK                         _______ _______ _______ _____ _____    ______ ____
ROOT
ATOM      1  C   UNL     1       6.037   5.221  16.022  0.00  0.00    +0.000 A 
ATOM      2  C   UNL     1       7.100   6.002  16.487  0.00  0.00    +0.000 A 
ATOM      3  C   UNL     1       7.396   6.048  17.848  0.00  0.00    +0.000 A 
ATOM      4  C   UNL     1       6.623   5.331  18.754  0.00  0.00    +0.000 A 
ATOM      5  F   UNL     1       6.931   5.443  20.053  0.00  0.00    +0.000 F 
ATOM      6  C   UNL     1       5.562   4.540  18.312  0.00  0.00    +0.000 A 
ATOM      7  C   UNL     1       5.280   4.452  16.932  0.00  0.00    +0.000 A 
ATOM      8  C   UNL     1       4.162   3.569  16.423  0.00  0.00    +0.000 C 
ATOM      9  C   UNL     1       3.730   2.528  17.454  0.00  0.00    +0.000 C 
ATOM     10  C   UNL     1       3.412   3.228  18.780  0.00  0.00    +0.000 C 
ATOM     11  C   UNL     1       4.734   3.788  19.297  0.00  0.00    +0.000 C 
ATOM     12  O   UNL     1       5.125   3.652  20.451  0.00  0.00    +0.000 OA
ENDROOT
BRANCH   1  14
ATOM     13  C   UNL     1       6.531   4.437  13.821  0.00  0.00    +0.000 C 
ATOM     14  O   UNL     1       5.660   5.132  14.707  0.00  0.00    +0.000 OA
ENDBRANCH   1  14
BRANCH  10  15
ATOM     15  C   UNL     1       2.735   2.243  19.755  0.00  0.00    +0.000 C 
BRANCH  15  16
ATOM     16  N   UNL     1       1.553   2.748  20.479  0.00  0.00    +0.000 NA
ATOM     17  C   UNL     1       1.768   2.925  21.911  0.00  0.00    +0.000 C 
ATOM     18  C   UNL     1       1.073   3.988  19.871  0.00  0.00    +0.000 C 
ENDBRANCH  15  16
ENDBRANCH  10  15
TORSDOF 3
ENDMDL
MODEL 9
REMARK VINA RESULT:      -6.0      2.959      5.629
REMARK  Name = 
REMARK  6 active torsions:
REMARK  status: ('A' for Active; 'I' for Inactive)
REMARK    1  A    between atoms: C_1  and  O_2
REMARK    2  A    between atoms: O_2  and  C_3
REMARK    3  A    between atoms: C_12  and  C_13
REMARK    4  A    between atoms: C_13  and  N_14
REMARK    5  A    between atoms: N_14  and  C_15
REMARK    6  A    between atoms: N_14  and  C_16
REMARK                            x       y       z     vdW  Elec       q    Type
REMARK                         _______ _______ _______ _____ _____    ______ ____
ROOT
ATOM      1  C   UNL     1       7.050   5.923  17.246  0.00  0.00    +0.000 A 
ATOM      2  C   UNL     1       7.260   5.911  15.863  0.00  0.00    +0.000 A 
ATOM      3  C   UNL     1       6.422   5.172  15.031  0.00  0.00    +0.000 A 
ATOM      4  C   UNL     1       5.382   4.425  15.574  0.00  0.00    +0.000 A 
ATOM      5  F   UNL     1       4.633   3.705  14.729  0.00  0.00    +0.000 F 
ATOM      6  C   UNL     1       5.150   4.428  16.949  0.00  0.00    +0.000 A 
ATOM      7  C   UNL     1       5.965   5.208  17.798  0.00  0.00    +0.000 A 
ATOM      8  C   UNL     1       5.709   5.261  19.287  0.00  0.00    +0.000 C 
ATOM      9  C   UNL     1       4.304   4.783  19.651  0.00  0.00    +0.000 C 
ATOM     10  C   UNL     1       4.059   3.404  19.029  0.00  0.00    +0.000 C 
ATOM     11  C   UNL     1       4.039   3.612  17.518  0.00  0.00    +0.000 C 
ATOM     12  O   UNL     1       3.178   3.148  16.779  0.00  0.00    +0.000 OA
ENDROOT
BRANCH   1  14
ATOM     13  C   UNL     1       8.001   8.002  17.937  0.00  0.00    +0.000 C 
ATOM     14  O   UNL     1       7.834   6.603  18.142  0.00  0.00    +0.000 OA
ENDBRANCH   1  14
BRANCH  10  15
ATOM     15  C   UNL     1       2.758   2.790  19.586  0.00  0.00    +0.000 C 
BRANCH  15  16
ATOM     16  N   UNL     1       2.091   3.541  20.666  0.00  0.00    +0.000 NA
ATOM     17  C   UNL     1       0.845   4.180  20.257  0.00  0.00    +0.000 C 
ATOM     18  C   UNL     1       1.873   2.680  21.827  0.00  0.00    +0.000 C 
ENDBRANCH  15  16
ENDBRANCH  10  15
TORSDOF 3
ENDMDL
