MODEL 1
REMARK VINA RESULT:      -6.2      0.000      0.000
REMARK  Name = 
REMARK  10 active torsions:
REMARK  status: ('A' for Active; 'I' for Inactive)
REMARK    1  A    between atoms: C_1  and  C_2
REMARK    2  A    between atoms: C_5  and  S_6
REMARK    3  A    between atoms: S_6  and  S_7
REMARK    4  A    between atoms: S_7  and  C_8
REMARK    5  A    between atoms: C_8  and  C_9
REMARK    6  A    between atoms: C_9  and  C_10
REMARK    7  A    between atoms: C_9  and  O_15
REMARK    8  A    between atoms: C_10  and  O_11
REMARK    9  A    between atoms: O_11  and  N_12
REMARK   10  A    between atoms: O_15  and  N_16
REMARK                            x       y       z     vdW  Elec       q    Type
REMARK                         _______ _______ _______ _____ _____    ______ ____
ROOT
ATOM      1  C   UNL     1       5.541   5.736  17.625  0.00  0.00    +0.000 C 
ENDROOT
BRANCH   1   2
ATOM      2  S   UNL     1       4.579   6.804  16.505  0.00  0.00    +0.000 S 
BRANCH   2   3
ATOM      3  S   UNL     1       3.144   7.582  17.762  0.00  0.00    +0.000 S 
BRANCH   3   8
ATOM      4  C   UNL     1       1.077   2.725  20.849  0.00  0.00    +0.000 C 
ATOM      5  C   UNL     1       1.580   3.919  20.092  0.00  0.00    +0.000 A 
ATOM      6  C   UNL     1       1.547   3.962  18.696  0.00  0.00    +0.000 A 
ATOM      7  C   UNL     1       2.019   5.089  18.010  0.00  0.00    +0.000 A 
ATOM      8  C   UNL     1       2.527   6.194  18.706  0.00  0.00    +0.000 A 
ATOM      9  C   UNL     1       2.577   6.137  20.102  0.00  0.00    +0.000 A 
ATOM     10  C   UNL     1       2.100   5.015  20.788  0.00  0.00    +0.000 A 
ENDBRANCH   3   8
ENDBRANCH   2   3
ENDBRANCH   1   2
BRANCH   1  11
ATOM     11  C   UNL     1       7.060   5.662  17.354  0.00  0.00    +0.000 C 
BRANCH  11  12
ATOM     12  C   UNL     1       7.377   4.618  16.257  0.00  0.00    +0.000 C 
BRANCH  12  13
ATOM     13  O   UNL     1       7.546   5.281  15.000  0.00  0.00    +0.000 OA
BRANCH  13  14
ATOM     14  N   UNL     1       6.837   4.623  13.955  0.00  0.00    +0.000 N 
ATOM     15  O   UNL     1       7.285   4.719  12.818  0.00  0.00    +0.000 OA
ATOM     16  O   UNL     1       5.836   4.027  14.365  0.00  0.00    +0.000 OA
ENDBRANCH  13  14
ENDBRANCH  12  13
ENDBRANCH  11  12
BRANCH  11  17
ATOM     17  O   UNL     1       7.494   6.943  16.856  0.00  0.00    +0.000 OA
BRANCH  17  18
ATOM     18  N   UNL     1       7.935   7.819  17.884  0.00  0.00    +0.000 N 
ATOM     19  O   UNL     1       8.435   7.303  18.881  0.00  0.00    +0.000 OA
ATOM     20  O   UNL     1       7.707   9.000  17.629  0.00  0.00    +0.000 OA
ENDBRANCH  17  18
ENDBRANCH  11  17
ENDBRANCH   1  11
TORSDOF 9
ENDMDL
MODEL 2
REMARK VINA RESULT:      -6.2      1.125      1.769
REMARK  Name = 
REMARK  10 active torsions:
REMARK  status: ('A' for Active; 'I' for Inactive)
REMARK    1  A    between atoms: C_1  and  C_2
REMARK    2  A    between atoms: C_5  and  S_6
REMARK    3  A    between atoms: S_6  and  S_7
REMARK    4  A    between atoms: S_7  and  C_8
REMARK    5  A    between atoms: C_8  and  C_9
REMARK    6  A    between atoms: C_9  and  C_10
REMARK    7  A    between atoms: C_9  and  O_15
REMARK    8  A    between atoms: C_10  and  O_11
REMARK    9  A    between atoms: O_11  and  N_12
REMARK   10  A    between atoms: O_15  and  N_16
REMARK                            x       y       z     vdW  Elec       q    Type
REMARK                         _______ _______ _______ _____ _____    ______ ____
ROOT
ATOM      1  C   UNL     1       5.719   6.130  17.996  0.00  0.00    +0.000 C 
ENDROOT
BRANCH   1   2
ATOM      2  S   UNL     1       4.726   6.840  16.643  0.00  0.00    +0.000 S 
BRANCH   2   3
ATOM      3  S   UNL     1       3.027   7.471  17.625  0.00  0.00    +0.000 S 
BRANCH   3   8
ATOM      4  C   UNL     1       1.099   2.798  21.066  0.00  0.00    +0.000 C 
ATOM      5  C   UNL     1       1.577   3.943  20.222  0.00  0.00    +0.000 A 
ATOM      6  C   UNL     1       1.900   5.179  20.787  0.00  0.00    +0.000 A 
ATOM      7  C   UNL     1       2.348   6.233  19.980  0.00  0.00    +0.000 A 
ATOM      8  C   UNL     1       2.484   6.070  18.595  0.00  0.00    +0.000 A 
ATOM      9  C   UNL     1       2.140   4.838  18.032  0.00  0.00    +0.000 A 
ATOM     10  C   UNL     1       1.700   3.783  18.838  0.00  0.00    +0.000 A 
ENDBRANCH   3   8
ENDBRANCH   2   3
ENDBRANCH   1   2
BRANCH   1  11
ATOM     11  C   UNL     1       6.431   4.795  17.687  0.00  0.00    +0.000 C 
BRANCH  11  12
ATOM     12  C   UNL     1       6.412   4.496  16.168  0.00  0.00    +0.000 C 
BRANCH  12  13
ATOM     13  O   UNL     1       7.423   5.272  15.516  0.00  0.00    +0.000 OA
BRANCH  13  14
ATOM     14  N   UNL     1       7.403   5.084  14.103  0.00  0.00    +0.000 N 
ATOM     15  O   UNL     1       8.266   5.652  13.445  0.00  0.00    +0.000 OA
ATOM     16  O   UNL     1       6.483   4.345  13.737  0.00  0.00    +0.000 OA
ENDBRANCH  13  14
ENDBRANCH  12  13
ENDBRANCH  11  12
BRANCH  11  17
ATOM     17  O   UNL     1       7.814   4.920  18.075  0.00  0.00    +0.000 OA
BRANCH  17  18
ATOM     18  N   UNL     1       8.003   5.783  19.187  0.00  0.00    +0.000 N 
ATOM     19  O   UNL     1       8.362   6.934  18.947  0.00  0.00    +0.000 OA
ATOM     20  O   UNL     1       7.810   5.218  20.263  0.00  0.00    +0.000 OA
ENDBRANCH  17  18
ENDBRANCH  11  17
ENDBRANCH   1  11
TORSDOF 9
ENDMDL
MODEL 3
REMARK VINA RESULT:      -6.1      1.295      3.721
REMARK  Name = 
REMARK  10 active torsions:
REMARK  status: ('A' for Active; 'I' for Inactive)
REMARK    1  A    between atoms: C_1  and  C_2
REMARK    2  A    between atoms: C_5  and  S_6
REMARK    3  A    between atoms: S_6  and  S_7
REMARK    4  A    between atoms: S_7  and  C_8
REMARK    5  A    between atoms: C_8  and  C_9
REMARK    6  A    between atoms: C_9  and  C_10
REMARK    7  A    between atoms: C_9  and  O_15
REMARK    8  A    between atoms: C_10  and  O_11
REMARK    9  A    between atoms: O_11  and  N_12
REMARK   10  A    between atoms: O_15  and  N_16
REMARK                            x       y       z     vdW  Elec       q    Type
REMARK                         _______ _______ _______ _____ _____    ______ ____
ROOT
ATOM      1  C   UNL     1       5.083   6.562  16.118  0.00  0.00    +0.000 C 
ENDROOT
BRANCH   1   2
ATOM      2  S   UNL     1       4.594   6.981  17.823  0.00  0.00    +0.000 S 
BRANCH   2   3
ATOM      3  S   UNL     1       2.548   6.738  17.769  0.00  0.00    +0.000 S 
BRANCH   3   8
ATOM      4  C   UNL     1       1.315   2.330  21.823  0.00  0.00    +0.000 C 
ATOM      5  C   UNL     1       1.622   3.409  20.827  0.00  0.00    +0.000 A 
ATOM      6  C   UNL     1       2.251   4.596  21.211  0.00  0.00    +0.000 A 
ATOM      7  C   UNL     1       2.531   5.589  20.263  0.00  0.00    +0.000 A 
ATOM      8  C   UNL     1       2.191   5.412  18.915  0.00  0.00    +0.000 A 
ATOM      9  C   UNL     1       1.543   4.232  18.541  0.00  0.00    +0.000 A 
ATOM     10  C   UNL     1       1.270   3.237  19.485  0.00  0.00    +0.000 A 
ENDBRANCH   3   8
ENDBRANCH   2   3
ENDBRANCH   1   2
BRANCH   1  11
ATOM     11  C   UNL     1       6.230   5.538  15.974  0.00  0.00    +0.000 C 
BRANCH  11  12
ATOM     12  C   UNL     1       6.451   4.763  17.295  0.00  0.00    +0.000 C 
BRANCH  12  13
ATOM     13  O   UNL     1       7.779   5.000  17.772  0.00  0.00    +0.000 OA
BRANCH  13  14
ATOM     14  N   UNL     1       7.783   5.821  18.937  0.00  0.00    +0.000 N 
ATOM     15  O   UNL     1       7.330   5.340  19.970  0.00  0.00    +0.000 OA
ATOM     16  O   UNL     1       8.264   6.938  18.726  0.00  0.00    +0.000 OA
ENDBRANCH  13  14
ENDBRANCH  12  13
ENDBRANCH  11  12
BRANCH  11  17
ATOM     17  O   UNL     1       5.851   4.570  14.974  0.00  0.00    +0.000 OA
BRANCH  17  18
ATOM     18  N   UNL     1       6.751   4.522  13.877  0.00  0.00    +0.000 N 
ATOM     19  O   UNL     1       6.524   3.689  13.003  0.00  0.00    +0.000 OA
ATOM     20  O   UNL     1       7.676   5.325  13.990  0.00  0.00    +0.000 OA
ENDBRANCH  17  18
ENDBRANCH  11  17
ENDBRANCH   1  11
TORSDOF 9
ENDMDL
MODEL 4
REMARK VINA RESULT:      -6.1      1.619      4.034
REMARK  Name = 
REMARK  10 active torsions:
REMARK  status: ('A' for Active; 'I' for Inactive)
REMARK    1  A    between atoms: C_1  and  C_2
REMARK    2  A    between atoms: C_5  and  S_6
REMARK    3  A    between atoms: S_6  and  S_7
REMARK    4  A    between atoms: S_7  and  C_8
REMARK    5  A    between atoms: C_8  and  C_9
REMARK    6  A    between atoms: C_9  and  C_10
REMARK    7  A    between atoms: C_9  and  O_15
REMARK    8  A    between atoms: C_10  and  O_11
REMARK    9  A    between atoms: O_11  and  N_12
REMARK   10  A    between atoms: O_15  and  N_16
REMARK                            x       y       z     vdW  Elec       q    Type
REMARK                         _______ _______ _______ _____ _____    ______ ____
ROOT
ATOM      1  C   UNL     1       5.740   3.798  16.085  0.00  0.00    +0.000 C 
ENDROOT
BRANCH   1   2
ATOM      2  S   UNL     1       5.166   4.035  17.798  0.00  0.00    +0.000 S 
BRANCH   2   3
ATOM      3  S   UNL     1       3.118   4.083  17.576  0.00  0.00    +0.000 S 
BRANCH   3   8
ATOM      4  C   UNL     1       1.219   8.524  21.327  0.00  0.00    +0.000 C 
ATOM      5  C   UNL     1       1.681   7.434  20.404  0.00  0.00    +0.000 A 
ATOM      6  C   UNL     1       1.602   6.088  20.771  0.00  0.00    +0.000 A 
ATOM      7  C   UNL     1       2.036   5.087  19.892  0.00  0.00    +0.000 A 
ATOM      8  C   UNL     1       2.552   5.413  18.630  0.00  0.00    +0.000 A 
ATOM      9  C   UNL     1       2.647   6.762  18.277  0.00  0.00    +0.000 A 
ATOM     10  C   UNL     1       2.208   7.761  19.151  0.00  0.00    +0.000 A 
ENDBRANCH   3   8
ENDBRANCH   2   3
ENDBRANCH   1   2
BRANCH   1  11
ATOM     11  C   UNL     1       6.209   5.070  15.344  0.00  0.00    +0.000 C 
BRANCH  11  12
ATOM     12  C   UNL     1       6.244   6.286  16.301  0.00  0.00    +0.000 C 
BRANCH  12  13
ATOM     13  O   UNL     1       7.598   6.716  16.479  0.00  0.00    +0.000 OA
BRANCH  13  14
ATOM     14  N   UNL     1       7.798   7.314  17.757  0.00  0.00    +0.000 N 
ATOM     15  O   UNL     1       7.931   6.564  18.718  0.00  0.00    +0.000 OA
ATOM     16  O   UNL     1       7.812   8.547  17.704  0.00  0.00    +0.000 OA
ENDBRANCH  13  14
ENDBRANCH  12  13
ENDBRANCH  11  12
BRANCH  11  17
ATOM     17  O   UNL     1       7.559   4.855  14.885  0.00  0.00    +0.000 OA
BRANCH  17  18
ATOM     18  N   UNL     1       7.720   5.106  13.496  0.00  0.00    +0.000 N 
ATOM     19  O   UNL     1       8.551   5.951  13.174  0.00  0.00    +0.000 OA
ATOM     20  O   UNL     1       6.949   4.443  12.804  0.00  0.00    +0.000 OA
ENDBRANCH  17  18
ENDBRANCH  11  17
ENDBRANCH   1  11
TORSDOF 9
ENDMDL
MODEL 5
REMARK VINA RESULT:      -6.1      0.270      1.481
REMARK  Name = 
REMARK  10 active torsions:
REMARK  status: ('A' for Active; 'I' for Inactive)
REMARK    1  A    between atoms: C_1  and  C_2
REMARK    2  A    between atoms: C_5  and  S_6
REMARK    3  A    between atoms: S_6  and  S_7
REMARK    4  A    between atoms: S_7  and  C_8
REMARK    5  A    between atoms: C_8  and  C_9
REMARK    6  A    between atoms: C_9  and  C_10
REMARK    7  A    between atoms: C_9  and  O_15
REMARK    8  A    between atoms: C_10  and  O_11
REMARK    9  A    between atoms: O_11  and  N_12
REMARK   10  A    between atoms: O_15  and  N_16
REMARK                            x       y       z     vdW  Elec       q    Type
REMARK                         _______ _______ _______ _____ _____    ______ ____
ROOT
ATOM      1  C   UNL     1       5.256   5.614  17.331  0.00  0.00    +0.000 C 
ENDROOT
BRANCH   1   2
ATOM      2  S   UNL     1       4.378   6.956  16.466  0.00  0.00    +0.000 S 
BRANCH   2   3
ATOM      3  S   UNL     1       3.000   7.562  17.873  0.00  0.00    +0.000 S 
BRANCH   3   8
ATOM      4  C   UNL     1       1.170   2.557  20.870  0.00  0.00    +0.000 C 
ATOM      5  C   UNL     1       1.624   3.783  20.134  0.00  0.00    +0.000 A 
ATOM      6  C   UNL     1       2.198   4.865  20.806  0.00  0.00    +0.000 A 
ATOM      7  C   UNL     1       2.618   5.998  20.097  0.00  0.00    +0.000 A 
ATOM      8  C   UNL     1       2.474   6.069  18.705  0.00  0.00    +0.000 A 
ATOM      9  C   UNL     1       1.879   4.993  18.040  0.00  0.00    +0.000 A 
ATOM     10  C   UNL     1       1.467   3.858  18.746  0.00  0.00    +0.000 A 
ENDBRANCH   3   8
ENDBRANCH   2   3
ENDBRANCH   1   2
BRANCH   1  11
ATOM     11  C   UNL     1       6.799   5.672  17.286  0.00  0.00    +0.000 C 
BRANCH  11  12
ATOM     12  C   UNL     1       7.359   4.693  16.227  0.00  0.00    +0.000 C 
BRANCH  12  13
ATOM     13  O   UNL     1       7.664   5.410  15.026  0.00  0.00    +0.000 OA
BRANCH  13  14
ATOM     14  N   UNL     1       6.999   4.853  13.895  0.00  0.00    +0.000 N 
ATOM     15  O   UNL     1       6.037   4.125  14.107  0.00  0.00    +0.000 OA
ATOM     16  O   UNL     1       7.511   5.203  12.827  0.00  0.00    +0.000 OA
ENDBRANCH  13  14
ENDBRANCH  12  13
ENDBRANCH  11  12
BRANCH  11  17
ATOM     17  O   UNL     1       7.191   7.000  16.882  0.00  0.00    +0.000 OA
BRANCH  17  18
ATOM     18  N   UNL     1       7.893   7.704  17.896  0.00  0.00    +0.000 N 
ATOM     19  O   UNL     1       8.067   8.908  17.722  0.00  0.00    +0.000 OA
ATOM     20  O   UNL     1       8.266   6.970  18.810  0.00  0.00    +0.000 OA
ENDBRANCH  17  18
ENDBRANCH  11  17
ENDBRANCH   1  11
TORSDOF 9
ENDMDL
MODEL 6
REMARK VINA RESULT:      -6.0      1.791      3.699
REMARK  Name = 
REMARK  10 active torsions:
REMARK  status: ('A' for Active; 'I' for Inactive)
REMARK    1  A    between atoms: C_1  and  C_2
REMARK    2  A    between atoms: C_5  and  S_6
REMARK    3  A    between atoms: S_6  and  S_7
REMARK    4  A    between atoms: S_7  and  C_8
REMARK    5  A    between atoms: C_8  and  C_9
REMARK    6  A    between atoms: C_9  and  C_10
REMARK    7  A    between atoms: C_9  and  O_15
REMARK    8  A    between atoms: C_10  and  O_11
REMARK    9  A    between atoms: O_11  and  N_12
REMARK   10  A    between atoms: O_15  and  N_16
REMARK                            x       y       z     vdW  Elec       q    Type
REMARK                         _______ _______ _______ _____ _____    ______ ____
ROOT
ATOM      1  C   UNL     1       5.062   6.613  15.760  0.00  0.00    +0.000 C 
ENDROOT
BRANCH   1   2
ATOM      2  S   UNL     1       4.869   7.389  17.398  0.00  0.00    +0.000 S 
BRANCH   2   3
ATOM      3  S   UNL     1       2.821   7.473  17.608  0.00  0.00    +0.000 S 
BRANCH   3   8
ATOM      4  C   UNL     1       1.250   2.724  21.126  0.00  0.00    +0.000 C 
ATOM      5  C   UNL     1       1.640   3.887  20.262  0.00  0.00    +0.000 A 
ATOM      6  C   UNL     1       1.967   5.127  20.817  0.00  0.00    +0.000 A 
ATOM      7  C   UNL     1       2.332   6.199  19.992  0.00  0.00    +0.000 A 
ATOM      8  C   UNL     1       2.380   6.050  18.599  0.00  0.00    +0.000 A 
ATOM      9  C   UNL     1       2.032   4.814  18.049  0.00  0.00    +0.000 A 
ATOM     10  C   UNL     1       1.674   3.741  18.872  0.00  0.00    +0.000 A 
ENDBRANCH   3   8
ENDBRANCH   2   3
ENDBRANCH   1   2
BRANCH   1  11
ATOM     11  C   UNL     1       5.989   5.379  15.699  0.00  0.00    +0.000 C 
BRANCH  11  12
ATOM     12  C   UNL     1       5.688   4.403  16.861  0.00  0.00    +0.000 C 
BRANCH  12  13
ATOM     13  O   UNL     1       6.774   4.420  17.793  0.00  0.00    +0.000 OA
BRANCH  13  14
ATOM     14  N   UNL     1       6.318   4.597  19.132  0.00  0.00    +0.000 N 
ATOM     15  O   UNL     1       6.956   5.359  19.850  0.00  0.00    +0.000 OA
ATOM     16  O   UNL     1       5.307   3.933  19.380  0.00  0.00    +0.000 OA
ENDBRANCH  13  14
ENDBRANCH  12  13
ENDBRANCH  11  12
BRANCH  11  17
ATOM     17  O   UNL     1       5.719   4.671  14.472  0.00  0.00    +0.000 OA
BRANCH  17  18
ATOM     18  N   UNL     1       6.842   4.617  13.604  0.00  0.00    +0.000 N 
ATOM     19  O   UNL     1       7.768   5.390  13.839  0.00  0.00    +0.000 OA
ATOM     20  O   UNL     1       6.697   3.803  12.693  0.00  0.00    +0.000 OA
ENDBRANCH  17  18
ENDBRANCH  11  17
ENDBRANCH   1  11
TORSDOF 9
ENDMDL
MODEL 7
REMARK VINA RESULT:      -6.0      1.639      4.000
REMARK  Name = 
REMARK  10 active torsions:
REMARK  status: ('A' for Active; 'I' for Inactive)
REMARK    1  A    between atoms: C_1  and  C_2
REMARK    2  A    between atoms: C_5  and  S_6
REMARK    3  A    between atoms: S_6  and  S_7
REMARK    4  A    between atoms: S_7  and  C_8
REMARK    5  A    between atoms: C_8  and  C_9
REMARK    6  A    between atoms: C_9  and  C_10
REMARK    7  A    between atoms: C_9  and  O_15
REMARK    8  A    between atoms: C_10  and  O_11
REMARK    9  A    between atoms: O_11  and  N_12
REMARK   10  A    between atoms: O_15  and  N_16
REMARK                            x       y       z     vdW  Elec       q    Type
REMARK                         _______ _______ _______ _____ _____    ______ ____
ROOT
ATOM      1  C   UNL     1       5.182   4.249  15.400  0.00  0.00    +0.000 C 
ENDROOT
BRANCH   1   2
ATOM      2  S   UNL     1       5.035   3.833  17.168  0.00  0.00    +0.000 S 
BRANCH   2   3
ATOM      3  S   UNL     1       2.995   3.675  17.417  0.00  0.00    +0.000 S 
BRANCH   3   8
ATOM      4  C   UNL     1       1.430   8.282  21.121  0.00  0.00    +0.000 C 
ATOM      5  C   UNL     1       1.818   7.151  20.214  0.00  0.00    +0.000 A 
ATOM      6  C   UNL     1       2.395   7.386  18.964  0.00  0.00    +0.000 A 
ATOM      7  C   UNL     1       2.753   6.315  18.135  0.00  0.00    +0.000 A 
ATOM      8  C   UNL     1       2.545   4.990  18.543  0.00  0.00    +0.000 A 
ATOM      9  C   UNL     1       1.949   4.761  19.785  0.00  0.00    +0.000 A 
ATOM     10  C   UNL     1       1.597   5.830  20.617  0.00  0.00    +0.000 A 
ENDBRANCH   3   8
ENDBRANCH   2   3
ENDBRANCH   1   2
BRANCH   1  11
ATOM     11  C   UNL     1       6.076   5.462  15.060  0.00  0.00    +0.000 C 
BRANCH  11  12
ATOM     12  C   UNL     1       6.219   6.403  16.280  0.00  0.00    +0.000 C 
BRANCH  12  13
ATOM     13  O   UNL     1       7.599   6.507  16.644  0.00  0.00    +0.000 OA
BRANCH  13  14
ATOM     14  N   UNL     1       7.799   7.448  17.695  0.00  0.00    +0.000 N 
ATOM     15  O   UNL     1       8.229   7.023  18.761  0.00  0.00    +0.000 OA
ATOM     16  O   UNL     1       7.500   8.599  17.362  0.00  0.00    +0.000 OA
ENDBRANCH  13  14
ENDBRANCH  12  13
ENDBRANCH  11  12
BRANCH  11  17
ATOM     17  O   UNL     1       7.397   4.977  14.743  0.00  0.00    +0.000 OA
BRANCH  17  18
ATOM     18  N   UNL     1       7.744   5.163  13.379  0.00  0.00    +0.000 N 
ATOM     19  O   UNL     1       7.148   4.476  12.552  0.00  0.00    +0.000 OA
ATOM     20  O   UNL     1       8.646   5.985  13.228  0.00  0.00    +0.000 OA
ENDBRANCH  17  18
ENDBRANCH  11  17
ENDBRANCH   1  11
TORSDOF 9
ENDMDL
MODEL 8
REMARK VINA RESULT:      -6.0      2.471      3.483
REMARK  Name = 
REMARK  10 active torsions:
REMARK  status: ('A' for Active; 'I' for Inactive)
REMARK    1  A    between atoms: C_1  and  C_2
REMARK    2  A    between atoms: C_5  and  S_6
REMARK    3  A    between atoms: S_6  and  S_7
REMARK    4  A    between atoms: S_7  and  C_8
REMARK    5  A    between atoms: C_8  and  C_9
REMARK    6  A    between atoms: C_9  and  C_10
REMARK    7  A    between atoms: C_9  and  O_15
REMARK    8  A    between atoms: C_10  and  O_11
REMARK    9  A    between atoms: O_11  and  N_12
REMARK   10  A    between atoms: O_15  and  N_16
REMARK                            x       y       z     vdW  Elec       q    Type
REMARK                         _______ _______ _______ _____ _____    ______ ____
ROOT
ATOM      1  C   UNL     1       4.323   3.550  17.556  0.00  0.00    +0.000 C 
ENDROOT
BRANCH   1   2
ATOM      2  S   UNL     1       2.742   4.400  17.871  0.00  0.00    +0.000 S 
BRANCH   2   3
ATOM      3  S   UNL     1       3.125   5.408  19.627  0.00  0.00    +0.000 S 
BRANCH   3   8
ATOM      4  C   UNL     1       0.504  10.868  18.784  0.00  0.00    +0.000 C 
ATOM      5  C   UNL     1       1.151   9.531  18.992  0.00  0.00    +0.000 A 
ATOM      6  C   UNL     1       1.778   8.854  17.943  0.00  0.00    +0.000 A 
ATOM      7  C   UNL     1       2.379   7.607  18.161  0.00  0.00    +0.000 A 
ATOM      8  C   UNL     1       2.368   7.017  19.432  0.00  0.00    +0.000 A 
ATOM      9  C   UNL     1       1.722   7.689  20.473  0.00  0.00    +0.000 A 
ATOM     10  C   UNL     1       1.128   8.937  20.258  0.00  0.00    +0.000 A 
ENDBRANCH   3   8
ENDBRANCH   2   3
ENDBRANCH   1   2
BRANCH   1  11
ATOM     11  C   UNL     1       5.497   4.446  17.104  0.00  0.00    +0.000 C 
BRANCH  11  12
ATOM     12  C   UNL     1       4.980   5.711  16.377  0.00  0.00    +0.000 C 
BRANCH  12  13
ATOM     13  O   UNL     1       5.982   6.187  15.473  0.00  0.00    +0.000 OA
BRANCH  13  14
ATOM     14  N   UNL     1       6.418   5.164  14.582  0.00  0.00    +0.000 N 
ATOM     15  O   UNL     1       5.567   4.402  14.136  0.00  0.00    +0.000 OA
ATOM     16  O   UNL     1       7.636   5.200  14.380  0.00  0.00    +0.000 OA
ENDBRANCH  13  14
ENDBRANCH  12  13
ENDBRANCH  11  12
BRANCH  11  17
ATOM     17  O   UNL     1       6.204   4.893  18.278  0.00  0.00    +0.000 OA
BRANCH  17  18
ATOM     18  N   UNL     1       7.592   5.091  18.049  0.00  0.00    +0.000 N 
ATOM     19  O   UNL     1       8.182   4.224  17.409  0.00  0.00    +0.000 OA
ATOM     20  O   UNL     1       8.016   6.118  18.576  0.00  0.00    +0.000 OA
ENDBRANCH  17  18
ENDBRANCH  11  17
ENDBRANCH   1  11
TORSDOF 9
ENDMDL
MODEL 9
REMARK VINA RESULT:      -5.9      1.079      1.356
REMARK  Name = 
REMARK  10 active torsions:
REMARK  status: ('A' for Active; 'I' for Inactive)
REMARK    1  A    between atoms: C_1  and  C_2
REMARK    2  A    between atoms: C_5  and  S_6
REMARK    3  A    between atoms: S_6  and  S_7
REMARK    4  A    between atoms: S_7  and  C_8
REMARK    5  A    between atoms: C_8  and  C_9
REMARK    6  A    between atoms: C_9  and  C_10
REMARK    7  A    between atoms: C_9  and  O_15
REMARK    8  A    between atoms: C_10  and  O_11
REMARK    9  A    between atoms: O_11  and  N_12
REMARK   10  A    between atoms: O_15  and  N_16
REMARK                            x       y       z     vdW  Elec       q    Type
REMARK                         _______ _______ _______ _____ _____    ______ ____
ROOT
ATOM      1  C   UNL     1       4.988   5.308  17.207  0.00  0.00    +0.000 C 
ENDROOT
BRANCH   1   2
ATOM      2  S   UNL     1       4.879   7.114  16.991  0.00  0.00    +0.000 S 
BRANCH   2   3
ATOM      3  S   UNL     1       2.950   7.516  17.595  0.00  0.00    +0.000 S 
BRANCH   3   8
ATOM      4  C   UNL     1       1.294   2.631  20.880  0.00  0.00    +0.000 C 
ATOM      5  C   UNL     1       1.696   3.832  20.075  0.00  0.00    +0.000 A 
ATOM      6  C   UNL     1       1.476   3.891  18.697  0.00  0.00    +0.000 A 
ATOM      7  C   UNL     1       1.857   5.024  17.965  0.00  0.00    +0.000 A 
ATOM      8  C   UNL     1       2.460   6.119  18.599  0.00  0.00    +0.000 A 
ATOM      9  C   UNL     1       2.696   6.046  19.974  0.00  0.00    +0.000 A 
ATOM     10  C   UNL     1       2.310   4.918  20.706  0.00  0.00    +0.000 A 
ENDBRANCH   3   8
ENDBRANCH   2   3
ENDBRANCH   1   2
BRANCH   1  11
ATOM     11  C   UNL     1       6.339   4.660  16.831  0.00  0.00    +0.000 C 
BRANCH  11  12
ATOM     12  C   UNL     1       6.346   4.216  15.349  0.00  0.00    +0.000 C 
BRANCH  12  13
ATOM     13  O   UNL     1       6.558   5.355  14.509  0.00  0.00    +0.000 OA
BRANCH  13  14
ATOM     14  N   UNL     1       7.383   5.041  13.391  0.00  0.00    +0.000 N 
ATOM     15  O   UNL     1       7.006   4.146  12.644  0.00  0.00    +0.000 OA
ATOM     16  O   UNL     1       8.394   5.748  13.336  0.00  0.00    +0.000 OA
ENDBRANCH  13  14
ENDBRANCH  12  13
ENDBRANCH  11  12
BRANCH  11  17
ATOM     17  O   UNL     1       7.374   5.652  16.980  0.00  0.00    +0.000 OA
BRANCH  17  18
ATOM     18  N   UNL     1       7.854   5.758  18.313  0.00  0.00    +0.000 N 
ATOM     19  O   UNL     1       7.972   4.714  18.950  0.00  0.00    +0.000 OA
ATOM     20  O   UNL     1       8.051   6.924  18.653  0.00  0.00    +0.000 OA
ENDBRANCH  17  18
ENDBRANCH  11  17
ENDBRANCH   1  11
TORSDOF 9
ENDMDL
