MODEL 1
REMARK VINA RESULT:      -8.2      0.000      0.000
REMARK  Name = 
REMARK  6 active torsions:
REMARK  status: ('A' for Active; 'I' for Inactive)
REMARK    1  A    between atoms: C_4  and  C_5
REMARK    2  A    between atoms: C_5  and  N_6
REMARK    3  A    between atoms: N_6  and  S_7
REMARK    4  A    between atoms: S_7  and  C_10
REMARK    5  A    between atoms: N_18  and  C_19
REMARK    6  A    between atoms: C_22  and  N_23
REMARK                            x       y       z     vdW  Elec       q    Type
REMARK                         _______ _______ _______ _____ _____    ______ ____
ROOT
ATOM      1  O   UNL     1       1.323   4.532  20.443  0.00  0.00    +0.000 OA
ATOM      2  C   UNL     1       2.396   4.870  19.977  0.00  0.00    +0.000 C 
ATOM      3  O   UNL     1       3.369   3.946  19.707  0.00  0.00    +0.000 OA
ATOM      4  C   UNL     1       4.579   4.642  19.388  0.00  0.00    +0.000 C 
ATOM      5  C   UNL     1       4.129   6.028  18.994  0.00  0.00    +0.000 C 
ATOM      6  N   UNL     1       2.849   6.136  19.629  0.00  0.00    +0.000 N 
ENDROOT
BRANCH   6   7
ATOM      7  C   UNL     1       2.133   7.353  19.751  0.00  0.00    +0.000 A 
ATOM      8  C   UNL     1       1.453   7.678  20.930  0.00  0.00    +0.000 A 
ATOM      9  C   UNL     1       0.744   8.873  21.054  0.00  0.00    +0.000 A 
ATOM     10  C   UNL     1       0.663   9.789  20.004  0.00  0.00    +0.000 A 
ATOM     11  C   UNL     1       1.354   9.463  18.828  0.00  0.00    +0.000 A 
ATOM     12  F   UNL     1       1.344  10.301  17.780  0.00  0.00    +0.000 F 
ATOM     13  C   UNL     1       2.081   8.274  18.699  0.00  0.00    +0.000 A 
BRANCH  10  14
ATOM     14  N   UNL     1      -0.138  10.911  20.180  0.00  0.00    +0.000 N 
ATOM     15  C   UNL     1      -0.231  11.522  21.511  0.00  0.00    +0.000 C 
ATOM     16  C   UNL     1      -0.402  13.038  21.363  0.00  0.00    +0.000 C 
ATOM     17  S   UNL     1      -1.931  13.487  20.462  0.00  0.00    +0.000 S 
ATOM     18  C   UNL     1      -1.699  12.408  19.001  0.00  0.00    +0.000 C 
ATOM     19  C   UNL     1      -1.378  10.960  19.387  0.00  0.00    +0.000 C 
ENDBRANCH  10  14
ENDBRANCH   6   7
BRANCH   4  20
ATOM     20  C   UNL     1       5.302   3.864  18.297  0.00  0.00    +0.000 C 
BRANCH  20  21
ATOM     21  N   UNL     1       5.280   4.560  16.998  0.00  0.00    +0.000 NA
ATOM     22  H   UNL     1       4.555   5.268  16.852  0.00  0.00    +0.000 HD
BRANCH  21  23
ATOM     23  S   UNL     1       6.766   5.214  16.502  0.00  0.00    +0.000 S 
ATOM     24  O   UNL     1       6.623   6.644  16.654  0.00  0.00    +0.000 OA
ATOM     25  O   UNL     1       7.825   4.483  17.154  0.00  0.00    +0.000 OA
BRANCH  23  26
ATOM     26  C   UNL     1       6.813   4.852  14.762  0.00  0.00    +0.000 A 
ATOM     27  C   UNL     1       7.757   5.489  13.948  0.00  0.00    +0.000 A 
ATOM     28  C   UNL     1       7.875   5.116  12.608  0.00  0.00    +0.000 A 
ATOM     29  C   UNL     1       7.060   4.110  12.098  0.00  0.00    +0.000 A 
ATOM     30  F   UNL     1       7.192   3.740  10.819  0.00  0.00    +0.000 F 
ATOM     31  C   UNL     1       6.121   3.470  12.902  0.00  0.00    +0.000 A 
ATOM     32  C   UNL     1       5.997   3.837  14.245  0.00  0.00    +0.000 A 
ENDBRANCH  23  26
ENDBRANCH  21  23
ENDBRANCH  20  21
ENDBRANCH   4  20
TORSDOF 6
ENDMDL
MODEL 2
REMARK VINA RESULT:      -8.0      2.675      3.736
REMARK  Name = 
REMARK  6 active torsions:
REMARK  status: ('A' for Active; 'I' for Inactive)
REMARK    1  A    between atoms: C_4  and  C_5
REMARK    2  A    between atoms: C_5  and  N_6
REMARK    3  A    between atoms: N_6  and  S_7
REMARK    4  A    between atoms: S_7  and  C_10
REMARK    5  A    between atoms: N_18  and  C_19
REMARK    6  A    between atoms: C_22  and  N_23
REMARK                            x       y       z     vdW  Elec       q    Type
REMARK                         _______ _______ _______ _____ _____    ______ ____
ROOT
ATOM      1  O   UNL     1       1.989  10.204  17.642  0.00  0.00    +0.000 OA
ATOM      2  C   UNL     1       2.013   9.165  18.278  0.00  0.00    +0.000 C 
ATOM      3  O   UNL     1       2.695   8.072  17.814  0.00  0.00    +0.000 OA
ATOM      4  C   UNL     1       2.366   6.950  18.639  0.00  0.00    +0.000 C 
ATOM      5  C   UNL     1       1.844   7.557  19.919  0.00  0.00    +0.000 C 
ATOM      6  N   UNL     1       1.430   8.865  19.501  0.00  0.00    +0.000 N 
ENDROOT
BRANCH   6   7
ATOM      7  C   UNL     1       0.650   9.734  20.302  0.00  0.00    +0.000 A 
ATOM      8  C   UNL     1       0.120  10.920  19.780  0.00  0.00    +0.000 A 
ATOM      9  C   UNL     1      -0.647  11.781  20.564  0.00  0.00    +0.000 A 
ATOM     10  C   UNL     1      -0.905  11.512  21.909  0.00  0.00    +0.000 A 
ATOM     11  C   UNL     1      -0.380  10.319  22.426  0.00  0.00    +0.000 A 
ATOM     12  F   UNL     1      -0.602   9.977  23.704  0.00  0.00    +0.000 F 
ATOM     13  C   UNL     1       0.377   9.440  21.643  0.00  0.00    +0.000 A 
BRANCH  10  14
ATOM     14  N   UNL     1      -1.601  12.467  22.642  0.00  0.00    +0.000 N 
ATOM     15  C   UNL     1      -3.067  12.431  22.653  0.00  0.00    +0.000 C 
ATOM     16  C   UNL     1      -3.577  12.912  24.016  0.00  0.00    +0.000 C 
ATOM     17  S   UNL     1      -3.083  14.636  24.381  0.00  0.00    +0.000 S 
ATOM     18  C   UNL     1      -1.293  14.473  24.037  0.00  0.00    +0.000 C 
ATOM     19  C   UNL     1      -1.013  13.817  22.681  0.00  0.00    +0.000 C 
ENDBRANCH  10  14
ENDBRANCH   6   7
BRANCH   4  20
ATOM     20  C   UNL     1       3.613   6.091  18.795  0.00  0.00    +0.000 C 
BRANCH  20  21
ATOM     21  N   UNL     1       3.359   4.668  18.507  0.00  0.00    +0.000 NA
ATOM     22  H   UNL     1       2.752   4.447  17.711  0.00  0.00    +0.000 HD
BRANCH  21  23
ATOM     23  S   UNL     1       4.743   3.690  18.405  0.00  0.00    +0.000 S 
ATOM     24  O   UNL     1       5.588   4.111  19.500  0.00  0.00    +0.000 OA
ATOM     25  O   UNL     1       4.321   2.319  18.254  0.00  0.00    +0.000 OA
BRANCH  23  26
ATOM     26  C   UNL     1       5.509   4.220  16.890  0.00  0.00    +0.000 A 
ATOM     27  C   UNL     1       6.821   4.706  16.912  0.00  0.00    +0.000 A 
ATOM     28  C   UNL     1       7.464   5.007  15.710  0.00  0.00    +0.000 A 
ATOM     29  C   UNL     1       6.797   4.812  14.504  0.00  0.00    +0.000 A 
ATOM     30  F   UNL     1       7.425   5.080  13.353  0.00  0.00    +0.000 F 
ATOM     31  C   UNL     1       5.493   4.327  14.475  0.00  0.00    +0.000 A 
ATOM     32  C   UNL     1       4.843   4.022  15.673  0.00  0.00    +0.000 A 
ENDBRANCH  23  26
ENDBRANCH  21  23
ENDBRANCH  20  21
ENDBRANCH   4  20
TORSDOF 6
ENDMDL
MODEL 3
REMARK VINA RESULT:      -8.0      2.834      3.493
REMARK  Name = 
REMARK  6 active torsions:
REMARK  status: ('A' for Active; 'I' for Inactive)
REMARK    1  A    between atoms: C_4  and  C_5
REMARK    2  A    between atoms: C_5  and  N_6
REMARK    3  A    between atoms: N_6  and  S_7
REMARK    4  A    between atoms: S_7  and  C_10
REMARK    5  A    between atoms: N_18  and  C_19
REMARK    6  A    between atoms: C_22  and  N_23
REMARK                            x       y       z     vdW  Elec       q    Type
REMARK                         _______ _______ _______ _____ _____    ______ ____
ROOT
ATOM      1  O   UNL     1       1.441   5.512  21.027  0.00  0.00    +0.000 OA
ATOM      2  C   UNL     1       2.176   5.544  20.057  0.00  0.00    +0.000 C 
ATOM      3  O   UNL     1       2.868   4.431  19.661  0.00  0.00    +0.000 OA
ATOM      4  C   UNL     1       3.808   4.816  18.652  0.00  0.00    +0.000 C 
ATOM      5  C   UNL     1       3.279   6.126  18.119  0.00  0.00    +0.000 C 
ATOM      6  N   UNL     1       2.459   6.597  19.197  0.00  0.00    +0.000 N 
ENDROOT
BRANCH   6   7
ATOM      7  C   UNL     1       1.934   7.911  19.268  0.00  0.00    +0.000 A 
ATOM      8  C   UNL     1       1.910   8.743  18.143  0.00  0.00    +0.000 A 
ATOM      9  C   UNL     1       1.398  10.038  18.208  0.00  0.00    +0.000 A 
ATOM     10  C   UNL     1       0.904  10.572  19.399  0.00  0.00    +0.000 A 
ATOM     11  C   UNL     1       0.921   9.731  20.521  0.00  0.00    +0.000 A 
ATOM     12  F   UNL     1       0.445  10.162  21.699  0.00  0.00    +0.000 F 
ATOM     13  C   UNL     1       1.419   8.425  20.463  0.00  0.00    +0.000 A 
BRANCH  10  14
ATOM     14  N   UNL     1       0.496  11.901  19.397  0.00  0.00    +0.000 N 
ATOM     15  C   UNL     1      -0.938  12.208  19.362  0.00  0.00    +0.000 C 
ATOM     16  C   UNL     1      -1.202  13.492  20.157  0.00  0.00    +0.000 C 
ATOM     17  S   UNL     1      -0.328  14.941  19.458  0.00  0.00    +0.000 S 
ATOM     18  C   UNL     1       1.347  14.211  19.357  0.00  0.00    +0.000 C 
ATOM     19  C   UNL     1       1.351  12.847  18.660  0.00  0.00    +0.000 C 
ENDBRANCH  10  14
ENDBRANCH   6   7
BRANCH   4  20
ATOM     20  C   UNL     1       3.896   3.692  17.629  0.00  0.00    +0.000 C 
BRANCH  20  21
ATOM     21  N   UNL     1       5.285   3.389  17.241  0.00  0.00    +0.000 NA
ATOM     22  H   UNL     1       5.511   2.418  17.008  0.00  0.00    +0.000 HD
BRANCH  21  23
ATOM     23  S   UNL     1       5.933   4.389  16.031  0.00  0.00    +0.000 S 
ATOM     24  O   UNL     1       6.843   3.547  15.289  0.00  0.00    +0.000 OA
ATOM     25  O   UNL     1       4.847   5.087  15.387  0.00  0.00    +0.000 OA
BRANCH  23  26
ATOM     26  C   UNL     1       6.902   5.566  16.947  0.00  0.00    +0.000 A 
ATOM     27  C   UNL     1       6.955   6.898  16.520  0.00  0.00    +0.000 A 
ATOM     28  C   UNL     1       7.614   7.846  17.304  0.00  0.00    +0.000 A 
ATOM     29  C   UNL     1       8.203   7.459  18.504  0.00  0.00    +0.000 A 
ATOM     30  F   UNL     1       8.814   8.375  19.264  0.00  0.00    +0.000 F 
ATOM     31  C   UNL     1       8.151   6.136  18.936  0.00  0.00    +0.000 A 
ATOM     32  C   UNL     1       7.493   5.181  18.157  0.00  0.00    +0.000 A 
ENDBRANCH  23  26
ENDBRANCH  21  23
ENDBRANCH  20  21
ENDBRANCH   4  20
TORSDOF 6
ENDMDL
MODEL 4
REMARK VINA RESULT:      -7.9      3.094      4.177
REMARK  Name = 
REMARK  6 active torsions:
REMARK  status: ('A' for Active; 'I' for Inactive)
REMARK    1  A    between atoms: C_4  and  C_5
REMARK    2  A    between atoms: C_5  and  N_6
REMARK    3  A    between atoms: N_6  and  S_7
REMARK    4  A    between atoms: S_7  and  C_10
REMARK    5  A    between atoms: N_18  and  C_19
REMARK    6  A    between atoms: C_22  and  N_23
REMARK                            x       y       z     vdW  Elec       q    Type
REMARK                         _______ _______ _______ _____ _____    ______ ____
ROOT
ATOM      1  O   UNL     1       2.131   9.613  17.427  0.00  0.00    +0.000 OA
ATOM      2  C   UNL     1       2.078   8.750  18.285  0.00  0.00    +0.000 C 
ATOM      3  O   UNL     1       2.800   7.593  18.164  0.00  0.00    +0.000 OA
ATOM      4  C   UNL     1       2.375   6.685  19.186  0.00  0.00    +0.000 C 
ATOM      5  C   UNL     1       1.719   7.562  20.226  0.00  0.00    +0.000 C 
ATOM      6  N   UNL     1       1.363   8.729  19.475  0.00  0.00    +0.000 N 
ENDROOT
BRANCH   6   7
ATOM      7  C   UNL     1       0.504   9.745  19.963  0.00  0.00    +0.000 A 
ATOM      8  C   UNL     1       0.619  10.222  21.274  0.00  0.00    +0.000 A 
ATOM      9  C   UNL     1      -0.225  11.220  21.761  0.00  0.00    +0.000 A 
ATOM     10  C   UNL     1      -1.234  11.775  20.972  0.00  0.00    +0.000 A 
ATOM     11  C   UNL     1      -1.339  11.301  19.657  0.00  0.00    +0.000 A 
ATOM     12  F   UNL     1      -2.269  11.799  18.828  0.00  0.00    +0.000 F 
ATOM     13  C   UNL     1      -0.487  10.311  19.154  0.00  0.00    +0.000 A 
BRANCH  10  14
ATOM     14  N   UNL     1      -2.088  12.698  21.564  0.00  0.00    +0.000 N 
ATOM     15  C   UNL     1      -1.919  14.124  21.261  0.00  0.00    +0.000 C 
ATOM     16  C   UNL     1      -3.289  14.811  21.274  0.00  0.00    +0.000 C 
ATOM     17  S   UNL     1      -4.112  14.706  22.906  0.00  0.00    +0.000 S 
ATOM     18  C   UNL     1      -3.950  12.901  23.162  0.00  0.00    +0.000 C 
ATOM     19  C   UNL     1      -2.518  12.403  22.941  0.00  0.00    +0.000 C 
ENDBRANCH  10  14
ENDBRANCH   6   7
BRANCH   4  20
ATOM     20  C   UNL     1       3.592   5.910  19.670  0.00  0.00    +0.000 C 
BRANCH  20  21
ATOM     21  N   UNL     1       3.381   4.451  19.639  0.00  0.00    +0.000 NA
ATOM     22  H   UNL     1       2.461   4.111  19.344  0.00  0.00    +0.000 HD
BRANCH  21  23
ATOM     23  S   UNL     1       4.566   3.566  18.806  0.00  0.00    +0.000 S 
ATOM     24  O   UNL     1       5.235   2.778  19.817  0.00  0.00    +0.000 OA
ATOM     25  O   UNL     1       3.951   2.956  17.652  0.00  0.00    +0.000 OA
BRANCH  23  26
ATOM     26  C   UNL     1       5.700   4.818  18.251  0.00  0.00    +0.000 A 
ATOM     27  C   UNL     1       5.410   5.548  17.092  0.00  0.00    +0.000 A 
ATOM     28  C   UNL     1       6.236   6.611  16.724  0.00  0.00    +0.000 A 
ATOM     29  C   UNL     1       7.331   6.940  17.517  0.00  0.00    +0.000 A 
ATOM     30  F   UNL     1       8.107   7.975  17.172  0.00  0.00    +0.000 F 
ATOM     31  C   UNL     1       7.623   6.221  18.672  0.00  0.00    +0.000 A 
ATOM     32  C   UNL     1       6.801   5.155  19.048  0.00  0.00    +0.000 A 
ENDBRANCH  23  26
ENDBRANCH  21  23
ENDBRANCH  20  21
ENDBRANCH   4  20
TORSDOF 6
ENDMDL
MODEL 5
REMARK VINA RESULT:      -7.9      2.445      3.325
REMARK  Name = 
REMARK  6 active torsions:
REMARK  status: ('A' for Active; 'I' for Inactive)
REMARK    1  A    between atoms: C_4  and  C_5
REMARK    2  A    between atoms: C_5  and  N_6
REMARK    3  A    between atoms: N_6  and  S_7
REMARK    4  A    between atoms: S_7  and  C_10
REMARK    5  A    between atoms: N_18  and  C_19
REMARK    6  A    between atoms: C_22  and  N_23
REMARK                            x       y       z     vdW  Elec       q    Type
REMARK                         _______ _______ _______ _____ _____    ______ ____
ROOT
ATOM      1  O   UNL     1       2.222   9.315  17.851  0.00  0.00    +0.000 OA
ATOM      2  C   UNL     1       2.107   8.403  18.651  0.00  0.00    +0.000 C 
ATOM      3  O   UNL     1       2.733   7.203  18.443  0.00  0.00    +0.000 OA
ATOM      4  C   UNL     1       2.245   6.265  19.408  0.00  0.00    +0.000 C 
ATOM      5  C   UNL     1       1.671   7.119  20.514  0.00  0.00    +0.000 C 
ATOM      6  N   UNL     1       1.403   8.359  19.846  0.00  0.00    +0.000 N 
ENDROOT
BRANCH   6   7
ATOM      7  C   UNL     1       0.634   9.406  20.413  0.00  0.00    +0.000 A 
ATOM      8  C   UNL     1       0.211  10.493  19.641  0.00  0.00    +0.000 A 
ATOM      9  C   UNL     1      -0.544  11.528  20.194  0.00  0.00    +0.000 A 
ATOM     10  C   UNL     1      -0.896  11.536  21.545  0.00  0.00    +0.000 A 
ATOM     11  C   UNL     1      -0.478  10.439  22.312  0.00  0.00    +0.000 A 
ATOM     12  F   UNL     1      -0.795  10.361  23.614  0.00  0.00    +0.000 F 
ATOM     13  C   UNL     1       0.266   9.389  21.763  0.00  0.00    +0.000 A 
BRANCH  10  14
ATOM     14  N   UNL     1      -1.571  12.648  22.034  0.00  0.00    +0.000 N 
ATOM     15  C   UNL     1      -0.848  13.611  22.872  0.00  0.00    +0.000 C 
ATOM     16  C   UNL     1      -1.398  15.019  22.617  0.00  0.00    +0.000 C 
ATOM     17  S   UNL     1      -3.172  15.167  23.043  0.00  0.00    +0.000 S 
ATOM     18  C   UNL     1      -3.787  13.721  22.105  0.00  0.00    +0.000 C 
ATOM     19  C   UNL     1      -2.985  12.448  22.397  0.00  0.00    +0.000 C 
ENDBRANCH  10  14
ENDBRANCH   6   7
BRANCH   4  20
ATOM     20  C   UNL     1       3.400   5.364  19.823  0.00  0.00    +0.000 C 
BRANCH  20  21
ATOM     21  N   UNL     1       4.698   5.841  19.314  0.00  0.00    +0.000 NA
ATOM     22  H   UNL     1       5.157   6.601  19.824  0.00  0.00    +0.000 HD
BRANCH  21  23
ATOM     23  S   UNL     1       5.851   4.629  19.020  0.00  0.00    +0.000 S 
ATOM     24  O   UNL     1       7.087   5.138  19.568  0.00  0.00    +0.000 OA
ATOM     25  O   UNL     1       5.297   3.364  19.440  0.00  0.00    +0.000 OA
BRANCH  23  26
ATOM     26  C   UNL     1       5.999   4.624  17.248  0.00  0.00    +0.000 A 
ATOM     27  C   UNL     1       7.215   4.984  16.655  0.00  0.00    +0.000 A 
ATOM     28  C   UNL     1       7.369   4.864  15.273  0.00  0.00    +0.000 A 
ATOM     29  C   UNL     1       6.316   4.380  14.502  0.00  0.00    +0.000 A 
ATOM     30  F   UNL     1       6.476   4.245  13.180  0.00  0.00    +0.000 F 
ATOM     31  C   UNL     1       5.106   4.018  15.085  0.00  0.00    +0.000 A 
ATOM     32  C   UNL     1       4.943   4.135  16.468  0.00  0.00    +0.000 A 
ENDBRANCH  23  26
ENDBRANCH  21  23
ENDBRANCH  20  21
ENDBRANCH   4  20
TORSDOF 6
ENDMDL
MODEL 6
REMARK VINA RESULT:      -7.9      2.754      3.328
REMARK  Name = 
REMARK  6 active torsions:
REMARK  status: ('A' for Active; 'I' for Inactive)
REMARK    1  A    between atoms: C_4  and  C_5
REMARK    2  A    between atoms: C_5  and  N_6
REMARK    3  A    between atoms: N_6  and  S_7
REMARK    4  A    between atoms: S_7  and  C_10
REMARK    5  A    between atoms: N_18  and  C_19
REMARK    6  A    between atoms: C_22  and  N_23
REMARK                            x       y       z     vdW  Elec       q    Type
REMARK                         _______ _______ _______ _____ _____    ______ ____
ROOT
ATOM      1  O   UNL     1       1.585   4.816  20.971  0.00  0.00    +0.000 OA
ATOM      2  C   UNL     1       2.305   5.078  20.025  0.00  0.00    +0.000 C 
ATOM      3  O   UNL     1       3.035   4.100  19.404  0.00  0.00    +0.000 OA
ATOM      4  C   UNL     1       3.945   4.724  18.492  0.00  0.00    +0.000 C 
ATOM      5  C   UNL     1       3.358   6.092  18.243  0.00  0.00    +0.000 C 
ATOM      6  N   UNL     1       2.535   6.296  19.399  0.00  0.00    +0.000 N 
ENDROOT
BRANCH   6   7
ATOM      7  C   UNL     1       1.959   7.544  19.743  0.00  0.00    +0.000 A 
ATOM      8  C   UNL     1       1.525   7.807  21.047  0.00  0.00    +0.000 A 
ATOM      9  C   UNL     1       0.954   9.032  21.390  0.00  0.00    +0.000 A 
ATOM     10  C   UNL     1       0.774  10.046  20.448  0.00  0.00    +0.000 A 
ATOM     11  C   UNL     1       1.219   9.782  19.145  0.00  0.00    +0.000 A 
ATOM     12  F   UNL     1       1.102  10.712  18.185  0.00  0.00    +0.000 F 
ATOM     13  C   UNL     1       1.807   8.561  18.794  0.00  0.00    +0.000 A 
BRANCH  10  14
ATOM     14  N   UNL     1       0.116  11.201  20.853  0.00  0.00    +0.000 N 
ATOM     15  C   UNL     1       0.636  12.506  20.430  0.00  0.00    +0.000 C 
ATOM     16  C   UNL     1      -0.532  13.479  20.232  0.00  0.00    +0.000 C 
ATOM     17  S   UNL     1      -1.482  13.757  21.772  0.00  0.00    +0.000 S 
ATOM     18  C   UNL     1      -1.767  12.006  22.222  0.00  0.00    +0.000 C 
ATOM     19  C   UNL     1      -0.478  11.178  22.201  0.00  0.00    +0.000 C 
ENDBRANCH  10  14
ENDBRANCH   6   7
BRANCH   4  20
ATOM     20  C   UNL     1       4.064   3.839  17.258  0.00  0.00    +0.000 C 
BRANCH  20  21
ATOM     21  N   UNL     1       5.462   3.645  16.835  0.00  0.00    +0.000 NA
ATOM     22  H   UNL     1       5.715   2.734  16.439  0.00  0.00    +0.000 HD
BRANCH  21  23
ATOM     23  S   UNL     1       6.088   4.855  15.822  0.00  0.00    +0.000 S 
ATOM     24  O   UNL     1       7.126   4.208  15.053  0.00  0.00    +0.000 OA
ATOM     25  O   UNL     1       4.984   5.534  15.189  0.00  0.00    +0.000 OA
BRANCH  23  26
ATOM     26  C   UNL     1       6.870   5.977  16.959  0.00  0.00    +0.000 A 
ATOM     27  C   UNL     1       7.459   5.478  18.127  0.00  0.00    +0.000 A 
ATOM     28  C   UNL     1       8.178   6.340  18.957  0.00  0.00    +0.000 A 
ATOM     29  C   UNL     1       8.307   7.682  18.611  0.00  0.00    +0.000 A 
ATOM     30  F   UNL     1       9.016   8.500  19.398  0.00  0.00    +0.000 F 
ATOM     31  C   UNL     1       7.726   8.184  17.450  0.00  0.00    +0.000 A 
ATOM     32  C   UNL     1       7.006   7.327  16.613  0.00  0.00    +0.000 A 
ENDBRANCH  23  26
ENDBRANCH  21  23
ENDBRANCH  20  21
ENDBRANCH   4  20
TORSDOF 6
ENDMDL
MODEL 7
REMARK VINA RESULT:      -7.8      1.101      1.833
REMARK  Name = 
REMARK  6 active torsions:
REMARK  status: ('A' for Active; 'I' for Inactive)
REMARK    1  A    between atoms: C_4  and  C_5
REMARK    2  A    between atoms: C_5  and  N_6
REMARK    3  A    between atoms: N_6  and  S_7
REMARK    4  A    between atoms: S_7  and  C_10
REMARK    5  A    between atoms: N_18  and  C_19
REMARK    6  A    between atoms: C_22  and  N_23
REMARK                            x       y       z     vdW  Elec       q    Type
REMARK                         _______ _______ _______ _____ _____    ______ ____
ROOT
ATOM      1  O   UNL     1       1.128   4.517  18.942  0.00  0.00    +0.000 OA
ATOM      2  C   UNL     1       2.297   4.831  19.066  0.00  0.00    +0.000 C 
ATOM      3  O   UNL     1       3.295   3.908  18.904  0.00  0.00    +0.000 OA
ATOM      4  C   UNL     1       4.530   4.497  19.325  0.00  0.00    +0.000 C 
ATOM      5  C   UNL     1       4.282   5.985  19.268  0.00  0.00    +0.000 C 
ATOM      6  N   UNL     1       2.853   6.070  19.357  0.00  0.00    +0.000 N 
ENDROOT
BRANCH   6   7
ATOM      7  C   UNL     1       2.151   7.279  19.586  0.00  0.00    +0.000 A 
ATOM      8  C   UNL     1       2.066   8.264  18.596  0.00  0.00    +0.000 A 
ATOM      9  C   UNL     1       1.379   9.458  18.816  0.00  0.00    +0.000 A 
ATOM     10  C   UNL     1       0.762   9.733  20.038  0.00  0.00    +0.000 A 
ATOM     11  C   UNL     1       0.842   8.739  21.023  0.00  0.00    +0.000 A 
ATOM     12  F   UNL     1       0.257   8.917  22.217  0.00  0.00    +0.000 F 
ATOM     13  C   UNL     1       1.516   7.532  20.807  0.00  0.00    +0.000 A 
BRANCH  10  14
ATOM     14  N   UNL     1       0.177  10.983  20.204  0.00  0.00    +0.000 N 
ATOM     15  C   UNL     1      -1.115  11.258  19.566  0.00  0.00    +0.000 C 
ATOM     16  C   UNL     1      -1.927  12.211  20.451  0.00  0.00    +0.000 C 
ATOM     17  S   UNL     1      -1.096  13.824  20.691  0.00  0.00    +0.000 S 
ATOM     18  C   UNL     1       0.542  13.198  21.217  0.00  0.00    +0.000 C 
ATOM     19  C   UNL     1       1.096  12.133  20.265  0.00  0.00    +0.000 C 
ENDBRANCH  10  14
ENDBRANCH   6   7
BRANCH   4  20
ATOM     20  C   UNL     1       5.635   3.992  18.408  0.00  0.00    +0.000 C 
BRANCH  20  21
ATOM     21  N   UNL     1       5.391   4.324  16.993  0.00  0.00    +0.000 NA
ATOM     22  H   UNL     1       4.432   4.557  16.720  0.00  0.00    +0.000 HD
BRANCH  21  23
ATOM     23  S   UNL     1       6.429   5.495  16.334  0.00  0.00    +0.000 S 
ATOM     24  O   UNL     1       5.624   6.688  16.205  0.00  0.00    +0.000 OA
ATOM     25  O   UNL     1       7.660   5.486  17.086  0.00  0.00    +0.000 OA
BRANCH  23  26
ATOM     26  C   UNL     1       6.757   4.878  14.699  0.00  0.00    +0.000 A 
ATOM     27  C   UNL     1       5.955   3.859  14.170  0.00  0.00    +0.000 A 
ATOM     28  C   UNL     1       6.134   3.460  12.845  0.00  0.00    +0.000 A 
ATOM     29  C   UNL     1       7.100   4.084  12.062  0.00  0.00    +0.000 A 
ATOM     30  F   UNL     1       7.253   3.713  10.785  0.00  0.00    +0.000 F 
ATOM     31  C   UNL     1       7.899   5.099  12.580  0.00  0.00    +0.000 A 
ATOM     32  C   UNL     1       7.726   5.505  13.905  0.00  0.00    +0.000 A 
ENDBRANCH  23  26
ENDBRANCH  21  23
ENDBRANCH  20  21
ENDBRANCH   4  20
TORSDOF 6
ENDMDL
MODEL 8
REMARK VINA RESULT:      -7.8      2.810      3.415
REMARK  Name = 
REMARK  6 active torsions:
REMARK  status: ('A' for Active; 'I' for Inactive)
REMARK    1  A    between atoms: C_4  and  C_5
REMARK    2  A    between atoms: C_5  and  N_6
REMARK    3  A    between atoms: N_6  and  S_7
REMARK    4  A    between atoms: S_7  and  C_10
REMARK    5  A    between atoms: N_18  and  C_19
REMARK    6  A    between atoms: C_22  and  N_23
REMARK                            x       y       z     vdW  Elec       q    Type
REMARK                         _______ _______ _______ _____ _____    ______ ____
ROOT
ATOM      1  O   UNL     1       1.568   5.133  20.965  0.00  0.00    +0.000 OA
ATOM      2  C   UNL     1       2.303   5.225  19.998  0.00  0.00    +0.000 C 
ATOM      3  O   UNL     1       3.003   4.141  19.541  0.00  0.00    +0.000 OA
ATOM      4  C   UNL     1       3.938   4.589  18.554  0.00  0.00    +0.000 C 
ATOM      5  C   UNL     1       3.398   5.922  18.095  0.00  0.00    +0.000 C 
ATOM      6  N   UNL     1       2.576   6.326  19.197  0.00  0.00    +0.000 N 
ENDROOT
BRANCH   6   7
ATOM      7  C   UNL     1       2.041   7.630  19.341  0.00  0.00    +0.000 A 
ATOM      8  C   UNL     1       2.037   8.533  18.273  0.00  0.00    +0.000 A 
ATOM      9  C   UNL     1       1.514   9.819  18.409  0.00  0.00    +0.000 A 
ATOM     10  C   UNL     1       0.989  10.271  19.621  0.00  0.00    +0.000 A 
ATOM     11  C   UNL     1       0.987   9.359  20.686  0.00  0.00    +0.000 A 
ATOM     12  F   UNL     1       0.480   9.709  21.878  0.00  0.00    +0.000 F 
ATOM     13  C   UNL     1       1.495   8.062  20.555  0.00  0.00    +0.000 A 
BRANCH  10  14
ATOM     14  N   UNL     1       0.573  11.595  19.696  0.00  0.00    +0.000 N 
ATOM     15  C   UNL     1       0.884  12.375  20.898  0.00  0.00    +0.000 C 
ATOM     16  C   UNL     1       1.117  13.839  20.508  0.00  0.00    +0.000 C 
ATOM     17  S   UNL     1      -0.360  14.604  19.743  0.00  0.00    +0.000 S 
ATOM     18  C   UNL     1      -0.691  13.323  18.478  0.00  0.00    +0.000 C 
ATOM     19  C   UNL     1      -0.723  11.910  19.070  0.00  0.00    +0.000 C 
ENDBRANCH  10  14
ENDBRANCH   6   7
BRANCH   4  20
ATOM     20  C   UNL     1       4.034   3.524  17.471  0.00  0.00    +0.000 C 
BRANCH  20  21
ATOM     21  N   UNL     1       5.417   3.311  17.008  0.00  0.00    +0.000 NA
ATOM     22  H   UNL     1       5.659   2.384  16.648  0.00  0.00    +0.000 HD
BRANCH  21  23
ATOM     23  S   UNL     1       6.004   4.473  15.918  0.00  0.00    +0.000 S 
ATOM     24  O   UNL     1       7.045   3.804  15.172  0.00  0.00    +0.000 OA
ATOM     25  O   UNL     1       4.877   5.091  15.262  0.00  0.00    +0.000 OA
BRANCH  23  26
ATOM     26  C   UNL     1       6.776   5.676  16.976  0.00  0.00    +0.000 A 
ATOM     27  C   UNL     1       7.391   5.259  18.162  0.00  0.00    +0.000 A 
ATOM     28  C   UNL     1       8.101   6.183  18.930  0.00  0.00    +0.000 A 
ATOM     29  C   UNL     1       8.198   7.504  18.505  0.00  0.00    +0.000 A 
ATOM     30  F   UNL     1       8.899   8.382  19.233  0.00  0.00    +0.000 F 
ATOM     31  C   UNL     1       7.590   7.925  17.325  0.00  0.00    +0.000 A 
ATOM     32  C   UNL     1       6.878   7.006  16.550  0.00  0.00    +0.000 A 
ENDBRANCH  23  26
ENDBRANCH  21  23
ENDBRANCH  20  21
ENDBRANCH   4  20
TORSDOF 6
ENDMDL
MODEL 9
REMARK VINA RESULT:      -7.8      5.032     11.431
REMARK  Name = 
REMARK  6 active torsions:
REMARK  status: ('A' for Active; 'I' for Inactive)
REMARK    1  A    between atoms: C_4  and  C_5
REMARK    2  A    between atoms: C_5  and  N_6
REMARK    3  A    between atoms: N_6  and  S_7
REMARK    4  A    between atoms: S_7  and  C_10
REMARK    5  A    between atoms: N_18  and  C_19
REMARK    6  A    between atoms: C_22  and  N_23
REMARK                            x       y       z     vdW  Elec       q    Type
REMARK                         _______ _______ _______ _____ _____    ______ ____
ROOT
ATOM      1  O   UNL     1      -1.715  10.355  17.832  0.00  0.00    +0.000 OA
ATOM      2  C   UNL     1      -0.902  11.190  18.185  0.00  0.00    +0.000 C 
ATOM      3  O   UNL     1      -1.210  12.524  18.166  0.00  0.00    +0.000 OA
ATOM      4  C   UNL     1      -0.012  13.269  18.410  0.00  0.00    +0.000 C 
ATOM      5  C   UNL     1       0.921  12.284  19.073  0.00  0.00    +0.000 C 
ATOM      6  N   UNL     1       0.394  11.019  18.653  0.00  0.00    +0.000 N 
ENDROOT
BRANCH   6   7
ATOM      7  C   UNL     1       1.076   9.789  18.824  0.00  0.00    +0.000 A 
ATOM      8  C   UNL     1       1.839   9.234  17.791  0.00  0.00    +0.000 A 
ATOM      9  C   UNL     1       2.509   8.021  17.952  0.00  0.00    +0.000 A 
ATOM     10  C   UNL     1       2.436   7.297  19.143  0.00  0.00    +0.000 A 
ATOM     11  C   UNL     1       1.678   7.862  20.179  0.00  0.00    +0.000 A 
ATOM     12  F   UNL     1       1.575   7.239  21.363  0.00  0.00    +0.000 F 
ATOM     13  C   UNL     1       1.014   9.085  20.032  0.00  0.00    +0.000 A 
BRANCH  10  14
ATOM     14  N   UNL     1       3.060   6.056  19.189  0.00  0.00    +0.000 N 
ATOM     15  C   UNL     1       4.296   5.849  18.427  0.00  0.00    +0.000 C 
ATOM     16  C   UNL     1       5.202   4.872  19.185  0.00  0.00    +0.000 C 
ATOM     17  S   UNL     1       4.430   3.227  19.407  0.00  0.00    +0.000 S 
ATOM     18  C   UNL     1       2.833   3.781  20.106  0.00  0.00    +0.000 C 
ATOM     19  C   UNL     1       2.175   4.881  19.266  0.00  0.00    +0.000 C 
ENDBRANCH  10  14
ENDBRANCH   6   7
BRANCH   4  20
ATOM     20  C   UNL     1      -0.371  14.484  19.253  0.00  0.00    +0.000 C 
BRANCH  20  21
ATOM     21  N   UNL     1      -1.704  14.369  19.871  0.00  0.00    +0.000 NA
ATOM     22  H   UNL     1      -2.047  13.428  20.086  0.00  0.00    +0.000 HD
BRANCH  21  23
ATOM     23  S   UNL     1      -1.958  15.350  21.234  0.00  0.00    +0.000 S 
ATOM     24  O   UNL     1      -0.648  15.547  21.811  0.00  0.00    +0.000 OA
ATOM     25  O   UNL     1      -2.793  16.461  20.846  0.00  0.00    +0.000 OA
BRANCH  23  26
ATOM     26  C   UNL     1      -2.884  14.298  22.329  0.00  0.00    +0.000 A 
ATOM     27  C   UNL     1      -2.428  13.001  22.591  0.00  0.00    +0.000 A 
ATOM     28  C   UNL     1      -3.086  12.219  23.542  0.00  0.00    +0.000 A 
ATOM     29  C   UNL     1      -4.181  12.740  24.224  0.00  0.00    +0.000 A 
ATOM     30  F   UNL     1      -4.796  11.995  25.152  0.00  0.00    +0.000 F 
ATOM     31  C   UNL     1      -4.638  14.030  23.970  0.00  0.00    +0.000 A 
ATOM     32  C   UNL     1      -3.985  14.820  23.021  0.00  0.00    +0.000 A 
ENDBRANCH  23  26
ENDBRANCH  21  23
ENDBRANCH  20  21
ENDBRANCH   4  20
TORSDOF 6
ENDMDL
