MODEL 1
REMARK VINA RESULT:      -7.7      0.000      0.000
REMARK  Name = 
REMARK  8 active torsions:
REMARK  status: ('A' for Active; 'I' for Inactive)
REMARK    1  A    between atoms: C_1  and  C_2
REMARK    2  A    between atoms: C_2  and  C_3
REMARK    3  A    between atoms: C_3  and  C_4
REMARK    4  A    between atoms: C_4  and  N_5
REMARK    5  A    between atoms: N_5  and  C_6
REMARK    6  A    between atoms: N_5  and  C_7
REMARK    7  A    between atoms: C_15  and  C_16
REMARK    8  A    between atoms: C_16  and  C_17
REMARK                            x       y       z     vdW  Elec       q    Type
REMARK                         _______ _______ _______ _____ _____    ______ ____
ROOT
ATOM      1  C   UNL     1       5.054   5.238  17.772  0.00  0.00    +0.000 A 
ATOM      2  N   UNL     1       5.354   4.017  18.281  0.00  0.00    +0.000 NA
ATOM      3  C   UNL     1       4.642   3.572  19.312  0.00  0.00    +0.000 A 
ATOM      4  N   UNL     1       4.971   2.336  19.829  0.00  0.00    +0.000 N 
ATOM      5  N   UNL     1       3.662   4.244  19.903  0.00  0.00    +0.000 NA
ATOM      6  C   UNL     1       3.351   5.439  19.382  0.00  0.00    +0.000 A 
ATOM      7  C   UNL     1       2.293   6.149  19.933  0.00  0.00    +0.000 A 
ATOM      8  C   UNL     1       1.890   7.380  19.416  0.00  0.00    +0.000 A 
ATOM      9  C   UNL     1       2.588   7.898  18.342  0.00  0.00    +0.000 A 
ATOM     10  N   UNL     1       3.636   7.240  17.801  0.00  0.00    +0.000 NA
ATOM     11  C   UNL     1       4.012   6.025  18.299  0.00  0.00    +0.000 A 
ATOM     12  H   UNL     1       5.931   2.122  19.606  0.00  0.00    +0.000 HD
ATOM     13  H   UNL     1       4.695   2.287  20.799  0.00  0.00    +0.000 HD
ENDROOT
BRANCH   1  14
ATOM     14  N   UNL     1       5.817   5.652  16.676  0.00  0.00    +0.000 N 
ATOM     15  C   UNL     1       7.068   6.365  16.872  0.00  0.00    +0.000 C 
BRANCH  14  16
ATOM     16  C   UNL     1       5.403   5.292  15.327  0.00  0.00    +0.000 C 
BRANCH  16  17
ATOM     17  C   UNL     1       6.090   4.014  14.823  0.00  0.00    +0.000 C 
BRANCH  17  19
ATOM     18  C   UNL     1       5.708   3.375  12.420  0.00  0.00    +0.000 C 
ATOM     19  C   UNL     1       6.611   4.126  13.387  0.00  0.00    +0.000 C 
ENDBRANCH  17  19
ENDBRANCH  16  17
ENDBRANCH  14  16
ENDBRANCH   1  14
BRANCH   9  20
ATOM     20  C   UNL     1       2.240   9.234  17.732  0.00  0.00    +0.000 C 
BRANCH  20  21
ATOM     21  C   UNL     1       1.056   9.946  18.350  0.00  0.00    +0.000 A 
ATOM     22  C   UNL     1      -0.240   9.714  17.866  0.00  0.00    +0.000 A 
ATOM     23  C   UNL     1      -1.347  10.275  18.505  0.00  0.00    +0.000 A 
ATOM     24  C   UNL     1      -1.173  11.078  19.630  0.00  0.00    +0.000 A 
ATOM     25  C   UNL     1       0.111  11.340  20.106  0.00  0.00    +0.000 A 
ATOM     26  C   UNL     1       1.219  10.779  19.469  0.00  0.00    +0.000 A 
ENDBRANCH  20  21
ENDBRANCH   9  20
TORSDOF 6
ENDMDL
MODEL 2
REMARK VINA RESULT:      -7.6      1.604      2.120
REMARK  Name = 
REMARK  8 active torsions:
REMARK  status: ('A' for Active; 'I' for Inactive)
REMARK    1  A    between atoms: C_1  and  C_2
REMARK    2  A    between atoms: C_2  and  C_3
REMARK    3  A    between atoms: C_3  and  C_4
REMARK    4  A    between atoms: C_4  and  N_5
REMARK    5  A    between atoms: N_5  and  C_6
REMARK    6  A    between atoms: N_5  and  C_7
REMARK    7  A    between atoms: C_15  and  C_16
REMARK    8  A    between atoms: C_16  and  C_17
REMARK                            x       y       z     vdW  Elec       q    Type
REMARK                         _______ _______ _______ _____ _____    ______ ____
ROOT
ATOM      1  C   UNL     1       5.017   4.856  18.908  0.00  0.00    +0.000 A 
ATOM      2  N   UNL     1       5.380   3.560  19.068  0.00  0.00    +0.000 NA
ATOM      3  C   UNL     1       4.569   2.759  19.754  0.00  0.00    +0.000 A 
ATOM      4  N   UNL     1       4.962   1.447  19.923  0.00  0.00    +0.000 N 
ATOM      5  N   UNL     1       3.429   3.136  20.319  0.00  0.00    +0.000 NA
ATOM      6  C   UNL     1       3.060   4.412  20.137  0.00  0.00    +0.000 A 
ATOM      7  C   UNL     1       1.845   4.832  20.661  0.00  0.00    +0.000 A 
ATOM      8  C   UNL     1       1.382   6.135  20.476  0.00  0.00    +0.000 A 
ATOM      9  C   UNL     1       2.176   7.018  19.770  0.00  0.00    +0.000 A 
ATOM     10  N   UNL     1       3.372   6.641  19.269  0.00  0.00    +0.000 NA
ATOM     11  C   UNL     1       3.812   5.359  19.436  0.00  0.00    +0.000 A 
ATOM     12  H   UNL     1       5.965   1.381  19.837  0.00  0.00    +0.000 HD
ATOM     13  H   UNL     1       4.539   1.068  20.758  0.00  0.00    +0.000 HD
ENDROOT
BRANCH   1  14
ATOM     14  N   UNL     1       5.891   5.653  18.163  0.00  0.00    +0.000 N 
ATOM     15  C   UNL     1       7.220   5.960  18.661  0.00  0.00    +0.000 C 
BRANCH  14  16
ATOM     16  C   UNL     1       5.502   6.108  16.835  0.00  0.00    +0.000 C 
BRANCH  16  17
ATOM     17  C   UNL     1       5.166   4.946  15.890  0.00  0.00    +0.000 C 
BRANCH  17  19
ATOM     18  C   UNL     1       6.224   3.962  13.830  0.00  0.00    +0.000 C 
ATOM     19  C   UNL     1       6.401   4.247  15.314  0.00  0.00    +0.000 C 
ENDBRANCH  17  19
ENDBRANCH  16  17
ENDBRANCH  14  16
ENDBRANCH   1  14
BRANCH   9  20
ATOM     20  C   UNL     1       1.768   8.453  19.542  0.00  0.00    +0.000 C 
BRANCH  20  21
ATOM     21  C   UNL     1       0.919   9.072  20.630  0.00  0.00    +0.000 A 
ATOM     22  C   UNL     1       1.205   8.819  21.980  0.00  0.00    +0.000 A 
ATOM     23  C   UNL     1       0.502   9.479  22.990  0.00  0.00    +0.000 A 
ATOM     24  C   UNL     1      -0.499  10.392  22.665  0.00  0.00    +0.000 A 
ATOM     25  C   UNL     1      -0.813  10.632  21.329  0.00  0.00    +0.000 A 
ATOM     26  C   UNL     1      -0.110   9.975  20.317  0.00  0.00    +0.000 A 
ENDBRANCH  20  21
ENDBRANCH   9  20
TORSDOF 6
ENDMDL
MODEL 3
REMARK VINA RESULT:      -7.6      0.430      1.077
REMARK  Name = 
REMARK  8 active torsions:
REMARK  status: ('A' for Active; 'I' for Inactive)
REMARK    1  A    between atoms: C_1  and  C_2
REMARK    2  A    between atoms: C_2  and  C_3
REMARK    3  A    between atoms: C_3  and  C_4
REMARK    4  A    between atoms: C_4  and  N_5
REMARK    5  A    between atoms: N_5  and  C_6
REMARK    6  A    between atoms: N_5  and  C_7
REMARK    7  A    between atoms: C_15  and  C_16
REMARK    8  A    between atoms: C_16  and  C_17
REMARK                            x       y       z     vdW  Elec       q    Type
REMARK                         _______ _______ _______ _____ _____    ______ ____
ROOT
ATOM      1  C   UNL     1       4.925   4.981  17.794  0.00  0.00    +0.000 A 
ATOM      2  N   UNL     1       5.220   3.764  18.314  0.00  0.00    +0.000 NA
ATOM      3  C   UNL     1       4.550   3.358  19.388  0.00  0.00    +0.000 A 
ATOM      4  N   UNL     1       4.875   2.125  19.915  0.00  0.00    +0.000 N 
ATOM      5  N   UNL     1       3.618   4.067  20.014  0.00  0.00    +0.000 NA
ATOM      6  C   UNL     1       3.311   5.259  19.482  0.00  0.00    +0.000 A 
ATOM      7  C   UNL     1       2.299   6.006  20.071  0.00  0.00    +0.000 A 
ATOM      8  C   UNL     1       1.902   7.237  19.548  0.00  0.00    +0.000 A 
ATOM      9  C   UNL     1       2.557   7.715  18.429  0.00  0.00    +0.000 A 
ATOM     10  N   UNL     1       3.559   7.019  17.851  0.00  0.00    +0.000 NA
ATOM     11  C   UNL     1       3.930   5.805  18.356  0.00  0.00    +0.000 A 
ATOM     12  H   UNL     1       5.817   1.882  19.649  0.00  0.00    +0.000 HD
ATOM     13  H   UNL     1       4.647   2.103  20.899  0.00  0.00    +0.000 HD
ENDROOT
BRANCH   1  14
ATOM     14  N   UNL     1       5.641   5.353  16.653  0.00  0.00    +0.000 N 
ATOM     15  C   UNL     1       6.850   6.152  16.764  0.00  0.00    +0.000 C 
BRANCH  14  16
ATOM     16  C   UNL     1       5.225   4.865  15.345  0.00  0.00    +0.000 C 
BRANCH  16  17
ATOM     17  C   UNL     1       6.410   4.392  14.490  0.00  0.00    +0.000 C 
BRANCH  17  19
ATOM     18  C   UNL     1       7.024   3.902  12.100  0.00  0.00    +0.000 C 
ATOM     19  C   UNL     1       5.990   3.689  13.196  0.00  0.00    +0.000 C 
ENDBRANCH  17  19
ENDBRANCH  16  17
ENDBRANCH  14  16
ENDBRANCH   1  14
BRANCH   9  20
ATOM     20  C   UNL     1       2.211   9.046  17.809  0.00  0.00    +0.000 C 
BRANCH  20  21
ATOM     21  C   UNL     1       0.978   9.725  18.363  0.00  0.00    +0.000 A 
ATOM     22  C   UNL     1       1.072  10.546  19.497  0.00  0.00    +0.000 A 
ATOM     23  C   UNL     1      -0.036  11.268  19.944  0.00  0.00    +0.000 A 
ATOM     24  C   UNL     1      -1.252  11.175  19.269  0.00  0.00    +0.000 A 
ATOM     25  C   UNL     1      -1.367  10.342  18.157  0.00  0.00    +0.000 A 
ATOM     26  C   UNL     1      -0.260   9.620  17.708  0.00  0.00    +0.000 A 
ENDBRANCH  20  21
ENDBRANCH   9  20
TORSDOF 6
ENDMDL
MODEL 4
REMARK VINA RESULT:      -7.6      2.298      4.578
REMARK  Name = 
REMARK  8 active torsions:
REMARK  status: ('A' for Active; 'I' for Inactive)
REMARK    1  A    between atoms: C_1  and  C_2
REMARK    2  A    between atoms: C_2  and  C_3
REMARK    3  A    between atoms: C_3  and  C_4
REMARK    4  A    between atoms: C_4  and  N_5
REMARK    5  A    between atoms: N_5  and  C_6
REMARK    6  A    between atoms: N_5  and  C_7
REMARK    7  A    between atoms: C_15  and  C_16
REMARK    8  A    between atoms: C_16  and  C_17
REMARK                            x       y       z     vdW  Elec       q    Type
REMARK                         _______ _______ _______ _____ _____    ______ ____
ROOT
ATOM      1  C   UNL     1       6.697   5.862  17.066  0.00  0.00    +0.000 A 
ATOM      2  N   UNL     1       7.303   5.514  15.904  0.00  0.00    +0.000 NA
ATOM      3  C   UNL     1       6.638   4.734  15.056  0.00  0.00    +0.000 A 
ATOM      4  N   UNL     1       7.275   4.375  13.886  0.00  0.00    +0.000 N 
ATOM      5  N   UNL     1       5.422   4.245  15.268  0.00  0.00    +0.000 NA
ATOM      6  C   UNL     1       4.816   4.611  16.406  0.00  0.00    +0.000 A 
ATOM      7  C   UNL     1       3.521   4.170  16.639  0.00  0.00    +0.000 A 
ATOM      8  C   UNL     1       2.817   4.544  17.784  0.00  0.00    +0.000 A 
ATOM      9  C   UNL     1       3.450   5.357  18.705  0.00  0.00    +0.000 A 
ATOM     10  N   UNL     1       4.717   5.781  18.514  0.00  0.00    +0.000 NA
ATOM     11  C   UNL     1       5.394   5.428  17.381  0.00  0.00    +0.000 A 
ATOM     12  H   UNL     1       8.275   4.436  14.014  0.00  0.00    +0.000 HD
ATOM     13  H   UNL     1       6.900   3.501  13.547  0.00  0.00    +0.000 HD
ENDROOT
BRANCH   1  14
ATOM     14  N   UNL     1       7.427   6.699  17.914  0.00  0.00    +0.000 N 
ATOM     15  C   UNL     1       8.048   6.175  19.119  0.00  0.00    +0.000 C 
BRANCH  14  16
ATOM     16  C   UNL     1       7.643   8.092  17.546  0.00  0.00    +0.000 C 
BRANCH  16  17
ATOM     17  C   UNL     1       8.644   8.795  18.474  0.00  0.00    +0.000 C 
BRANCH  17  19
ATOM     18  C   UNL     1       9.524  10.988  19.341  0.00  0.00    +0.000 C 
ATOM     19  C   UNL     1       8.769  10.300  18.212  0.00  0.00    +0.000 C 
ENDBRANCH  17  19
ENDBRANCH  16  17
ENDBRANCH  14  16
ENDBRANCH   1  14
BRANCH   9  20
ATOM     20  C   UNL     1       2.775   5.792  19.983  0.00  0.00    +0.000 C 
BRANCH  20  21
ATOM     21  C   UNL     1       2.053   7.120  19.921  0.00  0.00    +0.000 A 
ATOM     22  C   UNL     1       1.372   7.607  21.047  0.00  0.00    +0.000 A 
ATOM     23  C   UNL     1       0.803   8.882  21.035  0.00  0.00    +0.000 A 
ATOM     24  C   UNL     1       0.903   9.683  19.900  0.00  0.00    +0.000 A 
ATOM     25  C   UNL     1       1.553   9.201  18.764  0.00  0.00    +0.000 A 
ATOM     26  C   UNL     1       2.123   7.927  18.774  0.00  0.00    +0.000 A 
ENDBRANCH  20  21
ENDBRANCH   9  20
TORSDOF 6
ENDMDL
MODEL 5
REMARK VINA RESULT:      -7.5      1.188      2.806
REMARK  Name = 
REMARK  8 active torsions:
REMARK  status: ('A' for Active; 'I' for Inactive)
REMARK    1  A    between atoms: C_1  and  C_2
REMARK    2  A    between atoms: C_2  and  C_3
REMARK    3  A    between atoms: C_3  and  C_4
REMARK    4  A    between atoms: C_4  and  N_5
REMARK    5  A    between atoms: N_5  and  C_6
REMARK    6  A    between atoms: N_5  and  C_7
REMARK    7  A    between atoms: C_15  and  C_16
REMARK    8  A    between atoms: C_16  and  C_17
REMARK                            x       y       z     vdW  Elec       q    Type
REMARK                         _______ _______ _______ _____ _____    ______ ____
ROOT
ATOM      1  C   UNL     1       5.208   5.051  18.140  0.00  0.00    +0.000 A 
ATOM      2  N   UNL     1       5.482   3.804  18.596  0.00  0.00    +0.000 NA
ATOM      3  C   UNL     1       4.645   3.256  19.472  0.00  0.00    +0.000 A 
ATOM      4  N   UNL     1       4.948   1.993  19.939  0.00  0.00    +0.000 N 
ATOM      5  N   UNL     1       3.561   3.846  19.958  0.00  0.00    +0.000 NA
ATOM      6  C   UNL     1       3.279   5.069  19.486  0.00  0.00    +0.000 A 
ATOM      7  C   UNL     1       2.121   5.698  19.923  0.00  0.00    +0.000 A 
ATOM      8  C   UNL     1       1.746   6.954  19.444  0.00  0.00    +0.000 A 
ATOM      9  C   UNL     1       2.572   7.578  18.529  0.00  0.00    +0.000 A 
ATOM     10  N   UNL     1       3.715   6.998  18.104  0.00  0.00    +0.000 NA
ATOM     11  C   UNL     1       4.066   5.760  18.561  0.00  0.00    +0.000 A 
ATOM     12  H   UNL     1       5.939   1.828  19.848  0.00  0.00    +0.000 HD
ATOM     13  H   UNL     1       4.535   1.858  20.850  0.00  0.00    +0.000 HD
ENDROOT
BRANCH   1  14
ATOM     14  N   UNL     1       6.105   5.576  17.205  0.00  0.00    +0.000 N 
ATOM     15  C   UNL     1       5.746   5.662  15.800  0.00  0.00    +0.000 C 
BRANCH  14  16
ATOM     16  C   UNL     1       7.379   6.123  17.652  0.00  0.00    +0.000 C 
BRANCH  16  17
ATOM     17  C   UNL     1       7.475   7.640  17.435  0.00  0.00    +0.000 C 
BRANCH  17  19
ATOM     18  C   UNL     1       8.524   9.828  18.101  0.00  0.00    +0.000 C 
ATOM     19  C   UNL     1       8.458   8.334  18.383  0.00  0.00    +0.000 C 
ENDBRANCH  17  19
ENDBRANCH  16  17
ENDBRANCH  14  16
ENDBRANCH   1  14
BRANCH   9  20
ATOM     20  C   UNL     1       2.260   8.946  17.975  0.00  0.00    +0.000 C 
BRANCH  20  21
ATOM     21  C   UNL     1       1.001   9.595  18.508  0.00  0.00    +0.000 A 
ATOM     22  C   UNL     1       1.014  10.252  19.747  0.00  0.00    +0.000 A 
ATOM     23  C   UNL     1      -0.109  10.954  20.190  0.00  0.00    +0.000 A 
ATOM     24  C   UNL     1      -1.259  11.002  19.406  0.00  0.00    +0.000 A 
ATOM     25  C   UNL     1      -1.296  10.331  18.184  0.00  0.00    +0.000 A 
ATOM     26  C   UNL     1      -0.174   9.630  17.739  0.00  0.00    +0.000 A 
ENDBRANCH  20  21
ENDBRANCH   9  20
TORSDOF 6
ENDMDL
MODEL 6
REMARK VINA RESULT:      -7.5      1.890      3.190
REMARK  Name = 
REMARK  8 active torsions:
REMARK  status: ('A' for Active; 'I' for Inactive)
REMARK    1  A    between atoms: C_1  and  C_2
REMARK    2  A    between atoms: C_2  and  C_3
REMARK    3  A    between atoms: C_3  and  C_4
REMARK    4  A    between atoms: C_4  and  N_5
REMARK    5  A    between atoms: N_5  and  C_6
REMARK    6  A    between atoms: N_5  and  C_7
REMARK    7  A    between atoms: C_15  and  C_16
REMARK    8  A    between atoms: C_16  and  C_17
REMARK                            x       y       z     vdW  Elec       q    Type
REMARK                         _______ _______ _______ _____ _____    ______ ____
ROOT
ATOM      1  C   UNL     1       4.976   4.780  18.753  0.00  0.00    +0.000 A 
ATOM      2  N   UNL     1       5.346   3.487  18.927  0.00  0.00    +0.000 NA
ATOM      3  C   UNL     1       4.586   2.712  19.696  0.00  0.00    +0.000 A 
ATOM      4  N   UNL     1       4.985   1.404  19.876  0.00  0.00    +0.000 N 
ATOM      5  N   UNL     1       3.492   3.114  20.332  0.00  0.00    +0.000 NA
ATOM      6  C   UNL     1       3.116   4.385  20.138  0.00  0.00    +0.000 A 
ATOM      7  C   UNL     1       1.945   4.829  20.738  0.00  0.00    +0.000 A 
ATOM      8  C   UNL     1       1.474   6.129  20.547  0.00  0.00    +0.000 A 
ATOM      9  C   UNL     1       2.216   6.985  19.756  0.00  0.00    +0.000 A 
ATOM     10  N   UNL     1       3.370   6.585  19.180  0.00  0.00    +0.000 NA
ATOM     11  C   UNL     1       3.816   5.306  19.354  0.00  0.00    +0.000 A 
ATOM     12  H   UNL     1       5.979   1.330  19.718  0.00  0.00    +0.000 HD
ATOM     13  H   UNL     1       4.625   1.054  20.752  0.00  0.00    +0.000 HD
ENDROOT
BRANCH   1  14
ATOM     14  N   UNL     1       5.795   5.547  17.920  0.00  0.00    +0.000 N 
ATOM     15  C   UNL     1       5.492   5.685  16.506  0.00  0.00    +0.000 C 
BRANCH  14  16
ATOM     16  C   UNL     1       6.913   6.289  18.487  0.00  0.00    +0.000 C 
BRANCH  16  17
ATOM     17  C   UNL     1       7.697   7.073  17.425  0.00  0.00    +0.000 C 
BRANCH  17  19
ATOM     18  C   UNL     1       8.730   9.013  18.650  0.00  0.00    +0.000 C 
ATOM     19  C   UNL     1       7.673   8.589  17.640  0.00  0.00    +0.000 C 
ENDBRANCH  17  19
ENDBRANCH  16  17
ENDBRANCH  14  16
ENDBRANCH   1  14
BRANCH   9  20
ATOM     20  C   UNL     1       1.797   8.413  19.514  0.00  0.00    +0.000 C 
BRANCH  20  21
ATOM     21  C   UNL     1       0.938   9.035  20.594  0.00  0.00    +0.000 A 
ATOM     22  C   UNL     1       1.237   8.818  21.947  0.00  0.00    +0.000 A 
ATOM     23  C   UNL     1       0.523   9.482  22.947  0.00  0.00    +0.000 A 
ATOM     24  C   UNL     1      -0.501  10.363  22.608  0.00  0.00    +0.000 A 
ATOM     25  C   UNL     1      -0.828  10.567  21.268  0.00  0.00    +0.000 A 
ATOM     26  C   UNL     1      -0.114   9.906  20.267  0.00  0.00    +0.000 A 
ENDBRANCH  20  21
ENDBRANCH   9  20
TORSDOF 6
ENDMDL
MODEL 7
REMARK VINA RESULT:      -7.4      1.130      2.595
REMARK  Name = 
REMARK  8 active torsions:
REMARK  status: ('A' for Active; 'I' for Inactive)
REMARK    1  A    between atoms: C_1  and  C_2
REMARK    2  A    between atoms: C_2  and  C_3
REMARK    3  A    between atoms: C_3  and  C_4
REMARK    4  A    between atoms: C_4  and  N_5
REMARK    5  A    between atoms: N_5  and  C_6
REMARK    6  A    between atoms: N_5  and  C_7
REMARK    7  A    between atoms: C_15  and  C_16
REMARK    8  A    between atoms: C_16  and  C_17
REMARK                            x       y       z     vdW  Elec       q    Type
REMARK                         _______ _______ _______ _____ _____    ______ ____
ROOT
ATOM      1  C   UNL     1       5.132   5.098  18.036  0.00  0.00    +0.000 A 
ATOM      2  N   UNL     1       5.415   3.866  18.527  0.00  0.00    +0.000 NA
ATOM      3  C   UNL     1       4.613   3.359  19.458  0.00  0.00    +0.000 A 
ATOM      4  N   UNL     1       4.925   2.111  19.959  0.00  0.00    +0.000 N 
ATOM      5  N   UNL     1       3.555   3.977  19.967  0.00  0.00    +0.000 NA
ATOM      6  C   UNL     1       3.262   5.184  19.462  0.00  0.00    +0.000 A 
ATOM      7  C   UNL     1       2.130   5.840  19.925  0.00  0.00    +0.000 A 
ATOM      8  C   UNL     1       1.744   7.080  19.416  0.00  0.00    +0.000 A 
ATOM      9  C   UNL     1       2.535   7.662  18.443  0.00  0.00    +0.000 A 
ATOM     10  N   UNL     1       3.654   7.056  17.992  0.00  0.00    +0.000 NA
ATOM     11  C   UNL     1       4.015   5.833  18.480  0.00  0.00    +0.000 A 
ATOM     12  H   UNL     1       5.911   1.934  19.831  0.00  0.00    +0.000 HD
ATOM     13  H   UNL     1       4.551   2.014  20.892  0.00  0.00    +0.000 HD
ENDROOT
BRANCH   1  14
ATOM     14  N   UNL     1       5.992   5.579  17.045  0.00  0.00    +0.000 N 
ATOM     15  C   UNL     1       5.556   5.660  15.661  0.00  0.00    +0.000 C 
BRANCH  14  16
ATOM     16  C   UNL     1       7.307   6.086  17.411  0.00  0.00    +0.000 C 
BRANCH  16  17
ATOM     17  C   UNL     1       7.377   7.620  17.371  0.00  0.00    +0.000 C 
BRANCH  17  19
ATOM     18  C   UNL     1       8.520   9.716  18.164  0.00  0.00    +0.000 C 
ATOM     19  C   UNL     1       8.383   8.213  18.362  0.00  0.00    +0.000 C 
ENDBRANCH  17  19
ENDBRANCH  16  17
ENDBRANCH  14  16
ENDBRANCH   1  14
BRANCH   9  20
ATOM     20  C   UNL     1       2.210   9.012  17.852  0.00  0.00    +0.000 C 
BRANCH  20  21
ATOM     21  C   UNL     1       1.045   9.740  18.486  0.00  0.00    +0.000 A 
ATOM     22  C   UNL     1      -0.205   9.765  17.849  0.00  0.00    +0.000 A 
ATOM     23  C   UNL     1      -1.313  10.332  18.481  0.00  0.00    +0.000 A 
ATOM     24  C   UNL     1      -1.185  10.887  19.753  0.00  0.00    +0.000 A 
ATOM     25  C   UNL     1       0.057  10.894  20.387  0.00  0.00    +0.000 A 
ATOM     26  C   UNL     1       1.165  10.326  19.757  0.00  0.00    +0.000 A 
ENDBRANCH  20  21
ENDBRANCH   9  20
TORSDOF 6
ENDMDL
MODEL 8
REMARK VINA RESULT:      -7.3      1.528      2.233
REMARK  Name = 
REMARK  8 active torsions:
REMARK  status: ('A' for Active; 'I' for Inactive)
REMARK    1  A    between atoms: C_1  and  C_2
REMARK    2  A    between atoms: C_2  and  C_3
REMARK    3  A    between atoms: C_3  and  C_4
REMARK    4  A    between atoms: C_4  and  N_5
REMARK    5  A    between atoms: N_5  and  C_6
REMARK    6  A    between atoms: N_5  and  C_7
REMARK    7  A    between atoms: C_15  and  C_16
REMARK    8  A    between atoms: C_16  and  C_17
REMARK                            x       y       z     vdW  Elec       q    Type
REMARK                         _______ _______ _______ _____ _____    ______ ____
ROOT
ATOM      1  C   UNL     1       4.531   4.403  18.733  0.00  0.00    +0.000 A 
ATOM      2  N   UNL     1       4.669   3.140  18.259  0.00  0.00    +0.000 NA
ATOM      3  C   UNL     1       3.688   2.271  18.485  0.00  0.00    +0.000 A 
ATOM      4  N   UNL     1       3.853   0.985  18.010  0.00  0.00    +0.000 N 
ATOM      5  N   UNL     1       2.580   2.537  19.164  0.00  0.00    +0.000 NA
ATOM      6  C   UNL     1       2.434   3.793  19.610  0.00  0.00    +0.000 A 
ATOM      7  C   UNL     1       1.262   4.129  20.274  0.00  0.00    +0.000 A 
ATOM      8  C   UNL     1       1.028   5.426  20.731  0.00  0.00    +0.000 A 
ATOM      9  C   UNL     1       2.007   6.379  20.525  0.00  0.00    +0.000 A 
ATOM     10  N   UNL     1       3.166   6.073  19.903  0.00  0.00    +0.000 NA
ATOM     11  C   UNL     1       3.381   4.806  19.440  0.00  0.00    +0.000 A 
ATOM     12  H   UNL     1       4.837   0.789  17.901  0.00  0.00    +0.000 HD
ATOM     13  H   UNL     1       3.308   0.343  18.567  0.00  0.00    +0.000 HD
ENDROOT
BRANCH   1  14
ATOM     14  N   UNL     1       5.578   5.284  18.452  0.00  0.00    +0.000 N 
ATOM     15  C   UNL     1       6.702   5.414  19.364  0.00  0.00    +0.000 C 
BRANCH  14  16
ATOM     16  C   UNL     1       5.590   6.017  17.194  0.00  0.00    +0.000 C 
BRANCH  16  17
ATOM     17  C   UNL     1       6.900   5.826  16.415  0.00  0.00    +0.000 C 
BRANCH  17  19
ATOM     18  C   UNL     1       5.569   4.354  14.869  0.00  0.00    +0.000 C 
ATOM     19  C   UNL     1       6.916   4.567  15.543  0.00  0.00    +0.000 C 
ENDBRANCH  17  19
ENDBRANCH  16  17
ENDBRANCH  14  16
ENDBRANCH   1  14
BRANCH   9  20
ATOM     20  C   UNL     1       1.851   7.801  21.006  0.00  0.00    +0.000 C 
BRANCH  20  21
ATOM     21  C   UNL     1       1.132   8.736  20.058  0.00  0.00    +0.000 A 
ATOM     22  C   UNL     1       1.549   8.849  18.724  0.00  0.00    +0.000 A 
ATOM     23  C   UNL     1       0.820   9.619  17.815  0.00  0.00    +0.000 A 
ATOM     24  C   UNL     1      -0.329  10.289  18.229  0.00  0.00    +0.000 A 
ATOM     25  C   UNL     1      -0.740  10.208  19.559  0.00  0.00    +0.000 A 
ATOM     26  C   UNL     1      -0.013   9.438  20.468  0.00  0.00    +0.000 A 
ENDBRANCH  20  21
ENDBRANCH   9  20
TORSDOF 6
ENDMDL
MODEL 9
REMARK VINA RESULT:      -7.3      1.005      1.503
REMARK  Name = 
REMARK  8 active torsions:
REMARK  status: ('A' for Active; 'I' for Inactive)
REMARK    1  A    between atoms: C_1  and  C_2
REMARK    2  A    between atoms: C_2  and  C_3
REMARK    3  A    between atoms: C_3  and  C_4
REMARK    4  A    between atoms: C_4  and  N_5
REMARK    5  A    between atoms: N_5  and  C_6
REMARK    6  A    between atoms: N_5  and  C_7
REMARK    7  A    between atoms: C_15  and  C_16
REMARK    8  A    between atoms: C_16  and  C_17
REMARK                            x       y       z     vdW  Elec       q    Type
REMARK                         _______ _______ _______ _____ _____    ______ ____
ROOT
ATOM      1  C   UNL     1       5.514   5.022  18.696  0.00  0.00    +0.000 A 
ATOM      2  N   UNL     1       5.774   3.756  19.106  0.00  0.00    +0.000 NA
ATOM      3  C   UNL     1       4.759   3.013  19.540  0.00  0.00    +0.000 A 
ATOM      4  N   UNL     1       5.044   1.733  19.970  0.00  0.00    +0.000 N 
ATOM      5  N   UNL     1       3.500   3.424  19.625  0.00  0.00    +0.000 NA
ATOM      6  C   UNL     1       3.242   4.667  19.195  0.00  0.00    +0.000 A 
ATOM      7  C   UNL     1       1.928   5.115  19.212  0.00  0.00    +0.000 A 
ATOM      8  C   UNL     1       1.582   6.383  18.743  0.00  0.00    +0.000 A 
ATOM      9  C   UNL     1       2.590   7.204  18.275  0.00  0.00    +0.000 A 
ATOM     10  N   UNL     1       3.879   6.802  18.270  0.00  0.00    +0.000 NA
ATOM     11  C   UNL     1       4.209   5.552  18.711  0.00  0.00    +0.000 A 
ATOM     12  H   UNL     1       6.012   1.679  20.251  0.00  0.00    +0.000 HD
ATOM     13  H   UNL     1       4.347   1.434  20.637  0.00  0.00    +0.000 HD
ENDROOT
BRANCH   1  14
ATOM     14  N   UNL     1       6.608   5.755  18.229  0.00  0.00    +0.000 N 
ATOM     15  C   UNL     1       7.738   6.034  19.098  0.00  0.00    +0.000 C 
BRANCH  14  16
ATOM     16  C   UNL     1       6.660   6.169  16.833  0.00  0.00    +0.000 C 
BRANCH  16  17
ATOM     17  C   UNL     1       6.797   4.980  15.872  0.00  0.00    +0.000 C 
BRANCH  17  19
ATOM     18  C   UNL     1       6.016   3.863  13.757  0.00  0.00    +0.000 C 
ATOM     19  C   UNL     1       5.711   4.936  14.792  0.00  0.00    +0.000 C 
ENDBRANCH  17  19
ENDBRANCH  16  17
ENDBRANCH  14  16
ENDBRANCH   1  14
BRANCH   9  20
ATOM     20  C   UNL     1       2.314   8.599  17.772  0.00  0.00    +0.000 C 
BRANCH  20  21
ATOM     21  C   UNL     1       1.140   9.305  18.414  0.00  0.00    +0.000 A 
ATOM     22  C   UNL     1       1.213   9.729  19.749  0.00  0.00    +0.000 A 
ATOM     23  C   UNL     1       0.182  10.484  20.312  0.00  0.00    +0.000 A 
ATOM     24  C   UNL     1      -0.936  10.819  19.551  0.00  0.00    +0.000 A 
ATOM     25  C   UNL     1      -1.036  10.381  18.232  0.00  0.00    +0.000 A 
ATOM     26  C   UNL     1      -0.005   9.627  17.667  0.00  0.00    +0.000 A 
ENDBRANCH  20  21
ENDBRANCH   9  20
TORSDOF 6
ENDMDL
