MODEL 1
REMARK VINA RESULT:      -8.7      0.000      0.000
REMARK  Name = 
REMARK  7 active torsions:
REMARK  status: ('A' for Active; 'I' for Inactive)
REMARK    1  A    between atoms: C_1  and  N_2
REMARK    2  A    between atoms: C_3  and  C_5
REMARK    3  A    between atoms: C_7  and  C_8
REMARK    4  A    between atoms: C_12  and  N_13
REMARK    5  A    between atoms: N_13  and  S_14
REMARK    6  A    between atoms: S_14  and  C_17
REMARK    7  A    between atoms: C_27  and  N_28
REMARK                            x       y       z     vdW  Elec       q    Type
REMARK                         _______ _______ _______ _____ _____    ______ ____
ROOT
ATOM      1  C   UNL     1       2.898   6.328  18.692  0.00  0.00    +0.000 A 
ATOM      2  C   UNL     1       2.891   5.506  19.838  0.00  0.00    +0.000 A 
ATOM      3  C   UNL     1       3.482   4.238  19.831  0.00  0.00    +0.000 A 
ATOM      4  C   UNL     1       4.085   3.758  18.674  0.00  0.00    +0.000 A 
ATOM      5  C   UNL     1       4.095   4.548  17.530  0.00  0.00    +0.000 A 
ATOM      6  C   UNL     1       3.491   5.807  17.527  0.00  0.00    +0.000 A 
ENDROOT
BRANCH   1   9
ATOM      7  C   UNL     1       1.323   9.423  19.854  0.00  0.00    +0.000 A 
ATOM      8  N   UNL     1       1.865   8.161  19.893  0.00  0.00    +0.000 NA
ATOM      9  C   UNL     1       2.370   7.706  18.717  0.00  0.00    +0.000 A 
ATOM     10  C   UNL     1       2.318   8.502  17.571  0.00  0.00    +0.000 A 
ATOM     11  N   UNL     1       1.771   9.742  17.529  0.00  0.00    +0.000 NA
ATOM     12  C   UNL     1       1.259  10.204  18.688  0.00  0.00    +0.000 A 
BRANCH   7  15
ATOM     13  C   UNL     1      -0.598   9.521  23.113  0.00  0.00    +0.000 C 
ATOM     14  N   UNL     1      -0.003   9.115  21.867  0.00  0.00    +0.000 N 
ATOM     15  C   UNL     1       0.812   9.969  21.152  0.00  0.00    +0.000 C 
ATOM     16  O   UNL     1       1.118  11.091  21.543  0.00  0.00    +0.000 OA
ATOM     17  H   UNL     1      -0.179   8.192  21.483  0.00  0.00    +0.000 HD
ENDBRANCH   7  15
BRANCH  12  18
ATOM     18  N   UNL     1       0.570  11.405  18.580  0.00  0.00    +0.000 N 
ATOM     19  H   UNL     1       0.913  12.064  19.270  0.00  0.00    +0.000 HD
ATOM     20  H   UNL     1      -0.443  11.274  18.575  0.00  0.00    +0.000 HD
ENDBRANCH  12  18
ENDBRANCH   1   9
BRANCH   5  21
ATOM     21  N   UNL     1       4.726   4.058  16.366  0.00  0.00    +0.000 N 
ATOM     22  H   UNL     1       4.524   3.127  16.012  0.00  0.00    +0.000 HD
BRANCH  21  23
ATOM     23  S   UNL     1       5.877   4.961  15.565  0.00  0.00    +0.000 S 
ATOM     24  O   UNL     1       6.688   4.010  14.828  0.00  0.00    +0.000 OA
ATOM     25  O   UNL     1       5.242   6.076  14.896  0.00  0.00    +0.000 OA
BRANCH  23  26
ATOM     26  C   UNL     1       6.898   5.622  16.866  0.00  0.00    +0.000 A 
ATOM     27  C   UNL     1       7.298   4.793  17.923  0.00  0.00    +0.000 A 
ATOM     28  C   UNL     1       7.980   5.337  19.013  0.00  0.00    +0.000 A 
ATOM     29  C   UNL     1       8.246   6.706  19.056  0.00  0.00    +0.000 A 
ATOM     30  C   UNL     1       7.848   7.527  17.999  0.00  0.00    +0.000 A 
ATOM     31 CL   UNL     1       8.157   9.218  18.075  0.00  0.00    +0.000 Cl
ATOM     32  C   UNL     1       7.178   6.994  16.898  0.00  0.00    +0.000 A 
ENDBRANCH  23  26
ENDBRANCH  21  23
ENDBRANCH   5  21
TORSDOF 6
ENDMDL
MODEL 2
REMARK VINA RESULT:      -8.6      2.749      3.376
REMARK  Name = 
REMARK  7 active torsions:
REMARK  status: ('A' for Active; 'I' for Inactive)
REMARK    1  A    between atoms: C_1  and  N_2
REMARK    2  A    between atoms: C_3  and  C_5
REMARK    3  A    between atoms: C_7  and  C_8
REMARK    4  A    between atoms: C_12  and  N_13
REMARK    5  A    between atoms: N_13  and  S_14
REMARK    6  A    between atoms: S_14  and  C_17
REMARK    7  A    between atoms: C_27  and  N_28
REMARK                            x       y       z     vdW  Elec       q    Type
REMARK                         _______ _______ _______ _____ _____    ______ ____
ROOT
ATOM      1  C   UNL     1       3.070   6.093  18.703  0.00  0.00    +0.000 A 
ATOM      2  C   UNL     1       2.864   5.210  19.783  0.00  0.00    +0.000 A 
ATOM      3  C   UNL     1       3.488   3.960  19.834  0.00  0.00    +0.000 A 
ATOM      4  C   UNL     1       4.326   3.558  18.800  0.00  0.00    +0.000 A 
ATOM      5  C   UNL     1       4.536   4.408  17.721  0.00  0.00    +0.000 A 
ATOM      6  C   UNL     1       3.900   5.651  17.657  0.00  0.00    +0.000 A 
ENDROOT
BRANCH   1   9
ATOM      7  C   UNL     1       1.389   9.166  19.771  0.00  0.00    +0.000 A 
ATOM      8  N   UNL     1       1.969   7.923  19.847  0.00  0.00    +0.000 NA
ATOM      9  C   UNL     1       2.499   7.453  18.688  0.00  0.00    +0.000 A 
ATOM     10  C   UNL     1       2.432   8.218  17.521  0.00  0.00    +0.000 A 
ATOM     11  N   UNL     1       1.848   9.439  17.443  0.00  0.00    +0.000 NA
ATOM     12  C   UNL     1       1.311   9.914  18.585  0.00  0.00    +0.000 A 
BRANCH   7  15
ATOM     13  C   UNL     1      -0.581   9.295  23.000  0.00  0.00    +0.000 C 
ATOM     14  N   UNL     1       0.039   8.875  21.771  0.00  0.00    +0.000 N 
ATOM     15  C   UNL     1       0.849   9.729  21.050  0.00  0.00    +0.000 C 
ATOM     16  O   UNL     1       1.129  10.864  21.422  0.00  0.00    +0.000 OA
ATOM     17  H   UNL     1      -0.115   7.941  21.404  0.00  0.00    +0.000 HD
ENDBRANCH   7  15
BRANCH  12  18
ATOM     18  N   UNL     1       0.586  11.090  18.441  0.00  0.00    +0.000 N 
ATOM     19  H   UNL     1      -0.373  10.878  18.191  0.00  0.00    +0.000 HD
ATOM     20  H   UNL     1       1.052  11.762  17.829  0.00  0.00    +0.000 HD
ENDBRANCH  12  18
ENDBRANCH   1   9
BRANCH   5  21
ATOM     21  N   UNL     1       5.402   3.998  16.684  0.00  0.00    +0.000 N 
ATOM     22  H   UNL     1       5.247   3.127  16.185  0.00  0.00    +0.000 HD
BRANCH  21  23
ATOM     23  S   UNL     1       6.752   4.893  16.284  0.00  0.00    +0.000 S 
ATOM     24  O   UNL     1       6.370   6.283  16.448  0.00  0.00    +0.000 OA
ATOM     25  O   UNL     1       7.912   4.353  16.959  0.00  0.00    +0.000 OA
BRANCH  23  26
ATOM     26  C   UNL     1       6.962   4.610  14.538  0.00  0.00    +0.000 A 
ATOM     27  C   UNL     1       7.821   5.436  13.800  0.00  0.00    +0.000 A 
ATOM     28  C   UNL     1       7.884   5.309  12.411  0.00  0.00    +0.000 A 
ATOM     29  C   UNL     1       7.081   4.371  11.760  0.00  0.00    +0.000 A 
ATOM     30  C   UNL     1       6.230   3.549  12.501  0.00  0.00    +0.000 A 
ATOM     31 CL   UNL     1       5.223   2.416  11.686  0.00  0.00    +0.000 Cl
ATOM     32  C   UNL     1       6.167   3.658  13.890  0.00  0.00    +0.000 A 
ENDBRANCH  23  26
ENDBRANCH  21  23
ENDBRANCH   5  21
TORSDOF 6
ENDMDL
MODEL 3
REMARK VINA RESULT:      -8.4      2.233      2.800
REMARK  Name = 
REMARK  7 active torsions:
REMARK  status: ('A' for Active; 'I' for Inactive)
REMARK    1  A    between atoms: C_1  and  N_2
REMARK    2  A    between atoms: C_3  and  C_5
REMARK    3  A    between atoms: C_7  and  C_8
REMARK    4  A    between atoms: C_12  and  N_13
REMARK    5  A    between atoms: N_13  and  S_14
REMARK    6  A    between atoms: S_14  and  C_17
REMARK    7  A    between atoms: C_27  and  N_28
REMARK                            x       y       z     vdW  Elec       q    Type
REMARK                         _______ _______ _______ _____ _____    ______ ____
ROOT
ATOM      1  C   UNL     1       2.696   6.003  19.522  0.00  0.00    +0.000 A 
ATOM      2  C   UNL     1       2.004   5.158  20.415  0.00  0.00    +0.000 A 
ATOM      3  C   UNL     1       2.485   3.885  20.736  0.00  0.00    +0.000 A 
ATOM      4  C   UNL     1       3.664   3.422  20.163  0.00  0.00    +0.000 A 
ATOM      5  C   UNL     1       4.356   4.234  19.273  0.00  0.00    +0.000 A 
ATOM      6  C   UNL     1       3.871   5.500  18.935  0.00  0.00    +0.000 A 
ENDROOT
BRANCH   1   9
ATOM      7  C   UNL     1       1.263   9.341  19.987  0.00  0.00    +0.000 A 
ATOM      8  N   UNL     1       1.722   8.083  20.294  0.00  0.00    +0.000 NA
ATOM      9  C   UNL     1       2.254   7.386  19.257  0.00  0.00    +0.000 A 
ATOM     10  C   UNL     1       2.306   7.950  17.980  0.00  0.00    +0.000 A 
ATOM     11  N   UNL     1       1.840   9.187  17.674  0.00  0.00    +0.000 NA
ATOM     12  C   UNL     1       1.303   9.887  18.694  0.00  0.00    +0.000 A 
BRANCH   7  15
ATOM     13  C   UNL     1      -0.787  10.153  23.064  0.00  0.00    +0.000 C 
ATOM     14  N   UNL     1      -0.161   9.487  21.951  0.00  0.00    +0.000 N 
ATOM     15  C   UNL     1       0.724  10.151  21.127  0.00  0.00    +0.000 C 
ATOM     16  O   UNL     1       1.069  11.314  21.308  0.00  0.00    +0.000 OA
ATOM     17  H   UNL     1      -0.367   8.515  21.745  0.00  0.00    +0.000 HD
ENDBRANCH   7  15
BRANCH  12  18
ATOM     18  N   UNL     1       0.696  11.080  18.322  0.00  0.00    +0.000 N 
ATOM     19  H   UNL     1      -0.237  10.898  17.968  0.00  0.00    +0.000 HD
ATOM     20  H   UNL     1       1.287  11.642  17.708  0.00  0.00    +0.000 HD
ENDBRANCH  12  18
ENDBRANCH   1   9
BRANCH   5  21
ATOM     21  N   UNL     1       5.561   3.761  18.710  0.00  0.00    +0.000 N 
ATOM     22  H   UNL     1       5.805   2.775  18.743  0.00  0.00    +0.000 HD
BRANCH  21  23
ATOM     23  S   UNL     1       6.665   4.811  18.027  0.00  0.00    +0.000 S 
ATOM     24  O   UNL     1       6.232   6.143  18.404  0.00  0.00    +0.000 OA
ATOM     25  O   UNL     1       8.009   4.355  18.309  0.00  0.00    +0.000 OA
BRANCH  23  26
ATOM     26  C   UNL     1       6.395   4.648  16.274  0.00  0.00    +0.000 A 
ATOM     27  C   UNL     1       5.343   3.850  15.805  0.00  0.00    +0.000 A 
ATOM     28  C   UNL     1       5.212   3.607  14.436  0.00  0.00    +0.000 A 
ATOM     29  C   UNL     1       6.136   4.147  13.541  0.00  0.00    +0.000 A 
ATOM     30  C   UNL     1       7.179   4.945  14.013  0.00  0.00    +0.000 A 
ATOM     31 CL   UNL     1       8.330   5.583  12.904  0.00  0.00    +0.000 Cl
ATOM     32  C   UNL     1       7.314   5.205  15.377  0.00  0.00    +0.000 A 
ENDBRANCH  23  26
ENDBRANCH  21  23
ENDBRANCH   5  21
TORSDOF 6
ENDMDL
MODEL 4
REMARK VINA RESULT:      -8.3      4.095      9.241
REMARK  Name = 
REMARK  7 active torsions:
REMARK  status: ('A' for Active; 'I' for Inactive)
REMARK    1  A    between atoms: C_1  and  N_2
REMARK    2  A    between atoms: C_3  and  C_5
REMARK    3  A    between atoms: C_7  and  C_8
REMARK    4  A    between atoms: C_12  and  N_13
REMARK    5  A    between atoms: N_13  and  S_14
REMARK    6  A    between atoms: S_14  and  C_17
REMARK    7  A    between atoms: C_27  and  N_28
REMARK                            x       y       z     vdW  Elec       q    Type
REMARK                         _______ _______ _______ _____ _____    ______ ____
ROOT
ATOM      1  C   UNL     1       2.357   7.440  19.040  0.00  0.00    +0.000 A 
ATOM      2  C   UNL     1       2.600   8.333  17.975  0.00  0.00    +0.000 A 
ATOM      3  C   UNL     1       1.942   9.564  17.890  0.00  0.00    +0.000 A 
ATOM      4  C   UNL     1       1.018   9.928  18.863  0.00  0.00    +0.000 A 
ATOM      5  C   UNL     1       0.756   9.059  19.916  0.00  0.00    +0.000 A 
ATOM      6  C   UNL     1       1.397   7.820  19.996  0.00  0.00    +0.000 A 
ENDROOT
BRANCH   1   9
ATOM      7  C   UNL     1       4.870   4.821  18.557  0.00  0.00    +0.000 A 
ATOM      8  N   UNL     1       4.229   6.029  18.429  0.00  0.00    +0.000 NA
ATOM      9  C   UNL     1       3.119   6.186  19.195  0.00  0.00    +0.000 A 
ATOM     10  C   UNL     1       2.693   5.158  20.039  0.00  0.00    +0.000 A 
ATOM     11  N   UNL     1       3.317   3.959  20.155  0.00  0.00    +0.000 NA
ATOM     12  C   UNL     1       4.417   3.788  19.394  0.00  0.00    +0.000 A 
BRANCH   7  15
ATOM     13  C   UNL     1       7.095   4.536  15.508  0.00  0.00    +0.000 C 
ATOM     14  N   UNL     1       5.977   4.723  16.396  0.00  0.00    +0.000 N 
ATOM     15  C   UNL     1       6.129   4.646  17.765  0.00  0.00    +0.000 C 
ATOM     16  O   UNL     1       7.213   4.465  18.312  0.00  0.00    +0.000 OA
ATOM     17  H   UNL     1       5.048   4.907  16.030  0.00  0.00    +0.000 HD
ENDBRANCH   7  15
BRANCH  12  18
ATOM     18  N   UNL     1       4.942   2.502  19.416  0.00  0.00    +0.000 N 
ATOM     19  H   UNL     1       4.235   1.834  19.134  0.00  0.00    +0.000 HD
ATOM     20  H   UNL     1       5.411   2.288  20.298  0.00  0.00    +0.000 HD
ENDBRANCH  12  18
ENDBRANCH   1   9
BRANCH   5  21
ATOM     21  N   UNL     1      -0.171   9.446  20.908  0.00  0.00    +0.000 N 
ATOM     22  H   UNL     1      -1.100   9.037  20.945  0.00  0.00    +0.000 HD
BRANCH  21  23
ATOM     23  S   UNL     1       0.199  10.638  22.016  0.00  0.00    +0.000 S 
ATOM     24  O   UNL     1       0.316   9.967  23.297  0.00  0.00    +0.000 OA
ATOM     25  O   UNL     1       1.272  11.462  21.504  0.00  0.00    +0.000 OA
BRANCH  23  26
ATOM     26  C   UNL     1      -1.270  11.644  22.083  0.00  0.00    +0.000 A 
ATOM     27  C   UNL     1      -1.501  12.600  21.086  0.00  0.00    +0.000 A 
ATOM     28  C   UNL     1      -2.575  13.484  21.206  0.00  0.00    +0.000 A 
ATOM     29  C   UNL     1      -3.406  13.423  22.326  0.00  0.00    +0.000 A 
ATOM     30  C   UNL     1      -3.173  12.465  23.315  0.00  0.00    +0.000 A 
ATOM     31 CL   UNL     1      -4.186  12.417  24.705  0.00  0.00    +0.000 Cl
ATOM     32  C   UNL     1      -2.110  11.569  23.200  0.00  0.00    +0.000 A 
ENDBRANCH  23  26
ENDBRANCH  21  23
ENDBRANCH   5  21
TORSDOF 6
ENDMDL
MODEL 5
REMARK VINA RESULT:      -8.0      3.011      4.410
REMARK  Name = 
REMARK  7 active torsions:
REMARK  status: ('A' for Active; 'I' for Inactive)
REMARK    1  A    between atoms: C_1  and  N_2
REMARK    2  A    between atoms: C_3  and  C_5
REMARK    3  A    between atoms: C_7  and  C_8
REMARK    4  A    between atoms: C_12  and  N_13
REMARK    5  A    between atoms: N_13  and  S_14
REMARK    6  A    between atoms: S_14  and  C_17
REMARK    7  A    between atoms: C_27  and  N_28
REMARK                            x       y       z     vdW  Elec       q    Type
REMARK                         _______ _______ _______ _____ _____    ______ ____
ROOT
ATOM      1  C   UNL     1       1.243   8.931  19.883  0.00  0.00    +0.000 A 
ATOM      2  C   UNL     1       1.505   9.303  18.548  0.00  0.00    +0.000 A 
ATOM      3  C   UNL     1       2.283   8.501  17.706  0.00  0.00    +0.000 A 
ATOM      4  C   UNL     1       2.826   7.313  18.183  0.00  0.00    +0.000 A 
ATOM      5  C   UNL     1       2.587   6.932  19.498  0.00  0.00    +0.000 A 
ATOM      6  C   UNL     1       1.826   7.738  20.348  0.00  0.00    +0.000 A 
ENDROOT
BRANCH   1   9
ATOM      7  C   UNL     1      -0.869  11.643  21.146  0.00  0.00    +0.000 A 
ATOM      8  N   UNL     1      -0.086  10.918  20.282  0.00  0.00    +0.000 NA
ATOM      9  C   UNL     1       0.340   9.715  20.748  0.00  0.00    +0.000 A 
ATOM     10  C   UNL     1      -0.019   9.288  22.029  0.00  0.00    +0.000 A 
ATOM     11  N   UNL     1      -0.781  10.010  22.887  0.00  0.00    +0.000 NA
ATOM     12  C   UNL     1      -1.204  11.209  22.439  0.00  0.00    +0.000 A 
BRANCH   7  15
ATOM     13  C   UNL     1      -0.797  15.169  19.772  0.00  0.00    +0.000 C 
ATOM     14  N   UNL     1      -0.436  13.859  20.249  0.00  0.00    +0.000 N 
ATOM     15  C   UNL     1      -1.398  12.947  20.632  0.00  0.00    +0.000 C 
ATOM     16  O   UNL     1      -2.602  13.165  20.550  0.00  0.00    +0.000 OA
ATOM     17  H   UNL     1       0.538  13.583  20.321  0.00  0.00    +0.000 HD
ENDBRANCH   7  15
BRANCH  12  18
ATOM     18  N   UNL     1      -1.847  11.989  23.391  0.00  0.00    +0.000 N 
ATOM     19  H   UNL     1      -2.820  12.117  23.135  0.00  0.00    +0.000 HD
ATOM     20  H   UNL     1      -1.339  12.851  23.597  0.00  0.00    +0.000 HD
ENDBRANCH  12  18
ENDBRANCH   1   9
BRANCH   5  21
ATOM     21  N   UNL     1       3.129   5.715  19.967  0.00  0.00    +0.000 N 
ATOM     22  H   UNL     1       3.577   5.656  20.876  0.00  0.00    +0.000 HD
BRANCH  21  23
ATOM     23  S   UNL     1       3.114   4.343  19.016  0.00  0.00    +0.000 S 
ATOM     24  O   UNL     1       3.134   3.222  19.937  0.00  0.00    +0.000 OA
ATOM     25  O   UNL     1       2.085   4.462  18.006  0.00  0.00    +0.000 OA
BRANCH  23  26
ATOM     26  C   UNL     1       4.691   4.369  18.187  0.00  0.00    +0.000 A 
ATOM     27  C   UNL     1       5.819   4.861  18.858  0.00  0.00    +0.000 A 
ATOM     28  C   UNL     1       7.024   5.013  18.170  0.00  0.00    +0.000 A 
ATOM     29  C   UNL     1       7.099   4.691  16.814  0.00  0.00    +0.000 A 
ATOM     30  C   UNL     1       5.973   4.198  16.153  0.00  0.00    +0.000 A 
ATOM     31 CL   UNL     1       6.068   3.830  14.474  0.00  0.00    +0.000 Cl
ATOM     32  C   UNL     1       4.766   4.030  16.831  0.00  0.00    +0.000 A 
ENDBRANCH  23  26
ENDBRANCH  21  23
ENDBRANCH   5  21
TORSDOF 6
ENDMDL
MODEL 6
REMARK VINA RESULT:      -8.0      3.019      4.174
REMARK  Name = 
REMARK  7 active torsions:
REMARK  status: ('A' for Active; 'I' for Inactive)
REMARK    1  A    between atoms: C_1  and  N_2
REMARK    2  A    between atoms: C_3  and  C_5
REMARK    3  A    between atoms: C_7  and  C_8
REMARK    4  A    between atoms: C_12  and  N_13
REMARK    5  A    between atoms: N_13  and  S_14
REMARK    6  A    between atoms: S_14  and  C_17
REMARK    7  A    between atoms: C_27  and  N_28
REMARK                            x       y       z     vdW  Elec       q    Type
REMARK                         _______ _______ _______ _____ _____    ______ ____
ROOT
ATOM      1  C   UNL     1       1.582   8.648  19.629  0.00  0.00    +0.000 A 
ATOM      2  C   UNL     1       1.900   8.915  18.282  0.00  0.00    +0.000 A 
ATOM      3  C   UNL     1       2.670   8.028  17.523  0.00  0.00    +0.000 A 
ATOM      4  C   UNL     1       3.149   6.856  18.098  0.00  0.00    +0.000 A 
ATOM      5  C   UNL     1       2.855   6.577  19.428  0.00  0.00    +0.000 A 
ATOM      6  C   UNL     1       2.101   7.469  20.195  0.00  0.00    +0.000 A 
ENDROOT
BRANCH   1   9
ATOM      7  C   UNL     1      -0.989  11.115  20.474  0.00  0.00    +0.000 A 
ATOM      8  N   UNL     1      -0.222  10.264  19.717  0.00  0.00    +0.000 NA
ATOM      9  C   UNL     1       0.686   9.525  20.407  0.00  0.00    +0.000 A 
ATOM     10  C   UNL     1       0.797   9.659  21.793  0.00  0.00    +0.000 A 
ATOM     11  N   UNL     1       0.049  10.510  22.539  0.00  0.00    +0.000 NA
ATOM     12  C   UNL     1      -0.851  11.254  21.865  0.00  0.00    +0.000 A 
BRANCH   7  15
ATOM     13  C   UNL     1      -3.757  11.819  17.990  0.00  0.00    +0.000 C 
ATOM     14  N   UNL     1      -2.746  11.186  18.796  0.00  0.00    +0.000 N 
ATOM     15  C   UNL     1      -2.037  11.898  19.742  0.00  0.00    +0.000 C 
ATOM     16  O   UNL     1      -2.246  13.081  19.990  0.00  0.00    +0.000 OA
ATOM     17  H   UNL     1      -2.528  10.202  18.678  0.00  0.00    +0.000 HD
ENDBRANCH   7  15
BRANCH  12  18
ATOM     18  N   UNL     1      -1.490  12.223  22.628  0.00  0.00    +0.000 N 
ATOM     19  H   UNL     1      -0.927  13.066  22.660  0.00  0.00    +0.000 HD
ATOM     20  H   UNL     1      -1.788  11.868  23.538  0.00  0.00    +0.000 HD
ENDBRANCH  12  18
ENDBRANCH   1   9
BRANCH   5  21
ATOM     21  N   UNL     1       3.331   5.376  19.997  0.00  0.00    +0.000 N 
ATOM     22  H   UNL     1       3.688   5.351  20.947  0.00  0.00    +0.000 HD
BRANCH  21  23
ATOM     23  S   UNL     1       3.389   3.965  19.107  0.00  0.00    +0.000 S 
ATOM     24  O   UNL     1       3.604   2.899  20.067  0.00  0.00    +0.000 OA
ATOM     25  O   UNL     1       2.276   3.925  18.184  0.00  0.00    +0.000 OA
BRANCH  23  26
ATOM     26  C   UNL     1       4.882   4.115  18.147  0.00  0.00    +0.000 A 
ATOM     27  C   UNL     1       6.044   4.620  18.746  0.00  0.00    +0.000 A 
ATOM     28  C   UNL     1       7.176   4.870  17.967  0.00  0.00    +0.000 A 
ATOM     29  C   UNL     1       7.141   4.632  16.592  0.00  0.00    +0.000 A 
ATOM     30  C   UNL     1       5.982   4.126  16.002  0.00  0.00    +0.000 A 
ATOM     31 CL   UNL     1       5.942   3.862  14.301  0.00  0.00    +0.000 Cl
ATOM     32  C   UNL     1       4.850   3.860  16.771  0.00  0.00    +0.000 A 
ENDBRANCH  23  26
ENDBRANCH  21  23
ENDBRANCH   5  21
TORSDOF 6
ENDMDL
MODEL 7
REMARK VINA RESULT:      -8.0      2.353      2.903
REMARK  Name = 
REMARK  7 active torsions:
REMARK  status: ('A' for Active; 'I' for Inactive)
REMARK    1  A    between atoms: C_1  and  N_2
REMARK    2  A    between atoms: C_3  and  C_5
REMARK    3  A    between atoms: C_7  and  C_8
REMARK    4  A    between atoms: C_12  and  N_13
REMARK    5  A    between atoms: N_13  and  S_14
REMARK    6  A    between atoms: S_14  and  C_17
REMARK    7  A    between atoms: C_27  and  N_28
REMARK                            x       y       z     vdW  Elec       q    Type
REMARK                         _______ _______ _______ _____ _____    ______ ____
ROOT
ATOM      1  C   UNL     1       3.053   6.166  18.610  0.00  0.00    +0.000 A 
ATOM      2  C   UNL     1       2.258   5.028  18.362  0.00  0.00    +0.000 A 
ATOM      3  C   UNL     1       2.793   3.737  18.415  0.00  0.00    +0.000 A 
ATOM      4  C   UNL     1       4.140   3.554  18.707  0.00  0.00    +0.000 A 
ATOM      5  C   UNL     1       4.944   4.661  18.945  0.00  0.00    +0.000 A 
ATOM      6  C   UNL     1       4.418   5.954  18.876  0.00  0.00    +0.000 A 
ENDROOT
BRANCH   1   9
ATOM      7  C   UNL     1       1.368   9.182  19.823  0.00  0.00    +0.000 A 
ATOM      8  N   UNL     1       1.952   7.939  19.841  0.00  0.00    +0.000 NA
ATOM      9  C   UNL     1       2.478   7.524  18.659  0.00  0.00    +0.000 A 
ATOM     10  C   UNL     1       2.403   8.340  17.528  0.00  0.00    +0.000 A 
ATOM     11  N   UNL     1       1.814   9.561  17.507  0.00  0.00    +0.000 NA
ATOM     12  C   UNL     1       1.282   9.982  18.673  0.00  0.00    +0.000 A 
BRANCH   7  15
ATOM     13  C   UNL     1      -0.626   9.179  23.040  0.00  0.00    +0.000 C 
ATOM     14  N   UNL     1      -0.007   8.814  21.793  0.00  0.00    +0.000 N 
ATOM     15  C   UNL     1       0.832   9.685  21.129  0.00  0.00    +0.000 C 
ATOM     16  O   UNL     1       1.140  10.788  21.568  0.00  0.00    +0.000 OA
ATOM     17  H   UNL     1      -0.183   7.907  21.371  0.00  0.00    +0.000 HD
ENDBRANCH   7  15
BRANCH  12  18
ATOM     18  N   UNL     1       0.552  11.161  18.584  0.00  0.00    +0.000 N 
ATOM     19  H   UNL     1       0.579  11.652  19.470  0.00  0.00    +0.000 HD
ATOM     20  H   UNL     1      -0.383  11.012  18.202  0.00  0.00    +0.000 HD
ENDBRANCH  12  18
ENDBRANCH   1   9
BRANCH   5  21
ATOM     21  N   UNL     1       6.307   4.463  19.258  0.00  0.00    +0.000 N 
ATOM     22  H   UNL     1       6.585   3.973  20.103  0.00  0.00    +0.000 HD
BRANCH  21  23
ATOM     23  S   UNL     1       7.513   5.085  18.287  0.00  0.00    +0.000 S 
ATOM     24  O   UNL     1       7.848   6.380  18.848  0.00  0.00    +0.000 OA
ATOM     25  O   UNL     1       8.531   4.079  18.071  0.00  0.00    +0.000 OA
BRANCH  23  26
ATOM     26  C   UNL     1       6.708   5.382  16.726  0.00  0.00    +0.000 A 
ATOM     27  C   UNL     1       5.919   6.528  16.560  0.00  0.00    +0.000 A 
ATOM     28  C   UNL     1       5.176   6.697  15.390  0.00  0.00    +0.000 A 
ATOM     29  C   UNL     1       5.207   5.716  14.397  0.00  0.00    +0.000 A 
ATOM     30  C   UNL     1       5.998   4.579  14.567  0.00  0.00    +0.000 A 
ATOM     31 CL   UNL     1       6.007   3.363  13.348  0.00  0.00    +0.000 Cl
ATOM     32  C   UNL     1       6.755   4.404  15.725  0.00  0.00    +0.000 A 
ENDBRANCH  23  26
ENDBRANCH  21  23
ENDBRANCH   5  21
TORSDOF 6
ENDMDL
MODEL 8
REMARK VINA RESULT:      -7.9      0.956      1.318
REMARK  Name = 
REMARK  7 active torsions:
REMARK  status: ('A' for Active; 'I' for Inactive)
REMARK    1  A    between atoms: C_1  and  N_2
REMARK    2  A    between atoms: C_3  and  C_5
REMARK    3  A    between atoms: C_7  and  C_8
REMARK    4  A    between atoms: C_12  and  N_13
REMARK    5  A    between atoms: N_13  and  S_14
REMARK    6  A    between atoms: S_14  and  C_17
REMARK    7  A    between atoms: C_27  and  N_28
REMARK                            x       y       z     vdW  Elec       q    Type
REMARK                         _______ _______ _______ _____ _____    ______ ____
ROOT
ATOM      1  C   UNL     1       2.830   6.273  18.891  0.00  0.00    +0.000 A 
ATOM      2  C   UNL     1       2.785   5.520  20.082  0.00  0.00    +0.000 A 
ATOM      3  C   UNL     1       3.345   4.240  20.158  0.00  0.00    +0.000 A 
ATOM      4  C   UNL     1       3.954   3.680  19.041  0.00  0.00    +0.000 A 
ATOM      5  C   UNL     1       4.001   4.402  17.854  0.00  0.00    +0.000 A 
ATOM      6  C   UNL     1       3.427   5.673  17.768  0.00  0.00    +0.000 A 
ENDROOT
BRANCH   1   9
ATOM      7  C   UNL     1       1.295   9.460  19.840  0.00  0.00    +0.000 A 
ATOM      8  N   UNL     1       1.804   8.190  19.961  0.00  0.00    +0.000 NA
ATOM      9  C   UNL     1       2.335   7.662  18.828  0.00  0.00    +0.000 A 
ATOM     10  C   UNL     1       2.339   8.399  17.641  0.00  0.00    +0.000 A 
ATOM     11  N   UNL     1       1.824   9.648  17.518  0.00  0.00    +0.000 NA
ATOM     12  C   UNL     1       1.287  10.180  18.635  0.00  0.00    +0.000 A 
BRANCH   7  15
ATOM     13  C   UNL     1      -0.664   9.742  23.066  0.00  0.00    +0.000 C 
ATOM     14  N   UNL     1      -0.046   9.264  21.857  0.00  0.00    +0.000 N 
ATOM     15  C   UNL     1       0.756  10.085  21.091  0.00  0.00    +0.000 C 
ATOM     16  O   UNL     1       1.031  11.238  21.403  0.00  0.00    +0.000 OA
ATOM     17  H   UNL     1      -0.195   8.312  21.539  0.00  0.00    +0.000 HD
ENDBRANCH   7  15
BRANCH  12  18
ATOM     18  N   UNL     1       0.631  11.390  18.443  0.00  0.00    +0.000 N 
ATOM     19  H   UNL     1       0.223  11.705  19.315  0.00  0.00    +0.000 HD
ATOM     20  H   UNL     1      -0.013  11.362  17.651  0.00  0.00    +0.000 HD
ENDBRANCH  12  18
ENDBRANCH   1   9
BRANCH   5  21
ATOM     21  N   UNL     1       4.637   3.830  16.730  0.00  0.00    +0.000 N 
ATOM     22  H   UNL     1       4.469   2.864  16.467  0.00  0.00    +0.000 HD
BRANCH  21  23
ATOM     23  S   UNL     1       5.741   4.700  15.830  0.00  0.00    +0.000 S 
ATOM     24  O   UNL     1       6.696   3.731  15.327  0.00  0.00    +0.000 OA
ATOM     25  O   UNL     1       5.042   5.594  14.934  0.00  0.00    +0.000 OA
BRANCH  23  26
ATOM     26  C   UNL     1       6.594   5.700  17.033  0.00  0.00    +0.000 A 
ATOM     27  C   UNL     1       6.828   7.056  16.767  0.00  0.00    +0.000 A 
ATOM     28  C   UNL     1       7.614   7.810  17.640  0.00  0.00    +0.000 A 
ATOM     29  C   UNL     1       8.179   7.208  18.766  0.00  0.00    +0.000 A 
ATOM     30  C   UNL     1       7.940   5.858  19.028  0.00  0.00    +0.000 A 
ATOM     31 CL   UNL     1       8.663   5.119  20.403  0.00  0.00    +0.000 Cl
ATOM     32  C   UNL     1       7.145   5.097  18.170  0.00  0.00    +0.000 A 
ENDBRANCH  23  26
ENDBRANCH  21  23
ENDBRANCH   5  21
TORSDOF 6
ENDMDL
MODEL 9
REMARK VINA RESULT:      -7.9      3.807      9.033
REMARK  Name = 
REMARK  7 active torsions:
REMARK  status: ('A' for Active; 'I' for Inactive)
REMARK    1  A    between atoms: C_1  and  N_2
REMARK    2  A    between atoms: C_3  and  C_5
REMARK    3  A    between atoms: C_7  and  C_8
REMARK    4  A    between atoms: C_12  and  N_13
REMARK    5  A    between atoms: N_13  and  S_14
REMARK    6  A    between atoms: S_14  and  C_17
REMARK    7  A    between atoms: C_27  and  N_28
REMARK                            x       y       z     vdW  Elec       q    Type
REMARK                         _______ _______ _______ _____ _____    ______ ____
ROOT
ATOM      1  C   UNL     1       2.331   7.478  18.953  0.00  0.00    +0.000 A 
ATOM      2  C   UNL     1       2.502   8.283  17.807  0.00  0.00    +0.000 A 
ATOM      3  C   UNL     1       1.845   9.510  17.672  0.00  0.00    +0.000 A 
ATOM      4  C   UNL     1       0.992   9.956  18.675  0.00  0.00    +0.000 A 
ATOM      5  C   UNL     1       0.801   9.174  19.808  0.00  0.00    +0.000 A 
ATOM      6  C   UNL     1       1.442   7.940  19.940  0.00  0.00    +0.000 A 
ENDROOT
BRANCH   1   9
ATOM      7  C   UNL     1       4.844   4.845  18.552  0.00  0.00    +0.000 A 
ATOM      8  N   UNL     1       4.200   6.046  18.381  0.00  0.00    +0.000 NA
ATOM      9  C   UNL     1       3.097   6.233  19.152  0.00  0.00    +0.000 A 
ATOM     10  C   UNL     1       2.683   5.240  20.044  0.00  0.00    +0.000 A 
ATOM     11  N   UNL     1       3.311   4.049  20.203  0.00  0.00    +0.000 NA
ATOM     12  C   UNL     1       4.403   3.848  19.438  0.00  0.00    +0.000 A 
BRANCH   7  15
ATOM     13  C   UNL     1       7.053   4.537  15.494  0.00  0.00    +0.000 C 
ATOM     14  N   UNL     1       5.943   4.748  16.388  0.00  0.00    +0.000 N 
ATOM     15  C   UNL     1       6.095   4.639  17.755  0.00  0.00    +0.000 C 
ATOM     16  O   UNL     1       7.172   4.408  18.295  0.00  0.00    +0.000 OA
ATOM     17  H   UNL     1       5.022   4.973  16.027  0.00  0.00    +0.000 HD
ENDBRANCH   7  15
BRANCH  12  18
ATOM     18  N   UNL     1       4.932   2.565  19.508  0.00  0.00    +0.000 N 
ATOM     19  H   UNL     1       4.372   1.928  18.953  0.00  0.00    +0.000 HD
ATOM     20  H   UNL     1       5.100   2.265  20.470  0.00  0.00    +0.000 HD
ENDBRANCH  12  18
ENDBRANCH   1   9
BRANCH   5  21
ATOM     21  N   UNL     1      -0.053   9.645  20.829  0.00  0.00    +0.000 N 
ATOM     22  H   UNL     1      -1.036   9.389  20.850  0.00  0.00    +0.000 HD
BRANCH  21  23
ATOM     23  S   UNL     1       0.501  10.696  22.001  0.00  0.00    +0.000 S 
ATOM     24  O   UNL     1       0.698   9.894  23.193  0.00  0.00    +0.000 OA
ATOM     25  O   UNL     1       1.572  11.505  21.461  0.00  0.00    +0.000 OA
BRANCH  23  26
ATOM     26  C   UNL     1      -0.884  11.771  22.314  0.00  0.00    +0.000 A 
ATOM     27  C   UNL     1      -1.876  11.377  23.222  0.00  0.00    +0.000 A 
ATOM     28  C   UNL     1      -3.030  12.149  23.368  0.00  0.00    +0.000 A 
ATOM     29  C   UNL     1      -3.200  13.301  22.599  0.00  0.00    +0.000 A 
ATOM     30  C   UNL     1      -2.206  13.691  21.700  0.00  0.00    +0.000 A 
ATOM     31 CL   UNL     1      -2.437  15.099  20.737  0.00  0.00    +0.000 Cl
ATOM     32  C   UNL     1      -1.043  12.936  21.554  0.00  0.00    +0.000 A 
ENDBRANCH  23  26
ENDBRANCH  21  23
ENDBRANCH   5  21
TORSDOF 6
ENDMDL
