MODEL 1
REMARK VINA RESULT:      -7.4      0.000      0.000
REMARK  Name = 
REMARK  8 active torsions:
REMARK  status: ('A' for Active; 'I' for Inactive)
REMARK    1  A    between atoms: C_1  and  O_2
REMARK    2  A    between atoms: O_2  and  C_3
REMARK    3  A    between atoms: C_6  and  C_7
REMARK    4  A    between atoms: N_8  and  N_9
REMARK    5  A    between atoms: C_10  and  C_12
REMARK    6  A    between atoms: C_12  and  N_13
REMARK    7  A    between atoms: C_23  and  O_24
REMARK    8  A    between atoms: O_24  and  C_25
REMARK                            x       y       z     vdW  Elec       q    Type
REMARK                         _______ _______ _______ _____ _____    ______ ____
ROOT
ATOM      1  N   UNL     1       7.779   7.132  18.038  0.00  0.00    +0.000 N 
ATOM      2  C   UNL     1       6.753   6.724  17.195  0.00  0.00    +0.000 C 
ATOM      3  O   UNL     1       6.161   7.455  16.395  0.00  0.00    +0.000 OA
ATOM      4  H   UNL     1       8.247   6.471  18.649  0.00  0.00    +0.000 HD
ENDROOT
BRANCH   1   6
ATOM      5  C   UNL     1       8.807   8.901  19.025  0.00  0.00    +0.000 C 
ATOM      6  N   UNL     1       8.188   8.436  17.991  0.00  0.00    +0.000 NA
BRANCH   5  10
ATOM      7  C   UNL     1       9.865  13.051  19.104  0.00  0.00    +0.000 A 
ATOM      8  C   UNL     1       9.816  12.349  17.888  0.00  0.00    +0.000 A 
ATOM      9  C   UNL     1       9.489  10.994  17.857  0.00  0.00    +0.000 A 
ATOM     10  C   UNL     1       9.257  10.310  19.047  0.00  0.00    +0.000 A 
ATOM     11  C   UNL     1       9.417  10.970  20.267  0.00  0.00    +0.000 A 
ATOM     12  C   UNL     1       9.727  12.342  20.310  0.00  0.00    +0.000 A 
BRANCH   7  14
ATOM     13  C   UNL     1       9.741  15.080  17.895  0.00  0.00    +0.000 C 
ATOM     14  O   UNL     1      10.057  14.408  19.119  0.00  0.00    +0.000 OA
ENDBRANCH   7  14
BRANCH  12  15
ATOM     15  O   UNL     1       9.818  12.803  21.596  0.00  0.00    +0.000 OA
ATOM     16  C   UNL     1       8.867  12.379  22.560  0.00  0.00    +0.000 C 
ENDBRANCH  12  15
ENDBRANCH   5  10
ENDBRANCH   1   6
BRANCH   2  17
ATOM     17  C   UNL     1       6.380   5.243  17.338  0.00  0.00    +0.000 C 
BRANCH  17  18
ATOM     18  N   UNL     1       4.988   5.065  17.809  0.00  0.00    +0.000 NA
ATOM     19  C   UNL     1       4.887   5.314  19.274  0.00  0.00    +0.000 C 
ATOM     20  C   UNL     1       3.415   5.327  19.744  0.00  0.00    +0.000 C 
ATOM     21  C   UNL     1       2.714   4.136  19.186  0.00  0.00    +0.000 A 
ATOM     22  S   UNL     1       1.216   3.587  19.763  0.00  0.00    +0.000 S 
ATOM     23  C   UNL     1       1.200   2.306  18.626  0.00  0.00    +0.000 A 
ATOM     24  C   UNL     1       2.319   2.313  17.821  0.00  0.00    +0.000 A 
ATOM     25  C   UNL     1       3.209   3.388  18.136  0.00  0.00    +0.000 A 
ATOM     26  C   UNL     1       4.539   3.682  17.494  0.00  0.00    +0.000 C 
ENDBRANCH  17  18
ENDBRANCH   2  17
TORSDOF 6
ENDMDL
MODEL 2
REMARK VINA RESULT:      -7.3      1.487      2.628
REMARK  Name = 
REMARK  8 active torsions:
REMARK  status: ('A' for Active; 'I' for Inactive)
REMARK    1  A    between atoms: C_1  and  O_2
REMARK    2  A    between atoms: O_2  and  C_3
REMARK    3  A    between atoms: C_6  and  C_7
REMARK    4  A    between atoms: N_8  and  N_9
REMARK    5  A    between atoms: C_10  and  C_12
REMARK    6  A    between atoms: C_12  and  N_13
REMARK    7  A    between atoms: C_23  and  O_24
REMARK    8  A    between atoms: O_24  and  C_25
REMARK                            x       y       z     vdW  Elec       q    Type
REMARK                         _______ _______ _______ _____ _____    ______ ____
ROOT
ATOM      1  N   UNL     1       7.389   7.440  16.813  0.00  0.00    +0.000 N 
ATOM      2  C   UNL     1       7.197   6.221  17.453  0.00  0.00    +0.000 C 
ATOM      3  O   UNL     1       7.773   5.868  18.487  0.00  0.00    +0.000 OA
ATOM      4  H   UNL     1       6.858   7.682  15.983  0.00  0.00    +0.000 HD
ENDROOT
BRANCH   1   6
ATOM      5  C   UNL     1       7.779   9.419  17.858  0.00  0.00    +0.000 C 
ATOM      6  N   UNL     1       8.269   8.335  17.354  0.00  0.00    +0.000 NA
BRANCH   5  10
ATOM      7  C   UNL     1      10.581  12.253  19.427  0.00  0.00    +0.000 A 
ATOM      8  C   UNL     1      10.130  11.182  20.217  0.00  0.00    +0.000 A 
ATOM      9  C   UNL     1       9.205  10.265  19.718  0.00  0.00    +0.000 A 
ATOM     10  C   UNL     1       8.679  10.438  18.440  0.00  0.00    +0.000 A 
ATOM     11  C   UNL     1       9.033  11.563  17.693  0.00  0.00    +0.000 A 
ATOM     12  C   UNL     1       9.981  12.483  18.178  0.00  0.00    +0.000 A 
BRANCH   7  14
ATOM     13  C   UNL     1      11.149  14.272  20.520  0.00  0.00    +0.000 C 
ATOM     14  O   UNL     1      11.585  13.072  19.872  0.00  0.00    +0.000 OA
ENDBRANCH   7  14
BRANCH  12  15
ATOM     15  O   UNL     1      10.204  13.499  17.287  0.00  0.00    +0.000 OA
ATOM     16  C   UNL     1      11.450  13.575  16.611  0.00  0.00    +0.000 C 
ENDBRANCH  12  15
ENDBRANCH   5  10
ENDBRANCH   1   6
BRANCH   2  17
ATOM     17  C   UNL     1       6.189   5.300  16.754  0.00  0.00    +0.000 C 
BRANCH  17  18
ATOM     18  N   UNL     1       5.234   4.697  17.711  0.00  0.00    +0.000 NA
ATOM     19  C   UNL     1       4.373   3.685  17.037  0.00  0.00    +0.000 C 
ATOM     20  C   UNL     1       3.511   2.909  18.056  0.00  0.00    +0.000 C 
ATOM     21  C   UNL     1       2.859   3.877  18.983  0.00  0.00    +0.000 A 
ATOM     22  S   UNL     1       1.555   3.465  19.987  0.00  0.00    +0.000 S 
ATOM     23  C   UNL     1       1.492   5.053  20.626  0.00  0.00    +0.000 A 
ATOM     24  C   UNL     1       2.459   5.871  20.081  0.00  0.00    +0.000 A 
ATOM     25  C   UNL     1       3.271   5.188  19.122  0.00  0.00    +0.000 A 
ATOM     26  C   UNL     1       4.392   5.771  18.302  0.00  0.00    +0.000 C 
ENDBRANCH  17  18
ENDBRANCH   2  17
TORSDOF 6
ENDMDL
MODEL 3
REMARK VINA RESULT:      -7.2      1.591      1.639
REMARK  Name = 
REMARK  8 active torsions:
REMARK  status: ('A' for Active; 'I' for Inactive)
REMARK    1  A    between atoms: C_1  and  O_2
REMARK    2  A    between atoms: O_2  and  C_3
REMARK    3  A    between atoms: C_6  and  C_7
REMARK    4  A    between atoms: N_8  and  N_9
REMARK    5  A    between atoms: C_10  and  C_12
REMARK    6  A    between atoms: C_12  and  N_13
REMARK    7  A    between atoms: C_23  and  O_24
REMARK    8  A    between atoms: O_24  and  C_25
REMARK                            x       y       z     vdW  Elec       q    Type
REMARK                         _______ _______ _______ _____ _____    ______ ____
ROOT
ATOM      1  N   UNL     1       7.277   6.806  17.613  0.00  0.00    +0.000 N 
ATOM      2  C   UNL     1       7.142   5.877  16.589  0.00  0.00    +0.000 C 
ATOM      3  O   UNL     1       7.403   6.091  15.401  0.00  0.00    +0.000 OA
ATOM      4  H   UNL     1       7.077   6.556  18.576  0.00  0.00    +0.000 HD
ENDROOT
BRANCH   1   6
ATOM      5  C   UNL     1       8.265   8.744  18.268  0.00  0.00    +0.000 C 
ATOM      6  N   UNL     1       7.740   8.056  17.308  0.00  0.00    +0.000 NA
BRANCH   5  10
ATOM      7  C   UNL     1       9.683  12.756  17.770  0.00  0.00    +0.000 A 
ATOM      8  C   UNL     1       8.362  12.417  17.430  0.00  0.00    +0.000 A 
ATOM      9  C   UNL     1       7.899  11.110  17.574  0.00  0.00    +0.000 A 
ATOM     10  C   UNL     1       8.767  10.112  18.010  0.00  0.00    +0.000 A 
ATOM     11  C   UNL     1      10.110  10.414  18.238  0.00  0.00    +0.000 A 
ATOM     12  C   UNL     1      10.584  11.734  18.117  0.00  0.00    +0.000 A 
BRANCH   7  14
ATOM     13  C   UNL     1       9.229  14.980  18.430  0.00  0.00    +0.000 C 
ATOM     14  O   UNL     1      10.094  14.062  17.753  0.00  0.00    +0.000 OA
ENDBRANCH   7  14
BRANCH  12  15
ATOM     15  O   UNL     1      11.920  11.824  18.404  0.00  0.00    +0.000 OA
ATOM     16  C   UNL     1      12.333  12.047  19.744  0.00  0.00    +0.000 C 
ENDBRANCH  12  15
ENDBRANCH   5  10
ENDBRANCH   1   6
BRANCH   2  17
ATOM     17  C   UNL     1       6.614   4.513  17.050  0.00  0.00    +0.000 C 
BRANCH  17  18
ATOM     18  N   UNL     1       5.240   4.606  17.594  0.00  0.00    +0.000 NA
ATOM     19  C   UNL     1       5.262   5.004  19.029  0.00  0.00    +0.000 C 
ATOM     20  C   UNL     1       3.840   5.297  19.556  0.00  0.00    +0.000 C 
ATOM     21  C   UNL     1       2.931   4.187  19.151  0.00  0.00    +0.000 A 
ATOM     22  S   UNL     1       1.401   3.942  19.842  0.00  0.00    +0.000 S 
ATOM     23  C   UNL     1       1.121   2.580  18.842  0.00  0.00    +0.000 A 
ATOM     24  C   UNL     1       2.180   2.332  17.995  0.00  0.00    +0.000 A 
ATOM     25  C   UNL     1       3.243   3.275  18.162  0.00  0.00    +0.000 A 
ATOM     26  C   UNL     1       4.564   3.290  17.440  0.00  0.00    +0.000 C 
ENDBRANCH  17  18
ENDBRANCH   2  17
TORSDOF 6
ENDMDL
MODEL 4
REMARK VINA RESULT:      -7.1      1.447      1.553
REMARK  Name = 
REMARK  8 active torsions:
REMARK  status: ('A' for Active; 'I' for Inactive)
REMARK    1  A    between atoms: C_1  and  O_2
REMARK    2  A    between atoms: O_2  and  C_3
REMARK    3  A    between atoms: C_6  and  C_7
REMARK    4  A    between atoms: N_8  and  N_9
REMARK    5  A    between atoms: C_10  and  C_12
REMARK    6  A    between atoms: C_12  and  N_13
REMARK    7  A    between atoms: C_23  and  O_24
REMARK    8  A    between atoms: O_24  and  C_25
REMARK                            x       y       z     vdW  Elec       q    Type
REMARK                         _______ _______ _______ _____ _____    ______ ____
ROOT
ATOM      1  N   UNL     1       7.481   8.240  17.441  0.00  0.00    +0.000 N 
ATOM      2  C   UNL     1       7.322   6.915  17.828  0.00  0.00    +0.000 C 
ATOM      3  O   UNL     1       7.960   6.360  18.728  0.00  0.00    +0.000 OA
ATOM      4  H   UNL     1       6.900   8.645  16.714  0.00  0.00    +0.000 HD
ENDROOT
BRANCH   1   6
ATOM      5  C   UNL     1       8.521  10.240  17.721  0.00  0.00    +0.000 C 
ATOM      6  N   UNL     1       8.401   9.010  18.097  0.00  0.00    +0.000 NA
BRANCH   5  10
ATOM      7  C   UNL     1      11.244  12.993  19.553  0.00  0.00    +0.000 A 
ATOM      8  C   UNL     1      11.497  12.486  18.267  0.00  0.00    +0.000 A 
ATOM      9  C   UNL     1      10.624  11.577  17.672  0.00  0.00    +0.000 A 
ATOM     10  C   UNL     1       9.512  11.122  18.376  0.00  0.00    +0.000 A 
ATOM     11  C   UNL     1       9.315  11.530  19.697  0.00  0.00    +0.000 A 
ATOM     12  C   UNL     1      10.178  12.463  20.300  0.00  0.00    +0.000 A 
BRANCH   7  14
ATOM     13  C   UNL     1      11.719  15.308  19.636  0.00  0.00    +0.000 C 
ATOM     14  O   UNL     1      12.031  13.983  20.080  0.00  0.00    +0.000 OA
ENDBRANCH   7  14
BRANCH  12  15
ATOM     15  O   UNL     1       9.801  12.747  21.586  0.00  0.00    +0.000 OA
ATOM     16  C   UNL     1       8.771  11.985  22.197  0.00  0.00    +0.000 C 
ENDBRANCH  12  15
ENDBRANCH   5  10
ENDBRANCH   1   6
BRANCH   2  17
ATOM     17  C   UNL     1       6.265   6.151  17.021  0.00  0.00    +0.000 C 
BRANCH  17  18
ATOM     18  N   UNL     1       5.280   5.477  17.896  0.00  0.00    +0.000 NA
ATOM     19  C   UNL     1       5.770   4.133  18.313  0.00  0.00    +0.000 C 
ATOM     20  C   UNL     1       4.849   3.502  19.380  0.00  0.00    +0.000 C 
ATOM     21  C   UNL     1       3.431   3.623  18.935  0.00  0.00    +0.000 A 
ATOM     22  S   UNL     1       2.163   2.734  19.626  0.00  0.00    +0.000 S 
ATOM     23  C   UNL     1       1.022   3.470  18.582  0.00  0.00    +0.000 A 
ATOM     24  C   UNL     1       1.610   4.381  17.732  0.00  0.00    +0.000 A 
ATOM     25  C   UNL     1       3.022   4.485  17.936  0.00  0.00    +0.000 A 
ATOM     26  C   UNL     1       3.989   5.346  17.168  0.00  0.00    +0.000 C 
ENDBRANCH  17  18
ENDBRANCH   2  17
TORSDOF 6
ENDMDL
MODEL 5
REMARK VINA RESULT:      -7.1      5.867      8.595
REMARK  Name = 
REMARK  8 active torsions:
REMARK  status: ('A' for Active; 'I' for Inactive)
REMARK    1  A    between atoms: C_1  and  O_2
REMARK    2  A    between atoms: O_2  and  C_3
REMARK    3  A    between atoms: C_6  and  C_7
REMARK    4  A    between atoms: N_8  and  N_9
REMARK    5  A    between atoms: C_10  and  C_12
REMARK    6  A    between atoms: C_12  and  N_13
REMARK    7  A    between atoms: C_23  and  O_24
REMARK    8  A    between atoms: O_24  and  C_25
REMARK                            x       y       z     vdW  Elec       q    Type
REMARK                         _______ _______ _______ _____ _____    ______ ____
ROOT
ATOM      1  N   UNL     1       1.670   8.480  18.810  0.00  0.00    +0.000 N 
ATOM      2  C   UNL     1       1.599   9.852  18.603  0.00  0.00    +0.000 C 
ATOM      3  O   UNL     1       2.264  10.476  17.772  0.00  0.00    +0.000 OA
ATOM      4  H   UNL     1       1.069   8.022  19.489  0.00  0.00    +0.000 HD
ENDROOT
BRANCH   1   6
ATOM      5  C   UNL     1       3.158   6.774  18.619  0.00  0.00    +0.000 C 
ATOM      6  N   UNL     1       2.527   7.743  18.042  0.00  0.00    +0.000 NA
BRANCH   5  10
ATOM      7  C   UNL     1       5.865   4.522  16.180  0.00  0.00    +0.000 A 
ATOM      8  C   UNL     1       4.606   3.999  16.521  0.00  0.00    +0.000 A 
ATOM      9  C   UNL     1       3.727   4.719  17.329  0.00  0.00    +0.000 A 
ATOM     10  C   UNL     1       4.116   5.951  17.849  0.00  0.00    +0.000 A 
ATOM     11  C   UNL     1       5.407   6.426  17.612  0.00  0.00    +0.000 A 
ATOM     12  C   UNL     1       6.295   5.717  16.782  0.00  0.00    +0.000 A 
BRANCH   7  14
ATOM     13  C   UNL     1       6.395   4.153  13.906  0.00  0.00    +0.000 C 
ATOM     14  O   UNL     1       6.670   3.873  15.282  0.00  0.00    +0.000 OA
ENDBRANCH   7  14
BRANCH  12  15
ATOM     15  O   UNL     1       7.499   6.360  16.659  0.00  0.00    +0.000 OA
ATOM     16  C   UNL     1       7.692   7.611  17.301  0.00  0.00    +0.000 C 
ENDBRANCH  12  15
ENDBRANCH   5  10
ENDBRANCH   1   6
BRANCH   2  17
ATOM     17  C   UNL     1       0.605  10.572  19.523  0.00  0.00    +0.000 C 
BRANCH  17  18
ATOM     18  N   UNL     1      -0.570  11.081  18.780  0.00  0.00    +0.000 NA
ATOM     19  C   UNL     1      -1.721  11.312  19.697  0.00  0.00    +0.000 C 
ATOM     20  C   UNL     1      -2.884  12.026  18.974  0.00  0.00    +0.000 C 
ATOM     21  C   UNL     1      -3.148  11.341  17.677  0.00  0.00    +0.000 A 
ATOM     22  S   UNL     1      -4.566  11.575  16.777  0.00  0.00    +0.000 S 
ATOM     23  C   UNL     1      -4.026  10.492  15.565  0.00  0.00    +0.000 A 
ATOM     24  C   UNL     1      -2.780   9.974  15.850  0.00  0.00    +0.000 A 
ATOM     25  C   UNL     1      -2.253  10.473  17.083  0.00  0.00    +0.000 A 
ATOM     26  C   UNL     1      -0.944  10.100  17.727  0.00  0.00    +0.000 C 
ENDBRANCH  17  18
ENDBRANCH   2  17
TORSDOF 6
ENDMDL
MODEL 6
REMARK VINA RESULT:      -7.1      1.644      1.676
REMARK  Name = 
REMARK  8 active torsions:
REMARK  status: ('A' for Active; 'I' for Inactive)
REMARK    1  A    between atoms: C_1  and  O_2
REMARK    2  A    between atoms: O_2  and  C_3
REMARK    3  A    between atoms: C_6  and  C_7
REMARK    4  A    between atoms: N_8  and  N_9
REMARK    5  A    between atoms: C_10  and  C_12
REMARK    6  A    between atoms: C_12  and  N_13
REMARK    7  A    between atoms: C_23  and  O_24
REMARK    8  A    between atoms: O_24  and  C_25
REMARK                            x       y       z     vdW  Elec       q    Type
REMARK                         _______ _______ _______ _____ _____    ______ ____
ROOT
ATOM      1  N   UNL     1       7.614   6.918  17.912  0.00  0.00    +0.000 N 
ATOM      2  C   UNL     1       7.462   5.706  18.573  0.00  0.00    +0.000 C 
ATOM      3  O   UNL     1       7.925   5.445  19.688  0.00  0.00    +0.000 OA
ATOM      4  H   UNL     1       7.178   7.079  17.009  0.00  0.00    +0.000 HD
ENDROOT
BRANCH   1   6
ATOM      5  C   UNL     1       8.310   9.080  17.962  0.00  0.00    +0.000 C 
ATOM      6  N   UNL     1       8.317   7.918  18.525  0.00  0.00    +0.000 NA
BRANCH   5  10
ATOM      7  C   UNL     1      10.289  12.460  19.696  0.00  0.00    +0.000 A 
ATOM      8  C   UNL     1      10.420  12.182  18.325  0.00  0.00    +0.000 A 
ATOM      9  C   UNL     1       9.793  11.073  17.757  0.00  0.00    +0.000 A 
ATOM     10  C   UNL     1       9.068  10.199  18.563  0.00  0.00    +0.000 A 
ATOM     11  C   UNL     1       9.029  10.403  19.944  0.00  0.00    +0.000 A 
ATOM     12  C   UNL     1       9.641  11.529  20.525  0.00  0.00    +0.000 A 
BRANCH   7  14
ATOM     13  C   UNL     1      12.076  14.009  19.715  0.00  0.00    +0.000 C 
ATOM     14  O   UNL     1      10.796  13.619  20.223  0.00  0.00    +0.000 OA
ENDBRANCH   7  14
BRANCH  12  15
ATOM     15  O   UNL     1       9.470  11.556  21.883  0.00  0.00    +0.000 OA
ATOM     16  C   UNL     1       8.186  11.833  22.421  0.00  0.00    +0.000 C 
ENDBRANCH  12  15
ENDBRANCH   5  10
ENDBRANCH   1   6
BRANCH   2  17
ATOM     17  C   UNL     1       6.658   4.662  17.787  0.00  0.00    +0.000 C 
BRANCH  17  18
ATOM     18  N   UNL     1       5.233   4.641  18.192  0.00  0.00    +0.000 NA
ATOM     19  C   UNL     1       4.789   5.988  18.647  0.00  0.00    +0.000 C 
ATOM     20  C   UNL     1       3.264   6.030  18.883  0.00  0.00    +0.000 C 
ATOM     21  C   UNL     1       2.864   4.848  19.699  0.00  0.00    +0.000 A 
ATOM     22  S   UNL     1       1.365   4.728  20.484  0.00  0.00    +0.000 S 
ATOM     23  C   UNL     1       1.764   3.179  21.099  0.00  0.00    +0.000 A 
ATOM     24  C   UNL     1       3.017   2.770  20.698  0.00  0.00    +0.000 A 
ATOM     25  C   UNL     1       3.667   3.738  19.869  0.00  0.00    +0.000 A 
ATOM     26  C   UNL     1       5.052   3.648  19.284  0.00  0.00    +0.000 C 
ENDBRANCH  17  18
ENDBRANCH   2  17
TORSDOF 6
ENDMDL
MODEL 7
REMARK VINA RESULT:      -7.0      5.837      8.326
REMARK  Name = 
REMARK  8 active torsions:
REMARK  status: ('A' for Active; 'I' for Inactive)
REMARK    1  A    between atoms: C_1  and  O_2
REMARK    2  A    between atoms: O_2  and  C_3
REMARK    3  A    between atoms: C_6  and  C_7
REMARK    4  A    between atoms: N_8  and  N_9
REMARK    5  A    between atoms: C_10  and  C_12
REMARK    6  A    between atoms: C_12  and  N_13
REMARK    7  A    between atoms: C_23  and  O_24
REMARK    8  A    between atoms: O_24  and  C_25
REMARK                            x       y       z     vdW  Elec       q    Type
REMARK                         _______ _______ _______ _____ _____    ______ ____
ROOT
ATOM      1  N   UNL     1       2.097   6.151  20.785  0.00  0.00    +0.000 N 
ATOM      2  C   UNL     1       1.732   4.836  20.523  0.00  0.00    +0.000 C 
ATOM      3  O   UNL     1       0.580   4.396  20.586  0.00  0.00    +0.000 OA
ATOM      4  H   UNL     1       3.060   6.456  20.683  0.00  0.00    +0.000 HD
ENDROOT
BRANCH   1   6
ATOM      5  C   UNL     1       1.429   8.300  21.092  0.00  0.00    +0.000 C 
ATOM      6  N   UNL     1       1.123   7.046  21.132  0.00  0.00    +0.000 NA
BRANCH   5  10
ATOM      7  C   UNL     1      -1.277  11.412  22.249  0.00  0.00    +0.000 A 
ATOM      8  C   UNL     1      -0.941  10.387  23.148  0.00  0.00    +0.000 A 
ATOM      9  C   UNL     1      -0.075   9.361  22.772  0.00  0.00    +0.000 A 
ATOM     10  C   UNL     1       0.428   9.319  21.474  0.00  0.00    +0.000 A 
ATOM     11  C   UNL     1       0.009  10.268  20.539  0.00  0.00    +0.000 A 
ATOM     12  C   UNL     1      -0.849  11.319  20.913  0.00  0.00    +0.000 A 
BRANCH   7  14
ATOM     13  C   UNL     1      -1.276  13.539  23.282  0.00  0.00    +0.000 C 
ATOM     14  O   UNL     1      -2.021  12.486  22.662  0.00  0.00    +0.000 OA
ENDBRANCH   7  14
BRANCH  12  15
ATOM     15  O   UNL     1      -1.121  12.152  19.860  0.00  0.00    +0.000 OA
ATOM     16  C   UNL     1      -1.910  11.679  18.780  0.00  0.00    +0.000 C 
ENDBRANCH  12  15
ENDBRANCH   5  10
ENDBRANCH   1   6
BRANCH   2  17
ATOM     17  C   UNL     1       2.908   3.925  20.147  0.00  0.00    +0.000 C 
BRANCH  17  18
ATOM     18  N   UNL     1       3.598   4.389  18.922  0.00  0.00    +0.000 NA
ATOM     19  C   UNL     1       3.840   3.256  17.986  0.00  0.00    +0.000 C 
ATOM     20  C   UNL     1       4.378   3.753  16.626  0.00  0.00    +0.000 C 
ATOM     21  C   UNL     1       5.492   4.715  16.863  0.00  0.00    +0.000 A 
ATOM     22  S   UNL     1       6.582   5.188  15.652  0.00  0.00    +0.000 S 
ATOM     23  C   UNL     1       7.413   6.214  16.744  0.00  0.00    +0.000 A 
ATOM     24  C   UNL     1       6.853   6.193  18.003  0.00  0.00    +0.000 A 
ATOM     25  C   UNL     1       5.720   5.323  18.081  0.00  0.00    +0.000 A 
ATOM     26  C   UNL     1       4.890   5.023  19.300  0.00  0.00    +0.000 C 
ENDBRANCH  17  18
ENDBRANCH   2  17
TORSDOF 6
ENDMDL
MODEL 8
REMARK VINA RESULT:      -7.0      1.308      1.426
REMARK  Name = 
REMARK  8 active torsions:
REMARK  status: ('A' for Active; 'I' for Inactive)
REMARK    1  A    between atoms: C_1  and  O_2
REMARK    2  A    between atoms: O_2  and  C_3
REMARK    3  A    between atoms: C_6  and  C_7
REMARK    4  A    between atoms: N_8  and  N_9
REMARK    5  A    between atoms: C_10  and  C_12
REMARK    6  A    between atoms: C_12  and  N_13
REMARK    7  A    between atoms: C_23  and  O_24
REMARK    8  A    between atoms: O_24  and  C_25
REMARK                            x       y       z     vdW  Elec       q    Type
REMARK                         _______ _______ _______ _____ _____    ______ ____
ROOT
ATOM      1  N   UNL     1       8.245   7.953  18.754  0.00  0.00    +0.000 N 
ATOM      2  C   UNL     1       7.666   7.144  17.784  0.00  0.00    +0.000 C 
ATOM      3  O   UNL     1       7.458   7.482  16.615  0.00  0.00    +0.000 OA
ATOM      4  H   UNL     1       8.419   7.603  19.691  0.00  0.00    +0.000 HD
ENDROOT
BRANCH   1   6
ATOM      5  C   UNL     1       9.193   9.937  19.324  0.00  0.00    +0.000 C 
ATOM      6  N   UNL     1       8.628   9.220  18.411  0.00  0.00    +0.000 NA
BRANCH   5  10
ATOM      7  C   UNL     1      10.174  13.995  18.365  0.00  0.00    +0.000 A 
ATOM      8  C   UNL     1      10.537  12.949  17.500  0.00  0.00    +0.000 A 
ATOM      9  C   UNL     1      10.236  11.624  17.815  0.00  0.00    +0.000 A 
ATOM     10  C   UNL     1       9.614  11.323  19.024  0.00  0.00    +0.000 A 
ATOM     11  C   UNL     1       9.354  12.343  19.941  0.00  0.00    +0.000 A 
ATOM     12  C   UNL     1       9.635  13.686  19.625  0.00  0.00    +0.000 A 
BRANCH   7  14
ATOM     13  C   UNL     1       9.157  15.996  17.623  0.00  0.00    +0.000 C 
ATOM     14  O   UNL     1      10.353  15.301  17.992  0.00  0.00    +0.000 OA
ENDBRANCH   7  14
BRANCH  12  15
ATOM     15  O   UNL     1       9.287  14.531  20.646  0.00  0.00    +0.000 OA
ATOM     16  C   UNL     1       8.047  14.350  21.312  0.00  0.00    +0.000 C 
ENDBRANCH  12  15
ENDBRANCH   5  10
ENDBRANCH   1   6
BRANCH   2  17
ATOM     17  C   UNL     1       7.276   5.749  18.286  0.00  0.00    +0.000 C 
BRANCH  17  18
ATOM     18  N   UNL     1       5.903   5.376  17.877  0.00  0.00    +0.000 NA
ATOM     19  C   UNL     1       4.909   6.361  18.391  0.00  0.00    +0.000 C 
ATOM     20  C   UNL     1       3.503   6.098  17.810  0.00  0.00    +0.000 C 
ATOM     21  C   UNL     1       3.183   4.648  17.940  0.00  0.00    +0.000 A 
ATOM     22  S   UNL     1       1.614   4.025  17.774  0.00  0.00    +0.000 S 
ATOM     23  C   UNL     1       2.172   2.430  18.050  0.00  0.00    +0.000 A 
ATOM     24  C   UNL     1       3.535   2.386  18.255  0.00  0.00    +0.000 A 
ATOM     25  C   UNL     1       4.138   3.681  18.184  0.00  0.00    +0.000 A 
ATOM     26  C   UNL     1       5.590   4.018  18.396  0.00  0.00    +0.000 C 
ENDBRANCH  17  18
ENDBRANCH   2  17
TORSDOF 6
ENDMDL
MODEL 9
REMARK VINA RESULT:      -7.0      1.479      2.077
REMARK  Name = 
REMARK  8 active torsions:
REMARK  status: ('A' for Active; 'I' for Inactive)
REMARK    1  A    between atoms: C_1  and  O_2
REMARK    2  A    between atoms: O_2  and  C_3
REMARK    3  A    between atoms: C_6  and  C_7
REMARK    4  A    between atoms: N_8  and  N_9
REMARK    5  A    between atoms: C_10  and  C_12
REMARK    6  A    between atoms: C_12  and  N_13
REMARK    7  A    between atoms: C_23  and  O_24
REMARK    8  A    between atoms: O_24  and  C_25
REMARK                            x       y       z     vdW  Elec       q    Type
REMARK                         _______ _______ _______ _____ _____    ______ ____
ROOT
ATOM      1  N   UNL     1       8.154   7.238  18.497  0.00  0.00    +0.000 N 
ATOM      2  C   UNL     1       7.563   6.363  17.594  0.00  0.00    +0.000 C 
ATOM      3  O   UNL     1       7.086   6.688  16.502  0.00  0.00    +0.000 OA
ATOM      4  H   UNL     1       8.558   6.900  19.364  0.00  0.00    +0.000 HD
ENDROOT
BRANCH   1   6
ATOM      5  C   UNL     1       9.024   9.302  18.876  0.00  0.00    +0.000 C 
ATOM      6  N   UNL     1       8.232   8.564  18.171  0.00  0.00    +0.000 NA
BRANCH   5  10
ATOM      7  C   UNL     1       9.202  13.535  18.244  0.00  0.00    +0.000 A 
ATOM      8  C   UNL     1       8.345  12.733  17.472  0.00  0.00    +0.000 A 
ATOM      9  C   UNL     1       8.294  11.352  17.660  0.00  0.00    +0.000 A 
ATOM     10  C   UNL     1       9.139  10.749  18.589  0.00  0.00    +0.000 A 
ATOM     11  C   UNL     1      10.075  11.522  19.277  0.00  0.00    +0.000 A 
ATOM     12  C   UNL     1      10.121  12.918  19.110  0.00  0.00    +0.000 A 
BRANCH   7  14
ATOM     13  C   UNL     1       8.254  15.542  19.059  0.00  0.00    +0.000 C 
ATOM     14  O   UNL     1       9.153  14.901  18.148  0.00  0.00    +0.000 OA
ENDBRANCH   7  14
BRANCH  12  15
ATOM     15  O   UNL     1      11.091  13.493  19.888  0.00  0.00    +0.000 OA
ATOM     16  C   UNL     1      12.333  13.853  19.305  0.00  0.00    +0.000 C 
ENDBRANCH  12  15
ENDBRANCH   5  10
ENDBRANCH   1   6
BRANCH   2  17
ATOM     17  C   UNL     1       7.532   4.904  18.068  0.00  0.00    +0.000 C 
BRANCH  17  18
ATOM     18  N   UNL     1       6.147   4.411  18.251  0.00  0.00    +0.000 NA
ATOM     19  C   UNL     1       5.444   4.302  16.942  0.00  0.00    +0.000 C 
ATOM     20  C   UNL     1       4.074   3.606  17.093  0.00  0.00    +0.000 C 
ATOM     21  C   UNL     1       3.338   4.219  18.235  0.00  0.00    +0.000 A 
ATOM     22  S   UNL     1       1.675   4.003  18.489  0.00  0.00    +0.000 S 
ATOM     23  C   UNL     1       1.721   4.975  19.899  0.00  0.00    +0.000 A 
ATOM     24  C   UNL     1       2.990   5.443  20.164  0.00  0.00    +0.000 A 
ATOM     25  C   UNL     1       3.948   4.998  19.199  0.00  0.00    +0.000 A 
ATOM     26  C   UNL     1       5.413   5.341  19.149  0.00  0.00    +0.000 C 
ENDBRANCH  17  18
ENDBRANCH   2  17
TORSDOF 6
ENDMDL
