MODEL 1
REMARK VINA RESULT:      -8.2      0.000      0.000
REMARK  Name = 
REMARK  5 active torsions:
REMARK  status: ('A' for Active; 'I' for Inactive)
REMARK    1  A    between atoms: C_2  and  O_3
REMARK    2  A    between atoms: C_2  and  C_4
REMARK    3  A    between atoms: C_7  and  C_9
REMARK    4  A    between atoms: C_12  and  O_13
REMARK    5  A    between atoms: C_17  and  C_18
REMARK                            x       y       z     vdW  Elec       q    Type
REMARK                         _______ _______ _______ _____ _____    ______ ____
ROOT
ATOM      1  C   UNL     1       6.009   5.936  16.547  0.00  0.00    +0.000 C 
ATOM      2  C   UNL     1       5.056   5.910  17.726  0.00  0.00    +0.000 C 
ATOM      3  N   UNL     1       4.028   4.957  17.347  0.00  0.00    +0.000 N 
ATOM      4  C   UNL     1       2.704   4.894  17.766  0.00  0.00    +0.000 C 
ATOM      5  O   UNL     1       1.899   4.115  17.261  0.00  0.00    +0.000 OA
ATOM      6  C   UNL     1       4.546   4.006  16.373  0.00  0.00    +0.000 C 
ATOM      7  C   UNL     1       5.977   4.481  16.046  0.00  0.00    +0.000 C 
ENDROOT
BRANCH   7   8
ATOM      8  C   UNL     1       6.339   4.357  14.583  0.00  0.00    +0.000 A 
ATOM      9  C   UNL     1       7.398   5.090  14.018  0.00  0.00    +0.000 A 
ATOM     10  C   UNL     1       7.715   4.968  12.665  0.00  0.00    +0.000 A 
ATOM     11  C   UNL     1       6.975   4.110  11.854  0.00  0.00    +0.000 A 
ATOM     12  C   UNL     1       5.928   3.383  12.406  0.00  0.00    +0.000 A 
ATOM     13  F   UNL     1       5.211   2.564  11.623  0.00  0.00    +0.000 F 
ATOM     14  C   UNL     1       5.608   3.493  13.756  0.00  0.00    +0.000 A 
ENDBRANCH   7   8
BRANCH   4  15
ATOM     15  C   UNL     1       2.219   5.833  18.819  0.00  0.00    +0.000 A 
ATOM     16  C   UNL     1       2.169   7.207  18.534  0.00  0.00    +0.000 A 
ATOM     17  C   UNL     1       1.787   8.121  19.522  0.00  0.00    +0.000 A 
ATOM     18  C   UNL     1       1.469   7.658  20.795  0.00  0.00    +0.000 A 
ATOM     19  C   UNL     1       1.469   6.299  21.080  0.00  0.00    +0.000 A 
ATOM     20  C   UNL     1       1.803   5.388  20.080  0.00  0.00    +0.000 A 
BRANCH  18  21
ATOM     21  O   UNL     1       1.134   8.507  21.808  0.00  0.00    +0.000 OA
ATOM     22  H   UNL     1       1.739   9.266  21.792  0.00  0.00    +0.000 HD
ENDBRANCH  18  21
ENDBRANCH   4  15
BRANCH   1  24
ATOM     23  O   UNL     1       7.920   7.404  16.689  0.00  0.00    +0.000 OA
ATOM     24  C   UNL     1       7.373   6.363  17.023  0.00  0.00    +0.000 C 
BRANCH  24  25
ATOM     25  O   UNL     1       7.979   5.464  17.828  0.00  0.00    +0.000 OA
ATOM     26  H   UNL     1       7.658   4.546  17.751  0.00  0.00    +0.000 HD
ENDBRANCH  24  25
ENDBRANCH   1  24
TORSDOF 5
ENDMDL
MODEL 2
REMARK VINA RESULT:      -7.9      2.826      4.393
REMARK  Name = 
REMARK  5 active torsions:
REMARK  status: ('A' for Active; 'I' for Inactive)
REMARK    1  A    between atoms: C_2  and  O_3
REMARK    2  A    between atoms: C_2  and  C_4
REMARK    3  A    between atoms: C_7  and  C_9
REMARK    4  A    between atoms: C_12  and  O_13
REMARK    5  A    between atoms: C_17  and  C_18
REMARK                            x       y       z     vdW  Elec       q    Type
REMARK                         _______ _______ _______ _____ _____    ______ ____
ROOT
ATOM      1  C   UNL     1       3.278   5.397  19.704  0.00  0.00    +0.000 C 
ATOM      2  C   UNL     1       2.128   6.348  19.975  0.00  0.00    +0.000 C 
ATOM      3  N   UNL     1       2.248   7.371  18.951  0.00  0.00    +0.000 N 
ATOM      4  C   UNL     1       1.822   8.693  18.989  0.00  0.00    +0.000 C 
ATOM      5  O   UNL     1       2.110   9.495  18.104  0.00  0.00    +0.000 OA
ATOM      6  C   UNL     1       2.950   6.849  17.786  0.00  0.00    +0.000 C 
ATOM      7  C   UNL     1       3.391   5.422  18.170  0.00  0.00    +0.000 C 
ENDROOT
BRANCH   7   8
ATOM      8  C   UNL     1       4.776   5.061  17.680  0.00  0.00    +0.000 A 
ATOM      9  C   UNL     1       5.922   5.301  18.458  0.00  0.00    +0.000 A 
ATOM     10  C   UNL     1       7.193   4.968  17.988  0.00  0.00    +0.000 A 
ATOM     11  C   UNL     1       7.337   4.390  16.728  0.00  0.00    +0.000 A 
ATOM     12  C   UNL     1       6.208   4.150  15.954  0.00  0.00    +0.000 A 
ATOM     13  F   UNL     1       6.348   3.602  14.739  0.00  0.00    +0.000 F 
ATOM     14  C   UNL     1       4.936   4.474  16.417  0.00  0.00    +0.000 A 
ENDBRANCH   7   8
BRANCH   4  15
ATOM     15  C   UNL     1       1.041   9.183  20.163  0.00  0.00    +0.000 A 
ATOM     16  C   UNL     1       0.021  10.124  19.955  0.00  0.00    +0.000 A 
ATOM     17  C   UNL     1      -0.682  10.657  21.041  0.00  0.00    +0.000 A 
ATOM     18  C   UNL     1      -0.352  10.254  22.332  0.00  0.00    +0.000 A 
ATOM     19  C   UNL     1       0.622   9.291  22.551  0.00  0.00    +0.000 A 
ATOM     20  C   UNL     1       1.287   8.727  21.464  0.00  0.00    +0.000 A 
BRANCH  18  21
ATOM     21  O   UNL     1      -0.973  10.774  23.429  0.00  0.00    +0.000 OA
ATOM     22  H   UNL     1      -1.526  10.085  23.832  0.00  0.00    +0.000 HD
ENDBRANCH  18  21
ENDBRANCH   4  15
BRANCH   1  24
ATOM     23  O   UNL     1       3.159   2.987  19.661  0.00  0.00    +0.000 OA
ATOM     24  C   UNL     1       2.931   4.035  20.246  0.00  0.00    +0.000 C 
BRANCH  24  25
ATOM     25  O   UNL     1       2.291   4.065  21.435  0.00  0.00    +0.000 OA
ATOM     26  H   UNL     1       2.566   4.777  22.043  0.00  0.00    +0.000 HD
ENDBRANCH  24  25
ENDBRANCH   1  24
TORSDOF 5
ENDMDL
MODEL 3
REMARK VINA RESULT:      -7.9      0.984      1.390
REMARK  Name = 
REMARK  5 active torsions:
REMARK  status: ('A' for Active; 'I' for Inactive)
REMARK    1  A    between atoms: C_2  and  O_3
REMARK    2  A    between atoms: C_2  and  C_4
REMARK    3  A    between atoms: C_7  and  C_9
REMARK    4  A    between atoms: C_12  and  O_13
REMARK    5  A    between atoms: C_17  and  C_18
REMARK                            x       y       z     vdW  Elec       q    Type
REMARK                         _______ _______ _______ _____ _____    ______ ____
ROOT
ATOM      1  C   UNL     1       5.992   5.911  16.624  0.00  0.00    +0.000 C 
ATOM      2  C   UNL     1       5.026   5.897  17.792  0.00  0.00    +0.000 C 
ATOM      3  N   UNL     1       3.969   4.987  17.384  0.00  0.00    +0.000 N 
ATOM      4  C   UNL     1       2.639   4.963  17.789  0.00  0.00    +0.000 C 
ATOM      5  O   UNL     1       1.813   4.223  17.260  0.00  0.00    +0.000 OA
ATOM      6  C   UNL     1       4.464   4.038  16.398  0.00  0.00    +0.000 C 
ATOM      7  C   UNL     1       5.914   4.468  16.095  0.00  0.00    +0.000 C 
ENDROOT
BRANCH   7   8
ATOM      8  C   UNL     1       6.288   4.360  14.633  0.00  0.00    +0.000 A 
ATOM      9  C   UNL     1       5.649   3.451  13.771  0.00  0.00    +0.000 A 
ATOM     10  C   UNL     1       6.010   3.359  12.427  0.00  0.00    +0.000 A 
ATOM     11  C   UNL     1       7.020   4.178  11.923  0.00  0.00    +0.000 A 
ATOM     12  C   UNL     1       7.655   5.078  12.769  0.00  0.00    +0.000 A 
ATOM     13  F   UNL     1       8.631   5.859  12.286  0.00  0.00    +0.000 F 
ATOM     14  C   UNL     1       7.297   5.181  14.110  0.00  0.00    +0.000 A 
ENDBRANCH   7   8
BRANCH   4  15
ATOM     15  C   UNL     1       2.175   5.899  18.855  0.00  0.00    +0.000 A 
ATOM     16  C   UNL     1       2.132   7.274  18.579  0.00  0.00    +0.000 A 
ATOM     17  C   UNL     1       1.771   8.185  19.579  0.00  0.00    +0.000 A 
ATOM     18  C   UNL     1       1.467   7.715  20.853  0.00  0.00    +0.000 A 
ATOM     19  C   UNL     1       1.461   6.355  21.129  0.00  0.00    +0.000 A 
ATOM     20  C   UNL     1       1.774   5.448  20.118  0.00  0.00    +0.000 A 
BRANCH  18  21
ATOM     21  O   UNL     1       1.153   8.560  21.876  0.00  0.00    +0.000 OA
ATOM     22  H   UNL     1       1.769   8.405  22.610  0.00  0.00    +0.000 HD
ENDBRANCH  18  21
ENDBRANCH   4  15
BRANCH   1  24
ATOM     23  O   UNL     1       7.915   7.346  16.885  0.00  0.00    +0.000 OA
ATOM     24  C   UNL     1       7.364   6.281  17.122  0.00  0.00    +0.000 C 
BRANCH  24  25
ATOM     25  O   UNL     1       7.973   5.303  17.827  0.00  0.00    +0.000 OA
ATOM     26  H   UNL     1       7.957   5.410  18.796  0.00  0.00    +0.000 HD
ENDBRANCH  24  25
ENDBRANCH   1  24
TORSDOF 5
ENDMDL
MODEL 4
REMARK VINA RESULT:      -7.9      3.267      4.802
REMARK  Name = 
REMARK  5 active torsions:
REMARK  status: ('A' for Active; 'I' for Inactive)
REMARK    1  A    between atoms: C_2  and  O_3
REMARK    2  A    between atoms: C_2  and  C_4
REMARK    3  A    between atoms: C_7  and  C_9
REMARK    4  A    between atoms: C_12  and  O_13
REMARK    5  A    between atoms: C_17  and  C_18
REMARK                            x       y       z     vdW  Elec       q    Type
REMARK                         _______ _______ _______ _____ _____    ______ ____
ROOT
ATOM      1  C   UNL     1       3.229   5.488  19.744  0.00  0.00    +0.000 C 
ATOM      2  C   UNL     1       2.077   6.440  20.003  0.00  0.00    +0.000 C 
ATOM      3  N   UNL     1       2.215   7.470  18.988  0.00  0.00    +0.000 N 
ATOM      4  C   UNL     1       1.792   8.793  19.029  0.00  0.00    +0.000 C 
ATOM      5  O   UNL     1       2.095   9.600  18.153  0.00  0.00    +0.000 OA
ATOM      6  C   UNL     1       2.933   6.954  17.831  0.00  0.00    +0.000 C 
ATOM      7  C   UNL     1       3.365   5.523  18.212  0.00  0.00    +0.000 C 
ENDROOT
BRANCH   7   8
ATOM      8  C   UNL     1       4.756   5.162  17.740  0.00  0.00    +0.000 A 
ATOM      9  C   UNL     1       4.977   4.524  16.506  0.00  0.00    +0.000 A 
ATOM     10  C   UNL     1       6.266   4.193  16.089  0.00  0.00    +0.000 A 
ATOM     11  C   UNL     1       7.357   4.494  16.902  0.00  0.00    +0.000 A 
ATOM     12  C   UNL     1       7.146   5.125  18.121  0.00  0.00    +0.000 A 
ATOM     13  F   UNL     1       8.195   5.408  18.906  0.00  0.00    +0.000 F 
ATOM     14  C   UNL     1       5.864   5.465  18.544  0.00  0.00    +0.000 A 
ENDBRANCH   7   8
BRANCH   4  15
ATOM     15  C   UNL     1       0.995   9.277  20.195  0.00  0.00    +0.000 A 
ATOM     16  C   UNL     1      -0.008  10.235  19.980  0.00  0.00    +0.000 A 
ATOM     17  C   UNL     1      -0.724  10.763  21.060  0.00  0.00    +0.000 A 
ATOM     18  C   UNL     1      -0.426  10.337  22.351  0.00  0.00    +0.000 A 
ATOM     19  C   UNL     1       0.531   9.357  22.575  0.00  0.00    +0.000 A 
ATOM     20  C   UNL     1       1.209   8.800  21.493  0.00  0.00    +0.000 A 
BRANCH  18  21
ATOM     21  O   UNL     1      -1.060  10.850  23.443  0.00  0.00    +0.000 OA
ATOM     22  H   UNL     1      -1.873  10.343  23.600  0.00  0.00    +0.000 HD
ENDBRANCH  18  21
ENDBRANCH   4  15
BRANCH   1  24
ATOM     23  O   UNL     1       3.072   3.081  19.667  0.00  0.00    +0.000 OA
ATOM     24  C   UNL     1       2.870   4.124  20.271  0.00  0.00    +0.000 C 
BRANCH  24  25
ATOM     25  O   UNL     1       2.252   4.146  21.472  0.00  0.00    +0.000 OA
ATOM     26  H   UNL     1       2.557   4.835  22.091  0.00  0.00    +0.000 HD
ENDBRANCH  24  25
ENDBRANCH   1  24
TORSDOF 5
ENDMDL
MODEL 5
REMARK VINA RESULT:      -7.8      1.087      1.766
REMARK  Name = 
REMARK  5 active torsions:
REMARK  status: ('A' for Active; 'I' for Inactive)
REMARK    1  A    between atoms: C_2  and  O_3
REMARK    2  A    between atoms: C_2  and  C_4
REMARK    3  A    between atoms: C_7  and  C_9
REMARK    4  A    between atoms: C_12  and  O_13
REMARK    5  A    between atoms: C_17  and  C_18
REMARK                            x       y       z     vdW  Elec       q    Type
REMARK                         _______ _______ _______ _____ _____    ______ ____
ROOT
ATOM      1  C   UNL     1       5.953   6.225  16.734  0.00  0.00    +0.000 C 
ATOM      2  C   UNL     1       4.996   6.318  17.907  0.00  0.00    +0.000 C 
ATOM      3  N   UNL     1       3.917   5.405  17.575  0.00  0.00    +0.000 N 
ATOM      4  C   UNL     1       2.590   5.440  17.989  0.00  0.00    +0.000 C 
ATOM      5  O   UNL     1       1.743   4.682  17.522  0.00  0.00    +0.000 OA
ATOM      6  C   UNL     1       4.382   4.375  16.657  0.00  0.00    +0.000 C 
ATOM      7  C   UNL     1       5.839   4.750  16.314  0.00  0.00    +0.000 C 
ENDROOT
BRANCH   7   8
ATOM      8  C   UNL     1       6.197   4.525  14.861  0.00  0.00    +0.000 A 
ATOM      9  C   UNL     1       5.487   3.619  14.055  0.00  0.00    +0.000 A 
ATOM     10  C   UNL     1       5.835   3.420  12.718  0.00  0.00    +0.000 A 
ATOM     11  C   UNL     1       6.903   4.125  12.168  0.00  0.00    +0.000 A 
ATOM     12  C   UNL     1       7.609   5.023  12.959  0.00  0.00    +0.000 A 
ATOM     13  F   UNL     1       8.641   5.695  12.431  0.00  0.00    +0.000 F 
ATOM     14  C   UNL     1       7.266   5.233  14.291  0.00  0.00    +0.000 A 
ENDBRANCH   7   8
BRANCH   4  15
ATOM     15  C   UNL     1       2.156   6.462  18.987  0.00  0.00    +0.000 A 
ATOM     16  C   UNL     1       1.849   6.048  20.292  0.00  0.00    +0.000 A 
ATOM     17  C   UNL     1       1.370   6.969  21.232  0.00  0.00    +0.000 A 
ATOM     18  C   UNL     1       1.189   8.296  20.856  0.00  0.00    +0.000 A 
ATOM     19  C   UNL     1       1.530   8.730  19.583  0.00  0.00    +0.000 A 
ATOM     20  C   UNL     1       2.052   7.820  18.665  0.00  0.00    +0.000 A 
BRANCH  18  21
ATOM     21  O   UNL     1       0.683   9.225  21.716  0.00  0.00    +0.000 OA
ATOM     22  H   UNL     1       0.839   8.927  22.627  0.00  0.00    +0.000 HD
ENDBRANCH  18  21
ENDBRANCH   4  15
BRANCH   1  24
ATOM     23  O   UNL     1       7.867   7.677  16.963  0.00  0.00    +0.000 OA
ATOM     24  C   UNL     1       7.337   6.600  17.194  0.00  0.00    +0.000 C 
BRANCH  24  25
ATOM     25  O   UNL     1       7.980   5.614  17.856  0.00  0.00    +0.000 OA
ATOM     26  H   UNL     1       7.408   4.982  18.330  0.00  0.00    +0.000 HD
ENDBRANCH  24  25
ENDBRANCH   1  24
TORSDOF 5
ENDMDL
MODEL 6
REMARK VINA RESULT:      -7.7      4.734      8.730
REMARK  Name = 
REMARK  5 active torsions:
REMARK  status: ('A' for Active; 'I' for Inactive)
REMARK    1  A    between atoms: C_2  and  O_3
REMARK    2  A    between atoms: C_2  and  C_4
REMARK    3  A    between atoms: C_7  and  C_9
REMARK    4  A    between atoms: C_12  and  O_13
REMARK    5  A    between atoms: C_17  and  C_18
REMARK                            x       y       z     vdW  Elec       q    Type
REMARK                         _______ _______ _______ _____ _____    ______ ____
ROOT
ATOM      1  C   UNL     1       0.340   8.824  20.816  0.00  0.00    +0.000 C 
ATOM      2  C   UNL     1       1.597   8.033  20.512  0.00  0.00    +0.000 C 
ATOM      3  N   UNL     1       1.917   8.365  19.134  0.00  0.00    +0.000 N 
ATOM      4  C   UNL     1       2.613   7.610  18.198  0.00  0.00    +0.000 C 
ATOM      5  O   UNL     1       2.696   7.951  17.020  0.00  0.00    +0.000 OA
ATOM      6  C   UNL     1       1.362   9.663  18.780  0.00  0.00    +0.000 C 
ATOM      7  C   UNL     1       0.543  10.116  20.005  0.00  0.00    +0.000 C 
ENDROOT
BRANCH   7   8
ATOM      8  C   UNL     1      -0.762  10.794  19.648  0.00  0.00    +0.000 A 
ATOM      9  C   UNL     1      -1.278  11.855  20.413  0.00  0.00    +0.000 A 
ATOM     10  C   UNL     1      -2.486  12.465  20.073  0.00  0.00    +0.000 A 
ATOM     11  C   UNL     1      -3.198  12.021  18.961  0.00  0.00    +0.000 A 
ATOM     12  C   UNL     1      -2.693  10.974  18.200  0.00  0.00    +0.000 A 
ATOM     13  F   UNL     1      -3.382  10.542  17.135  0.00  0.00    +0.000 F 
ATOM     14  C   UNL     1      -1.486  10.363  18.528  0.00  0.00    +0.000 A 
ENDBRANCH   7   8
BRANCH   4  15
ATOM     15  C   UNL     1       3.235   6.316  18.608  0.00  0.00    +0.000 A 
ATOM     16  C   UNL     1       4.619   6.270  18.834  0.00  0.00    +0.000 A 
ATOM     17  C   UNL     1       5.244   5.059  19.150  0.00  0.00    +0.000 A 
ATOM     18  C   UNL     1       4.482   3.896  19.224  0.00  0.00    +0.000 A 
ATOM     19  C   UNL     1       3.107   3.933  19.047  0.00  0.00    +0.000 A 
ATOM     20  C   UNL     1       2.481   5.150  18.781  0.00  0.00    +0.000 A 
BRANCH  18  21
ATOM     21  O   UNL     1       5.045   2.682  19.482  0.00  0.00    +0.000 OA
ATOM     22  H   UNL     1       5.973   2.814  19.737  0.00  0.00    +0.000 HD
ENDBRANCH  18  21
ENDBRANCH   4  15
BRANCH   1  24
ATOM     23  O   UNL     1       1.132   9.614  22.955  0.00  0.00    +0.000 OA
ATOM     24  C   UNL     1       0.256   9.068  22.300  0.00  0.00    +0.000 C 
BRANCH  24  25
ATOM     25  O   UNL     1      -0.867   8.584  22.872  0.00  0.00    +0.000 OA
ATOM     26  H   UNL     1      -1.277   9.157  23.547  0.00  0.00    +0.000 HD
ENDBRANCH  24  25
ENDBRANCH   1  24
TORSDOF 5
ENDMDL
MODEL 7
REMARK VINA RESULT:      -7.7      2.854      4.503
REMARK  Name = 
REMARK  5 active torsions:
REMARK  status: ('A' for Active; 'I' for Inactive)
REMARK    1  A    between atoms: C_2  and  O_3
REMARK    2  A    between atoms: C_2  and  C_4
REMARK    3  A    between atoms: C_7  and  C_9
REMARK    4  A    between atoms: C_12  and  O_13
REMARK    5  A    between atoms: C_17  and  C_18
REMARK                            x       y       z     vdW  Elec       q    Type
REMARK                         _______ _______ _______ _____ _____    ______ ____
ROOT
ATOM      1  C   UNL     1       3.264   5.512  19.709  0.00  0.00    +0.000 C 
ATOM      2  C   UNL     1       2.120   6.474  19.966  0.00  0.00    +0.000 C 
ATOM      3  N   UNL     1       2.248   7.483  18.929  0.00  0.00    +0.000 N 
ATOM      4  C   UNL     1       1.832   8.809  18.950  0.00  0.00    +0.000 C 
ATOM      5  O   UNL     1       2.125   9.597  18.054  0.00  0.00    +0.000 OA
ATOM      6  C   UNL     1       2.947   6.941  17.772  0.00  0.00    +0.000 C 
ATOM      7  C   UNL     1       3.378   5.516  18.174  0.00  0.00    +0.000 C 
ENDROOT
BRANCH   7   8
ATOM      8  C   UNL     1       4.761   5.140  17.689  0.00  0.00    +0.000 A 
ATOM      9  C   UNL     1       5.914   5.438  18.437  0.00  0.00    +0.000 A 
ATOM     10  C   UNL     1       7.182   5.089  17.971  0.00  0.00    +0.000 A 
ATOM     11  C   UNL     1       7.316   4.435  16.748  0.00  0.00    +0.000 A 
ATOM     12  C   UNL     1       6.181   4.137  16.005  0.00  0.00    +0.000 A 
ATOM     13  F   UNL     1       6.311   3.516  14.825  0.00  0.00    +0.000 F 
ATOM     14  C   UNL     1       4.911   4.476  16.463  0.00  0.00    +0.000 A 
ENDBRANCH   7   8
BRANCH   4  15
ATOM     15  C   UNL     1       1.053   9.319  20.117  0.00  0.00    +0.000 A 
ATOM     16  C   UNL     1       1.400   8.885  21.406  0.00  0.00    +0.000 A 
ATOM     17  C   UNL     1       0.646   9.287  22.514  0.00  0.00    +0.000 A 
ATOM     18  C   UNL     1      -0.459  10.112  22.326  0.00  0.00    +0.000 A 
ATOM     19  C   UNL     1      -0.787  10.586  21.064  0.00  0.00    +0.000 A 
ATOM     20  C   UNL     1      -0.005  10.222  19.969  0.00  0.00    +0.000 A 
BRANCH  18  21
ATOM     21  O   UNL     1      -1.255  10.498  23.363  0.00  0.00    +0.000 OA
ATOM     22  H   UNL     1      -2.182  10.452  23.080  0.00  0.00    +0.000 HD
ENDBRANCH  18  21
ENDBRANCH   4  15
BRANCH   1  24
ATOM     23  O   UNL     1       3.617   3.170  20.172  0.00  0.00    +0.000 OA
ATOM     24  C   UNL     1       2.907   4.160  20.268  0.00  0.00    +0.000 C 
BRANCH  24  25
ATOM     25  O   UNL     1       1.693   4.114  20.857  0.00  0.00    +0.000 OA
ATOM     26  H   UNL     1       1.639   3.578  21.670  0.00  0.00    +0.000 HD
ENDBRANCH  24  25
ENDBRANCH   1  24
TORSDOF 5
ENDMDL
MODEL 8
REMARK VINA RESULT:      -7.6      5.153      8.990
REMARK  Name = 
REMARK  5 active torsions:
REMARK  status: ('A' for Active; 'I' for Inactive)
REMARK    1  A    between atoms: C_2  and  O_3
REMARK    2  A    between atoms: C_2  and  C_4
REMARK    3  A    between atoms: C_7  and  C_9
REMARK    4  A    between atoms: C_12  and  O_13
REMARK    5  A    between atoms: C_17  and  C_18
REMARK                            x       y       z     vdW  Elec       q    Type
REMARK                         _______ _______ _______ _____ _____    ______ ____
ROOT
ATOM      1  C   UNL     1       0.363   8.798  20.816  0.00  0.00    +0.000 C 
ATOM      2  C   UNL     1       1.621   8.007  20.512  0.00  0.00    +0.000 C 
ATOM      3  N   UNL     1       1.935   8.332  19.131  0.00  0.00    +0.000 N 
ATOM      4  C   UNL     1       2.629   7.574  18.196  0.00  0.00    +0.000 C 
ATOM      5  O   UNL     1       2.707   7.909  17.016  0.00  0.00    +0.000 OA
ATOM      6  C   UNL     1       1.376   9.628  18.772  0.00  0.00    +0.000 C 
ATOM      7  C   UNL     1       0.561  10.086  19.998  0.00  0.00    +0.000 C 
ENDROOT
BRANCH   7   8
ATOM      8  C   UNL     1      -0.747  10.760  19.642  0.00  0.00    +0.000 A 
ATOM      9  C   UNL     1      -1.498  10.370  18.519  0.00  0.00    +0.000 A 
ATOM     10  C   UNL     1      -2.699  11.006  18.202  0.00  0.00    +0.000 A 
ATOM     11  C   UNL     1      -3.166  12.045  19.005  0.00  0.00    +0.000 A 
ATOM     12  C   UNL     1      -2.429  12.434  20.116  0.00  0.00    +0.000 A 
ATOM     13  F   UNL     1      -2.876  13.438  20.884  0.00  0.00    +0.000 F 
ATOM     14  C   UNL     1      -1.233  11.802  20.444  0.00  0.00    +0.000 A 
ENDBRANCH   7   8
BRANCH   4  15
ATOM     15  C   UNL     1       3.255   6.284  18.611  0.00  0.00    +0.000 A 
ATOM     16  C   UNL     1       4.641   6.240  18.824  0.00  0.00    +0.000 A 
ATOM     17  C   UNL     1       5.269   5.030  19.143  0.00  0.00    +0.000 A 
ATOM     18  C   UNL     1       4.508   3.869  19.234  0.00  0.00    +0.000 A 
ATOM     19  C   UNL     1       3.131   3.905  19.071  0.00  0.00    +0.000 A 
ATOM     20  C   UNL     1       2.503   5.119  18.801  0.00  0.00    +0.000 A 
BRANCH  18  21
ATOM     21  O   UNL     1       5.074   2.657  19.497  0.00  0.00    +0.000 OA
ATOM     22  H   UNL     1       4.768   2.017  18.833  0.00  0.00    +0.000 HD
ENDBRANCH  18  21
ENDBRANCH   4  15
BRANCH   1  24
ATOM     23  O   UNL     1       1.188   9.541  22.959  0.00  0.00    +0.000 OA
ATOM     24  C   UNL     1       0.284   9.049  22.299  0.00  0.00    +0.000 C 
BRANCH  24  25
ATOM     25  O   UNL     1      -0.871   8.637  22.864  0.00  0.00    +0.000 OA
ATOM     26  H   UNL     1      -0.786   8.215  23.739  0.00  0.00    +0.000 HD
ENDBRANCH  24  25
ENDBRANCH   1  24
TORSDOF 5
ENDMDL
MODEL 9
REMARK VINA RESULT:      -7.6      3.207      4.806
REMARK  Name = 
REMARK  5 active torsions:
REMARK  status: ('A' for Active; 'I' for Inactive)
REMARK    1  A    between atoms: C_2  and  O_3
REMARK    2  A    between atoms: C_2  and  C_4
REMARK    3  A    between atoms: C_7  and  C_9
REMARK    4  A    between atoms: C_12  and  O_13
REMARK    5  A    between atoms: C_17  and  C_18
REMARK                            x       y       z     vdW  Elec       q    Type
REMARK                         _______ _______ _______ _____ _____    ______ ____
ROOT
ATOM      1  C   UNL     1       3.248   5.545  19.700  0.00  0.00    +0.000 C 
ATOM      2  C   UNL     1       2.116   6.511  19.990  0.00  0.00    +0.000 C 
ATOM      3  N   UNL     1       2.197   7.502  18.930  0.00  0.00    +0.000 N 
ATOM      4  C   UNL     1       1.781   8.828  18.946  0.00  0.00    +0.000 C 
ATOM      5  O   UNL     1       2.034   9.600  18.024  0.00  0.00    +0.000 OA
ATOM      6  C   UNL     1       2.845   6.940  17.754  0.00  0.00    +0.000 C 
ATOM      7  C   UNL     1       3.295   5.522  18.162  0.00  0.00    +0.000 C 
ENDROOT
BRANCH   7   8
ATOM      8  C   UNL     1       4.656   5.138  17.624  0.00  0.00    +0.000 A 
ATOM      9  C   UNL     1       4.802   4.437  16.414  0.00  0.00    +0.000 A 
ATOM     10  C   UNL     1       6.065   4.084  15.935  0.00  0.00    +0.000 A 
ATOM     11  C   UNL     1       7.203   4.428  16.663  0.00  0.00    +0.000 A 
ATOM     12  C   UNL     1       7.065   5.121  17.858  0.00  0.00    +0.000 A 
ATOM     13  F   UNL     1       8.160   5.444  18.561  0.00  0.00    +0.000 F 
ATOM     14  C   UNL     1       5.811   5.482  18.341  0.00  0.00    +0.000 A 
ENDBRANCH   7   8
BRANCH   4  15
ATOM     15  C   UNL     1       1.053   9.358  20.137  0.00  0.00    +0.000 A 
ATOM     16  C   UNL     1       1.419   8.904  21.413  0.00  0.00    +0.000 A 
ATOM     17  C   UNL     1       0.710   9.326  22.544  0.00  0.00    +0.000 A 
ATOM     18  C   UNL     1      -0.369  10.191  22.390  0.00  0.00    +0.000 A 
ATOM     19  C   UNL     1      -0.714  10.685  21.140  0.00  0.00    +0.000 A 
ATOM     20  C   UNL     1       0.024  10.300  20.022  0.00  0.00    +0.000 A 
BRANCH  18  21
ATOM     21  O   UNL     1      -1.122  10.599  23.451  0.00  0.00    +0.000 OA
ATOM     22  H   UNL     1      -0.747  10.223  24.264  0.00  0.00    +0.000 HD
ENDBRANCH  18  21
ENDBRANCH   4  15
BRANCH   1  24
ATOM     23  O   UNL     1       3.476   3.160  19.991  0.00  0.00    +0.000 OA
ATOM     24  C   UNL     1       2.918   4.203  20.298  0.00  0.00    +0.000 C 
BRANCH  24  25
ATOM     25  O   UNL     1       1.902   4.235  21.187  0.00  0.00    +0.000 OA
ATOM     26  H   UNL     1       1.083   4.665  20.877  0.00  0.00    +0.000 HD
ENDBRANCH  24  25
ENDBRANCH   1  24
TORSDOF 5
ENDMDL
