MODEL 1
REMARK VINA RESULT:      -7.6      0.000      0.000
REMARK  Name = 
REMARK  6 active torsions:
REMARK  status: ('A' for Active; 'I' for Inactive)
REMARK    1  A    between atoms: C_1  and  C_2
REMARK    2  A    between atoms: N_7  and  C_8
REMARK    3  A    between atoms: C_8  and  C_9
REMARK    4  A    between atoms: C_9  and  C_10
REMARK    5  A    between atoms: C_10  and  N_11
REMARK    6  A    between atoms: C_12  and  C_14
REMARK                            x       y       z     vdW  Elec       q    Type
REMARK                         _______ _______ _______ _____ _____    ______ ____
ROOT
ATOM      1  C   UNL     1       7.817   6.751  17.450  0.00  0.00    +0.000 C 
ATOM      2  C   UNL     1       7.760   5.862  18.702  0.00  0.00    +0.000 C 
ATOM      3  C   UNL     1       6.409   5.958  19.417  0.00  0.00    +0.000 C 
ATOM      4  N   UNL     1       5.365   5.655  18.452  0.00  0.00    +0.000 N 
ATOM      5  C   UNL     1       4.255   5.019  18.877  0.00  0.00    +0.000 A 
ATOM      6  N   UNL     1       3.909   4.672  20.102  0.00  0.00    +0.000 NA
ATOM      7  C   UNL     1       2.767   3.935  19.927  0.00  0.00    +0.000 A 
ATOM      8  C   UNL     1       1.932   3.287  20.845  0.00  0.00    +0.000 A 
ATOM      9  C   UNL     1       0.845   2.553  20.344  0.00  0.00    +0.000 A 
ATOM     10  C   UNL     1       0.595   2.472  18.967  0.00  0.00    +0.000 A 
ATOM     11  C   UNL     1       1.408   3.134  18.041  0.00  0.00    +0.000 A 
ATOM     12  C   UNL     1       2.470   3.848  18.578  0.00  0.00    +0.000 A 
ATOM     13  O   UNL     1       3.405   4.565  17.901  0.00  0.00    +0.000 OA
ATOM     14  C   UNL     1       5.281   6.554  17.307  0.00  0.00    +0.000 C 
ATOM     15  C   UNL     1       6.602   6.492  16.540  0.00  0.00    +0.000 C 
ENDROOT
BRANCH   1  17
ATOM     16  N   UNL     1       8.817   8.522  18.798  0.00  0.00    +0.000 N 
ATOM     17  C   UNL     1       7.920   8.231  17.798  0.00  0.00    +0.000 C 
ATOM     18  O   UNL     1       7.271   9.100  17.222  0.00  0.00    +0.000 OA
ATOM     19  H   UNL     1       9.275   7.774  19.310  0.00  0.00    +0.000 HD
BRANCH  16  20
ATOM     20  C   UNL     1       8.994   9.872  19.287  0.00  0.00    +0.000 C 
BRANCH  20  21
ATOM     21  C   UNL     1      10.034  10.641  18.477  0.00  0.00    +0.000 C 
BRANCH  21  22
ATOM     22  C   UNL     1      10.887  11.588  19.333  0.00  0.00    +0.000 C 
BRANCH  22  29
ATOM     23  C   UNL     1      12.332  15.072  18.997  0.00  0.00    +0.000 C 
ATOM     24  C   UNL     1      11.693  13.865  19.704  0.00  0.00    +0.000 C 
ATOM     25  C   UNL     1      10.660  14.315  20.752  0.00  0.00    +0.000 C 
ATOM     26  C   UNL     1       9.373  14.844  20.121  0.00  0.00    +0.000 C 
ATOM     27  C   UNL     1       8.834  13.890  19.060  0.00  0.00    +0.000 C 
ATOM     28  C   UNL     1       9.922  13.465  18.073  0.00  0.00    +0.000 C 
ATOM     29  N   UNL     1      11.127  12.912  18.720  0.00  0.00    +0.000 NA
ENDBRANCH  22  29
ENDBRANCH  21  22
ENDBRANCH  20  21
ENDBRANCH  16  20
ENDBRANCH   1  17
TORSDOF 5
ENDMDL
MODEL 2
REMARK VINA RESULT:      -7.5      0.688      1.148
REMARK  Name = 
REMARK  6 active torsions:
REMARK  status: ('A' for Active; 'I' for Inactive)
REMARK    1  A    between atoms: C_1  and  C_2
REMARK    2  A    between atoms: N_7  and  C_8
REMARK    3  A    between atoms: C_8  and  C_9
REMARK    4  A    between atoms: C_9  and  C_10
REMARK    5  A    between atoms: C_10  and  N_11
REMARK    6  A    between atoms: C_12  and  C_14
REMARK                            x       y       z     vdW  Elec       q    Type
REMARK                         _______ _______ _______ _____ _____    ______ ____
ROOT
ATOM      1  C   UNL     1       7.778   6.919  17.392  0.00  0.00    +0.000 C 
ATOM      2  C   UNL     1       7.797   5.919  18.559  0.00  0.00    +0.000 C 
ATOM      3  C   UNL     1       6.491   5.942  19.359  0.00  0.00    +0.000 C 
ATOM      4  N   UNL     1       5.391   5.723  18.435  0.00  0.00    +0.000 N 
ATOM      5  C   UNL     1       4.308   5.044  18.865  0.00  0.00    +0.000 A 
ATOM      6  N   UNL     1       4.037   4.585  20.072  0.00  0.00    +0.000 NA
ATOM      7  C   UNL     1       2.887   3.860  19.899  0.00  0.00    +0.000 A 
ATOM      8  C   UNL     1       2.108   3.126  20.802  0.00  0.00    +0.000 A 
ATOM      9  C   UNL     1       0.993   2.434  20.302  0.00  0.00    +0.000 A 
ATOM     10  C   UNL     1       0.661   2.478  18.941  0.00  0.00    +0.000 A 
ATOM     11  C   UNL     1       1.416   3.227  18.032  0.00  0.00    +0.000 A 
ATOM     12  C   UNL     1       2.509   3.895  18.568  0.00  0.00    +0.000 A 
ATOM     13  O   UNL     1       3.401   4.677  17.905  0.00  0.00    +0.000 OA
ATOM     14  C   UNL     1       5.238   6.722  17.384  0.00  0.00    +0.000 C 
ATOM     15  C   UNL     1       6.510   6.738  16.536  0.00  0.00    +0.000 C 
ENDROOT
BRANCH   1  17
ATOM     16  N   UNL     1       8.855   8.565  18.836  0.00  0.00    +0.000 N 
ATOM     17  C   UNL     1       7.901   8.362  17.867  0.00  0.00    +0.000 C 
ATOM     18  O   UNL     1       7.220   9.276  17.412  0.00  0.00    +0.000 OA
ATOM     19  H   UNL     1       9.341   7.776  19.250  0.00  0.00    +0.000 HD
BRANCH  16  20
ATOM     20  C   UNL     1       9.060   9.866  19.436  0.00  0.00    +0.000 C 
BRANCH  20  21
ATOM     21  C   UNL     1      10.052  10.710  18.641  0.00  0.00    +0.000 C 
BRANCH  21  22
ATOM     22  C   UNL     1      10.516  11.966  19.393  0.00  0.00    +0.000 C 
BRANCH  22  29
ATOM     23  C   UNL     1       9.226  15.300  18.145  0.00  0.00    +0.000 C 
ATOM     24  C   UNL     1      10.261  14.279  18.646  0.00  0.00    +0.000 C 
ATOM     25  C   UNL     1      11.298  14.942  19.569  0.00  0.00    +0.000 C 
ATOM     26  C   UNL     1      10.727  15.293  20.941  0.00  0.00    +0.000 C 
ATOM     27  C   UNL     1       9.983  14.113  21.559  0.00  0.00    +0.000 C 
ATOM     28  C   UNL     1       8.993  13.489  20.576  0.00  0.00    +0.000 C 
ATOM     29  N   UNL     1       9.595  13.117  19.282  0.00  0.00    +0.000 NA
ENDBRANCH  22  29
ENDBRANCH  21  22
ENDBRANCH  20  21
ENDBRANCH  16  20
ENDBRANCH   1  17
TORSDOF 5
ENDMDL
MODEL 3
REMARK VINA RESULT:      -7.5      7.100      8.509
REMARK  Name = 
REMARK  6 active torsions:
REMARK  status: ('A' for Active; 'I' for Inactive)
REMARK    1  A    between atoms: C_1  and  C_2
REMARK    2  A    between atoms: N_7  and  C_8
REMARK    3  A    between atoms: C_8  and  C_9
REMARK    4  A    between atoms: C_9  and  C_10
REMARK    5  A    between atoms: C_10  and  N_11
REMARK    6  A    between atoms: C_12  and  C_14
REMARK                            x       y       z     vdW  Elec       q    Type
REMARK                         _______ _______ _______ _____ _____    ______ ____
ROOT
ATOM      1  C   UNL     1       0.438  10.509  19.001  0.00  0.00    +0.000 C 
ATOM      2  C   UNL     1       0.971   9.592  17.889  0.00  0.00    +0.000 C 
ATOM      3  C   UNL     1       2.166   8.754  18.355  0.00  0.00    +0.000 C 
ATOM      4  N   UNL     1       1.770   8.032  19.552  0.00  0.00    +0.000 N 
ATOM      5  C   UNL     1       2.285   6.803  19.768  0.00  0.00    +0.000 A 
ATOM      6  N   UNL     1       3.190   6.145  19.071  0.00  0.00    +0.000 NA
ATOM      7  C   UNL     1       3.220   4.906  19.656  0.00  0.00    +0.000 A 
ATOM      8  C   UNL     1       3.973   3.761  19.366  0.00  0.00    +0.000 A 
ATOM      9  C   UNL     1       3.736   2.605  20.127  0.00  0.00    +0.000 A 
ATOM     10  C   UNL     1       2.780   2.593  21.151  0.00  0.00    +0.000 A 
ATOM     11  C   UNL     1       2.039   3.737  21.468  0.00  0.00    +0.000 A 
ATOM     12  C   UNL     1       2.304   4.856  20.691  0.00  0.00    +0.000 A 
ATOM     13  O   UNL     1       1.720   6.080  20.787  0.00  0.00    +0.000 OA
ATOM     14  C   UNL     1       1.387   8.856  20.692  0.00  0.00    +0.000 C 
ATOM     15  C   UNL     1       0.183   9.711  20.293  0.00  0.00    +0.000 C 
ENDROOT
BRANCH   1  17
ATOM     16  N   UNL     1       1.107  12.361  20.442  0.00  0.00    +0.000 N 
ATOM     17  C   UNL     1       1.368  11.685  19.273  0.00  0.00    +0.000 C 
ATOM     18  O   UNL     1       2.289  11.997  18.524  0.00  0.00    +0.000 OA
ATOM     19  H   UNL     1       0.289  12.130  20.996  0.00  0.00    +0.000 HD
BRANCH  16  20
ATOM     20  C   UNL     1       1.862  13.536  20.821  0.00  0.00    +0.000 C 
BRANCH  20  21
ATOM     21  C   UNL     1       0.971  14.768  20.956  0.00  0.00    +0.000 C 
BRANCH  21  22
ATOM     22  C   UNL     1      -0.516  14.468  20.717  0.00  0.00    +0.000 C 
BRANCH  22  29
ATOM     23  C   UNL     1      -1.582  14.686  24.344  0.00  0.00    +0.000 C 
ATOM     24  C   UNL     1      -0.971  14.054  23.083  0.00  0.00    +0.000 C 
ATOM     25  C   UNL     1      -1.283  12.550  23.005  0.00  0.00    +0.000 C 
ATOM     26  C   UNL     1      -2.742  12.269  22.647  0.00  0.00    +0.000 C 
ATOM     27  C   UNL     1      -3.189  13.079  21.434  0.00  0.00    +0.000 C 
ATOM     28  C   UNL     1      -2.819  14.556  21.571  0.00  0.00    +0.000 C 
ATOM     29  N   UNL     1      -1.393  14.786  21.865  0.00  0.00    +0.000 NA
ENDBRANCH  22  29
ENDBRANCH  21  22
ENDBRANCH  20  21
ENDBRANCH  16  20
ENDBRANCH   1  17
TORSDOF 5
ENDMDL
MODEL 4
REMARK VINA RESULT:      -7.5      7.385      8.962
REMARK  Name = 
REMARK  6 active torsions:
REMARK  status: ('A' for Active; 'I' for Inactive)
REMARK    1  A    between atoms: C_1  and  C_2
REMARK    2  A    between atoms: N_7  and  C_8
REMARK    3  A    between atoms: C_8  and  C_9
REMARK    4  A    between atoms: C_9  and  C_10
REMARK    5  A    between atoms: C_10  and  N_11
REMARK    6  A    between atoms: C_12  and  C_14
REMARK                            x       y       z     vdW  Elec       q    Type
REMARK                         _______ _______ _______ _____ _____    ______ ____
ROOT
ATOM      1  C   UNL     1       0.236  10.471  19.126  0.00  0.00    +0.000 C 
ATOM      2  C   UNL     1       0.795   9.585  18.002  0.00  0.00    +0.000 C 
ATOM      3  C   UNL     1       2.013   8.775  18.459  0.00  0.00    +0.000 C 
ATOM      4  N   UNL     1       1.636   8.026  19.647  0.00  0.00    +0.000 N 
ATOM      5  C   UNL     1       2.185   6.810  19.846  0.00  0.00    +0.000 A 
ATOM      6  N   UNL     1       3.110   6.186  19.143  0.00  0.00    +0.000 NA
ATOM      7  C   UNL     1       3.174   4.941  19.711  0.00  0.00    +0.000 A 
ATOM      8  C   UNL     1       3.959   3.822  19.408  0.00  0.00    +0.000 A 
ATOM      9  C   UNL     1       3.754   2.650  20.153  0.00  0.00    +0.000 A 
ATOM     10  C   UNL     1       2.797   2.597  21.175  0.00  0.00    +0.000 A 
ATOM     11  C   UNL     1       2.023   3.715  21.505  0.00  0.00    +0.000 A 
ATOM     12  C   UNL     1       2.258   4.852  20.745  0.00  0.00    +0.000 A 
ATOM     13  O   UNL     1       1.640   6.057  20.855  0.00  0.00    +0.000 OA
ATOM     14  C   UNL     1       1.228   8.824  20.796  0.00  0.00    +0.000 C 
ATOM     15  C   UNL     1       0.001   9.649  20.407  0.00  0.00    +0.000 C 
ENDROOT
BRANCH   1  17
ATOM     16  N   UNL     1       0.790  12.379  20.543  0.00  0.00    +0.000 N 
ATOM     17  C   UNL     1       1.131  11.670  19.415  0.00  0.00    +0.000 C 
ATOM     18  O   UNL     1       2.093  11.971  18.714  0.00  0.00    +0.000 OA
ATOM     19  H   UNL     1      -0.058  12.154  21.053  0.00  0.00    +0.000 HD
BRANCH  16  20
ATOM     20  C   UNL     1       1.505  13.577  20.928  0.00  0.00    +0.000 C 
BRANCH  20  21
ATOM     21  C   UNL     1       0.616  14.548  21.699  0.00  0.00    +0.000 C 
BRANCH  21  22
ATOM     22  C   UNL     1      -0.442  13.846  22.562  0.00  0.00    +0.000 C 
BRANCH  22  29
ATOM     23  C   UNL     1      -3.943  14.979  21.670  0.00  0.00    +0.000 C 
ATOM     24  C   UNL     1      -2.715  14.744  22.565  0.00  0.00    +0.000 C 
ATOM     25  C   UNL     1      -3.131  14.332  23.988  0.00  0.00    +0.000 C 
ATOM     26  C   UNL     1      -3.667  12.902  24.054  0.00  0.00    +0.000 C 
ATOM     27  C   UNL     1      -2.735  11.920  23.349  0.00  0.00    +0.000 C 
ATOM     28  C   UNL     1      -2.343  12.410  21.956  0.00  0.00    +0.000 C 
ATOM     29  N   UNL     1      -1.783  13.774  21.942  0.00  0.00    +0.000 NA
ENDBRANCH  22  29
ENDBRANCH  21  22
ENDBRANCH  20  21
ENDBRANCH  16  20
ENDBRANCH   1  17
TORSDOF 5
ENDMDL
MODEL 5
REMARK VINA RESULT:      -7.5      5.415      7.783
REMARK  Name = 
REMARK  6 active torsions:
REMARK  status: ('A' for Active; 'I' for Inactive)
REMARK    1  A    between atoms: C_1  and  C_2
REMARK    2  A    between atoms: N_7  and  C_8
REMARK    3  A    between atoms: C_8  and  C_9
REMARK    4  A    between atoms: C_9  and  C_10
REMARK    5  A    between atoms: C_10  and  N_11
REMARK    6  A    between atoms: C_12  and  C_14
REMARK                            x       y       z     vdW  Elec       q    Type
REMARK                         _______ _______ _______ _____ _____    ______ ____
ROOT
ATOM      1  C   UNL     1       2.803   4.402  18.769  0.00  0.00    +0.000 C 
ATOM      2  C   UNL     1       1.798   4.354  19.930  0.00  0.00    +0.000 C 
ATOM      3  C   UNL     1       1.971   5.534  20.892  0.00  0.00    +0.000 C 
ATOM      4  N   UNL     1       1.894   6.762  20.119  0.00  0.00    +0.000 N 
ATOM      5  C   UNL     1       1.347   7.854  20.690  0.00  0.00    +0.000 A 
ATOM      6  N   UNL     1       0.913   8.021  21.924  0.00  0.00    +0.000 NA
ATOM      7  C   UNL     1       0.334   9.263  21.906  0.00  0.00    +0.000 A 
ATOM      8  C   UNL     1      -0.309  10.002  22.907  0.00  0.00    +0.000 A 
ATOM      9  C   UNL     1      -0.856  11.247  22.560  0.00  0.00    +0.000 A 
ATOM     10  C   UNL     1      -0.761  11.743  21.252  0.00  0.00    +0.000 A 
ATOM     11  C   UNL     1      -0.100  11.027  20.249  0.00  0.00    +0.000 A 
ATOM     12  C   UNL     1       0.426   9.802  20.635  0.00  0.00    +0.000 A 
ATOM     13  O   UNL     1       1.100   8.915  19.856  0.00  0.00    +0.000 OA
ATOM     14  C   UNL     1       2.914   6.927  19.090  0.00  0.00    +0.000 C 
ATOM     15  C   UNL     1       2.784   5.782  18.085  0.00  0.00    +0.000 C 
ENDROOT
BRANCH   1  17
ATOM     16  N   UNL     1       5.129   5.067  19.092  0.00  0.00    +0.000 N 
ATOM     17  C   UNL     1       4.217   4.046  19.215  0.00  0.00    +0.000 C 
ATOM     18  O   UNL     1       4.518   2.944  19.665  0.00  0.00    +0.000 OA
ATOM     19  H   UNL     1       4.867   5.936  18.639  0.00  0.00    +0.000 HD
BRANCH  16  20
ATOM     20  C   UNL     1       6.526   4.876  19.418  0.00  0.00    +0.000 C 
BRANCH  20  21
ATOM     21  C   UNL     1       7.446   5.553  18.405  0.00  0.00    +0.000 C 
BRANCH  21  22
ATOM     22  C   UNL     1       7.440   4.868  17.031  0.00  0.00    +0.000 C 
BRANCH  22  29
ATOM     23  C   UNL     1       4.966   6.994  15.107  0.00  0.00    +0.000 C 
ATOM     24  C   UNL     1       5.459   5.805  15.948  0.00  0.00    +0.000 C 
ATOM     25  C   UNL     1       4.786   4.493  15.509  0.00  0.00    +0.000 C 
ATOM     26  C   UNL     1       5.311   3.982  14.168  0.00  0.00    +0.000 C 
ATOM     27  C   UNL     1       6.836   3.963  14.132  0.00  0.00    +0.000 C 
ATOM     28  C   UNL     1       7.432   5.287  14.609  0.00  0.00    +0.000 C 
ATOM     29  N   UNL     1       6.938   5.719  15.930  0.00  0.00    +0.000 NA
ENDBRANCH  22  29
ENDBRANCH  21  22
ENDBRANCH  20  21
ENDBRANCH  16  20
ENDBRANCH   1  17
TORSDOF 5
ENDMDL
MODEL 6
REMARK VINA RESULT:      -7.4      7.101      8.454
REMARK  Name = 
REMARK  6 active torsions:
REMARK  status: ('A' for Active; 'I' for Inactive)
REMARK    1  A    between atoms: C_1  and  C_2
REMARK    2  A    between atoms: N_7  and  C_8
REMARK    3  A    between atoms: C_8  and  C_9
REMARK    4  A    between atoms: C_9  and  C_10
REMARK    5  A    between atoms: C_10  and  N_11
REMARK    6  A    between atoms: C_12  and  C_14
REMARK                            x       y       z     vdW  Elec       q    Type
REMARK                         _______ _______ _______ _____ _____    ______ ____
ROOT
ATOM      1  C   UNL     1       0.520  10.442  18.842  0.00  0.00    +0.000 C 
ATOM      2  C   UNL     1       1.058   9.490  17.763  0.00  0.00    +0.000 C 
ATOM      3  C   UNL     1       2.237   8.653  18.268  0.00  0.00    +0.000 C 
ATOM      4  N   UNL     1       1.816   7.966  19.478  0.00  0.00    +0.000 N 
ATOM      5  C   UNL     1       2.314   6.739  19.733  0.00  0.00    +0.000 A 
ATOM      6  N   UNL     1       3.222   6.052  19.068  0.00  0.00    +0.000 NA
ATOM      7  C   UNL     1       3.230   4.829  19.685  0.00  0.00    +0.000 A 
ATOM      8  C   UNL     1       3.975   3.669  19.437  0.00  0.00    +0.000 A 
ATOM      9  C   UNL     1       3.714   2.536  20.224  0.00  0.00    +0.000 A 
ATOM     10  C   UNL     1       2.743   2.562  21.235  0.00  0.00    +0.000 A 
ATOM     11  C   UNL     1       2.010   3.721  21.510  0.00  0.00    +0.000 A 
ATOM     12  C   UNL     1       2.299   4.817  20.708  0.00  0.00    +0.000 A 
ATOM     13  O   UNL     1       1.727   6.049  20.763  0.00  0.00    +0.000 OA
ATOM     14  C   UNL     1       1.426   8.825  20.590  0.00  0.00    +0.000 C 
ATOM     15  C   UNL     1       0.237   9.681  20.151  0.00  0.00    +0.000 C 
ENDROOT
BRANCH   1  17
ATOM     16  N   UNL     1       1.326  12.194  20.338  0.00  0.00    +0.000 N 
ATOM     17  C   UNL     1       1.459  11.615  19.097  0.00  0.00    +0.000 C 
ATOM     18  O   UNL     1       2.282  12.004  18.274  0.00  0.00    +0.000 OA
ATOM     19  H   UNL     1       0.581  11.903  20.962  0.00  0.00    +0.000 HD
BRANCH  16  20
ATOM     20  C   UNL     1       2.103  13.354  20.718  0.00  0.00    +0.000 C 
BRANCH  20  21
ATOM     21  C   UNL     1       1.239  14.606  20.836  0.00  0.00    +0.000 C 
BRANCH  21  22
ATOM     22  C   UNL     1       0.254  14.553  22.013  0.00  0.00    +0.000 C 
BRANCH  22  29
ATOM     23  C   UNL     1      -2.601  12.600  20.471  0.00  0.00    +0.000 C 
ATOM     24  C   UNL     1      -1.801  13.843  20.897  0.00  0.00    +0.000 C 
ATOM     25  C   UNL     1      -2.733  14.969  21.376  0.00  0.00    +0.000 C 
ATOM     26  C   UNL     1      -3.346  14.684  22.746  0.00  0.00    +0.000 C 
ATOM     27  C   UNL     1      -2.287  14.255  23.757  0.00  0.00    +0.000 C 
ATOM     28  C   UNL     1      -1.383  13.156  23.201  0.00  0.00    +0.000 C 
ATOM     29  N   UNL     1      -0.770  13.492  21.902  0.00  0.00    +0.000 NA
ENDBRANCH  22  29
ENDBRANCH  21  22
ENDBRANCH  20  21
ENDBRANCH  16  20
ENDBRANCH   1  17
TORSDOF 5
ENDMDL
MODEL 7
REMARK VINA RESULT:      -7.4      5.902      8.241
REMARK  Name = 
REMARK  6 active torsions:
REMARK  status: ('A' for Active; 'I' for Inactive)
REMARK    1  A    between atoms: C_1  and  C_2
REMARK    2  A    between atoms: N_7  and  C_8
REMARK    3  A    between atoms: C_8  and  C_9
REMARK    4  A    between atoms: C_9  and  C_10
REMARK    5  A    between atoms: C_10  and  N_11
REMARK    6  A    between atoms: C_12  and  C_14
REMARK                            x       y       z     vdW  Elec       q    Type
REMARK                         _______ _______ _______ _____ _____    ______ ____
ROOT
ATOM      1  C   UNL     1       4.001   4.333  19.901  0.00  0.00    +0.000 C 
ATOM      2  C   UNL     1       4.020   3.088  19.000  0.00  0.00    +0.000 C 
ATOM      3  C   UNL     1       3.791   3.439  17.527  0.00  0.00    +0.000 C 
ATOM      4  N   UNL     1       4.774   4.438  17.143  0.00  0.00    +0.000 N 
ATOM      5  C   UNL     1       5.253   4.426  15.883  0.00  0.00    +0.000 A 
ATOM      6  N   UNL     1       4.905   3.661  14.866  0.00  0.00    +0.000 NA
ATOM      7  C   UNL     1       5.811   3.980  13.887  0.00  0.00    +0.000 A 
ATOM      8  C   UNL     1       5.970   3.504  12.580  0.00  0.00    +0.000 A 
ATOM      9  C   UNL     1       7.045   3.997  11.825  0.00  0.00    +0.000 A 
ATOM     10  C   UNL     1       7.934   4.941  12.357  0.00  0.00    +0.000 A 
ATOM     11  C   UNL     1       7.772   5.443  13.652  0.00  0.00    +0.000 A 
ATOM     12  C   UNL     1       6.697   4.930  14.363  0.00  0.00    +0.000 A 
ATOM     13  O   UNL     1       6.327   5.241  15.634  0.00  0.00    +0.000 OA
ATOM     14  C   UNL     1       4.713   5.700  17.872  0.00  0.00    +0.000 C 
ATOM     15  C   UNL     1       4.949   5.417  19.356  0.00  0.00    +0.000 C 
ENDROOT
BRANCH   1  17
ATOM     16  N   UNL     1       2.550   6.176  20.575  0.00  0.00    +0.000 N 
ATOM     17  C   UNL     1       2.595   4.893  20.081  0.00  0.00    +0.000 C 
ATOM     18  O   UNL     1       1.582   4.263  19.793  0.00  0.00    +0.000 OA
ATOM     19  H   UNL     1       3.400   6.637  20.881  0.00  0.00    +0.000 HD
BRANCH  16  20
ATOM     20  C   UNL     1       1.293   6.834  20.858  0.00  0.00    +0.000 C 
BRANCH  20  21
ATOM     21  C   UNL     1       1.479   8.320  21.151  0.00  0.00    +0.000 C 
BRANCH  21  22
ATOM     22  C   UNL     1       0.309   9.184  20.661  0.00  0.00    +0.000 C 
BRANCH  22  29
ATOM     23  C   UNL     1       1.165  12.719  19.608  0.00  0.00    +0.000 C 
ATOM     24  C   UNL     1       0.391  11.605  20.331  0.00  0.00    +0.000 C 
ATOM     25  C   UNL     1      -1.118  11.900  20.358  0.00  0.00    +0.000 C 
ATOM     26  C   UNL     1      -1.779  11.709  18.994  0.00  0.00    +0.000 C 
ATOM     27  C   UNL     1      -1.399  10.370  18.367  0.00  0.00    +0.000 C 
ATOM     28  C   UNL     1       0.111  10.135  18.404  0.00  0.00    +0.000 C 
ATOM     29  N   UNL     1       0.701  10.278  19.747  0.00  0.00    +0.000 NA
ENDBRANCH  22  29
ENDBRANCH  21  22
ENDBRANCH  20  21
ENDBRANCH  16  20
ENDBRANCH   1  17
TORSDOF 5
ENDMDL
MODEL 8
REMARK VINA RESULT:      -7.4      6.993      8.567
REMARK  Name = 
REMARK  6 active torsions:
REMARK  status: ('A' for Active; 'I' for Inactive)
REMARK    1  A    between atoms: C_1  and  C_2
REMARK    2  A    between atoms: N_7  and  C_8
REMARK    3  A    between atoms: C_8  and  C_9
REMARK    4  A    between atoms: C_9  and  C_10
REMARK    5  A    between atoms: C_10  and  N_11
REMARK    6  A    between atoms: C_12  and  C_14
REMARK                            x       y       z     vdW  Elec       q    Type
REMARK                         _______ _______ _______ _____ _____    ______ ____
ROOT
ATOM      1  C   UNL     1       0.482  10.441  18.879  0.00  0.00    +0.000 C 
ATOM      2  C   UNL     1       1.002   9.489  17.791  0.00  0.00    +0.000 C 
ATOM      3  C   UNL     1       2.196   8.658  18.273  0.00  0.00    +0.000 C 
ATOM      4  N   UNL     1       1.804   7.973  19.493  0.00  0.00    +0.000 N 
ATOM      5  C   UNL     1       2.313   6.748  19.740  0.00  0.00    +0.000 A 
ATOM      6  N   UNL     1       3.211   6.065  19.057  0.00  0.00    +0.000 NA
ATOM      7  C   UNL     1       3.238   4.843  19.677  0.00  0.00    +0.000 A 
ATOM      8  C   UNL     1       3.982   3.686  19.416  0.00  0.00    +0.000 A 
ATOM      9  C   UNL     1       3.745   2.554  20.211  0.00  0.00    +0.000 A 
ATOM     10  C   UNL     1       2.795   2.577  21.242  0.00  0.00    +0.000 A 
ATOM     11  C   UNL     1       2.062   3.733  21.530  0.00  0.00    +0.000 A 
ATOM     12  C   UNL     1       2.329   4.829  20.720  0.00  0.00    +0.000 A 
ATOM     13  O   UNL     1       1.752   6.058  20.784  0.00  0.00    +0.000 OA
ATOM     14  C   UNL     1       1.433   8.832  20.611  0.00  0.00    +0.000 C 
ATOM     15  C   UNL     1       0.232   9.681  20.195  0.00  0.00    +0.000 C 
ENDROOT
BRANCH   1  17
ATOM     16  N   UNL     1       1.262  12.245  20.326  0.00  0.00    +0.000 N 
ATOM     17  C   UNL     1       1.420  11.619  19.111  0.00  0.00    +0.000 C 
ATOM     18  O   UNL     1       2.264  11.973  18.293  0.00  0.00    +0.000 OA
ATOM     19  H   UNL     1       0.501  11.980  20.943  0.00  0.00    +0.000 HD
BRANCH  16  20
ATOM     20  C   UNL     1       2.035  13.415  20.680  0.00  0.00    +0.000 C 
BRANCH  20  21
ATOM     21  C   UNL     1       1.271  14.342  21.621  0.00  0.00    +0.000 C 
BRANCH  21  22
ATOM     22  C   UNL     1      -0.206  14.509  21.237  0.00  0.00    +0.000 C 
BRANCH  22  29
ATOM     23  C   UNL     1      -2.160  11.845  23.089  0.00  0.00    +0.000 C 
ATOM     24  C   UNL     1      -1.536  12.561  21.879  0.00  0.00    +0.000 C 
ATOM     25  C   UNL     1      -2.457  12.486  20.650  0.00  0.00    +0.000 C 
ATOM     26  C   UNL     1      -3.679  13.395  20.773  0.00  0.00    +0.000 C 
ATOM     27  C   UNL     1      -3.288  14.807  21.195  0.00  0.00    +0.000 C 
ATOM     28  C   UNL     1      -2.351  14.800  22.403  0.00  0.00    +0.000 C 
ATOM     29  N   UNL     1      -1.158  13.952  22.223  0.00  0.00    +0.000 NA
ENDBRANCH  22  29
ENDBRANCH  21  22
ENDBRANCH  20  21
ENDBRANCH  16  20
ENDBRANCH   1  17
TORSDOF 5
ENDMDL
MODEL 9
REMARK VINA RESULT:      -7.3      7.888     10.074
REMARK  Name = 
REMARK  6 active torsions:
REMARK  status: ('A' for Active; 'I' for Inactive)
REMARK    1  A    between atoms: C_1  and  C_2
REMARK    2  A    between atoms: N_7  and  C_8
REMARK    3  A    between atoms: C_8  and  C_9
REMARK    4  A    between atoms: C_9  and  C_10
REMARK    5  A    between atoms: C_10  and  N_11
REMARK    6  A    between atoms: C_12  and  C_14
REMARK                            x       y       z     vdW  Elec       q    Type
REMARK                         _______ _______ _______ _____ _____    ______ ____
ROOT
ATOM      1  C   UNL     1      -0.508   9.972  20.380  0.00  0.00    +0.000 C 
ATOM      2  C   UNL     1      -0.088  10.090  18.906  0.00  0.00    +0.000 C 
ATOM      3  C   UNL     1       1.389   9.743  18.699  0.00  0.00    +0.000 C 
ATOM      4  N   UNL     1       1.626   8.422  19.257  0.00  0.00    +0.000 N 
ATOM      5  C   UNL     1       2.534   7.621  18.664  0.00  0.00    +0.000 A 
ATOM      6  N   UNL     1       3.338   7.878  17.651  0.00  0.00    +0.000 NA
ATOM      7  C   UNL     1       3.928   6.671  17.382  0.00  0.00    +0.000 A 
ATOM      8  C   UNL     1       4.870   6.293  16.417  0.00  0.00    +0.000 A 
ATOM      9  C   UNL     1       5.249   4.943  16.357  0.00  0.00    +0.000 A 
ATOM     10  C   UNL     1       4.707   3.997  17.239  0.00  0.00    +0.000 A 
ATOM     11  C   UNL     1       3.785   4.365  18.224  0.00  0.00    +0.000 A 
ATOM     12  C   UNL     1       3.439   5.709  18.247  0.00  0.00    +0.000 A 
ATOM     13  O   UNL     1       2.564   6.318  19.091  0.00  0.00    +0.000 OA
ATOM     14  C   UNL     1       1.377   8.286  20.687  0.00  0.00    +0.000 C 
ATOM     15  C   UNL     1      -0.093   8.607  20.960  0.00  0.00    +0.000 C 
ENDROOT
BRANCH   1  17
ATOM     16  N   UNL     1      -0.365  12.362  20.851  0.00  0.00    +0.000 N 
ATOM     17  C   UNL     1       0.049  11.106  21.231  0.00  0.00    +0.000 C 
ATOM     18  O   UNL     1       0.791  10.920  22.191  0.00  0.00    +0.000 OA
ATOM     19  H   UNL     1      -0.910  12.487  20.005  0.00  0.00    +0.000 HD
BRANCH  16  20
ATOM     20  C   UNL     1       0.117  13.551  21.520  0.00  0.00    +0.000 C 
BRANCH  20  21
ATOM     21  C   UNL     1      -0.732  13.905  22.737  0.00  0.00    +0.000 C 
BRANCH  21  22
ATOM     22  C   UNL     1      -2.166  14.316  22.376  0.00  0.00    +0.000 C 
BRANCH  22  29
ATOM     23  C   UNL     1      -5.155  12.562  20.850  0.00  0.00    +0.000 C 
ATOM     24  C   UNL     1      -4.391  13.663  21.604  0.00  0.00    +0.000 C 
ATOM     25  C   UNL     1      -5.221  14.216  22.776  0.00  0.00    +0.000 C 
ATOM     26  C   UNL     1      -5.310  13.239  23.946  0.00  0.00    +0.000 C 
ATOM     27  C   UNL     1      -3.937  12.698  24.333  0.00  0.00    +0.000 C 
ATOM     28  C   UNL     1      -3.162  12.194  23.116  0.00  0.00    +0.000 C 
ATOM     29  N   UNL     1      -3.054  13.186  22.030  0.00  0.00    +0.000 NA
ENDBRANCH  22  29
ENDBRANCH  21  22
ENDBRANCH  20  21
ENDBRANCH  16  20
ENDBRANCH   1  17
TORSDOF 5
ENDMDL
