MODEL 1
REMARK VINA RESULT:      -7.6      0.000      0.000
REMARK  Name = 
REMARK  5 active torsions:
REMARK  status: ('A' for Active; 'I' for Inactive)
REMARK    1  A    between atoms: C_2  and  C_12
REMARK    2  A    between atoms: N_3  and  C_4
REMARK    3  A    between atoms: C_8  and  C_9
REMARK    4  A    between atoms: C_9  and  O_10
REMARK    5  A    between atoms: C_15  and  C_16
REMARK                            x       y       z     vdW  Elec       q    Type
REMARK                         _______ _______ _______ _____ _____    ______ ____
ROOT
ATOM      1  O   UNL     1       2.430   5.313  17.917  0.00  0.00    +0.000 OA
ATOM      2  C   UNL     1       3.013   6.344  18.234  0.00  0.00    +0.000 C 
ATOM      3  N   UNL     1       4.355   6.630  18.051  0.00  0.00    +0.000 N 
ATOM      4  H   UNL     1       4.733   7.425  18.551  0.00  0.00    +0.000 HD
ENDROOT
BRANCH   3   5
ATOM      5  C   UNL     1       5.291   5.815  17.381  0.00  0.00    +0.000 A 
ATOM      6  C   UNL     1       6.464   5.360  17.980  0.00  0.00    +0.000 A 
ATOM      7  C   UNL     1       7.374   4.585  17.261  0.00  0.00    +0.000 A 
ATOM      8  C   UNL     1       7.110   4.250  15.937  0.00  0.00    +0.000 A 
ATOM      9  C   UNL     1       5.924   4.669  15.320  0.00  0.00    +0.000 A 
ATOM     10  C   UNL     1       5.018   5.454  16.055  0.00  0.00    +0.000 A 
BRANCH   9  11
ATOM     11  C   UNL     1       5.697   4.353  13.865  0.00  0.00    +0.000 C 
BRANCH  11  12
ATOM     12  O   UNL     1       6.402   3.186  13.464  0.00  0.00    +0.000 OA
ATOM     13  H   UNL     1       6.116   2.989  12.556  0.00  0.00    +0.000 HD
ENDBRANCH  11  12
ENDBRANCH   9  11
ENDBRANCH   3   5
BRANCH   2  14
ATOM     14  C   UNL     1       2.237   7.385  18.954  0.00  0.00    +0.000 A 
ATOM     15  C   UNL     1       1.837   8.521  18.246  0.00  0.00    +0.000 A 
ATOM     16  C   UNL     1       1.103   9.520  18.884  0.00  0.00    +0.000 A 
ATOM     17  C   UNL     1       0.736   9.412  20.238  0.00  0.00    +0.000 A 
ATOM     18  C   UNL     1       1.171   8.267  20.937  0.00  0.00    +0.000 A 
ATOM     19  C   UNL     1       1.923   7.266  20.309  0.00  0.00    +0.000 A 
BRANCH  17  20
ATOM     20  C   UNL     1      -0.067  10.464  20.900  0.00  0.00    +0.000 A 
ATOM     21  C   UNL     1      -0.592  11.547  20.170  0.00  0.00    +0.000 A 
ATOM     22  C   UNL     1      -1.333  12.557  20.791  0.00  0.00    +0.000 A 
ATOM     23  C   UNL     1      -1.585  12.495  22.156  0.00  0.00    +0.000 A 
ATOM     24  C   UNL     1      -1.092  11.428  22.902  0.00  0.00    +0.000 A 
ATOM     25  C   UNL     1      -0.338  10.428  22.280  0.00  0.00    +0.000 A 
ENDBRANCH  17  20
ENDBRANCH   2  14
TORSDOF 5
ENDMDL
MODEL 2
REMARK VINA RESULT:      -7.6      0.350      1.451
REMARK  Name = 
REMARK  5 active torsions:
REMARK  status: ('A' for Active; 'I' for Inactive)
REMARK    1  A    between atoms: C_2  and  C_12
REMARK    2  A    between atoms: N_3  and  C_4
REMARK    3  A    between atoms: C_8  and  C_9
REMARK    4  A    between atoms: C_9  and  O_10
REMARK    5  A    between atoms: C_15  and  C_16
REMARK                            x       y       z     vdW  Elec       q    Type
REMARK                         _______ _______ _______ _____ _____    ______ ____
ROOT
ATOM      1  O   UNL     1       2.733   5.289  18.568  0.00  0.00    +0.000 OA
ATOM      2  C   UNL     1       3.134   6.440  18.436  0.00  0.00    +0.000 C 
ATOM      3  N   UNL     1       4.347   6.841  17.905  0.00  0.00    +0.000 N 
ATOM      4  H   UNL     1       4.625   7.803  18.057  0.00  0.00    +0.000 HD
ENDROOT
BRANCH   3   5
ATOM      5  C   UNL     1       5.319   5.996  17.331  0.00  0.00    +0.000 A 
ATOM      6  C   UNL     1       6.421   5.520  18.039  0.00  0.00    +0.000 A 
ATOM      7  C   UNL     1       7.373   4.715  17.413  0.00  0.00    +0.000 A 
ATOM      8  C   UNL     1       7.223   4.371  16.073  0.00  0.00    +0.000 A 
ATOM      9  C   UNL     1       6.109   4.812  15.347  0.00  0.00    +0.000 A 
ATOM     10  C   UNL     1       5.159   5.627  15.989  0.00  0.00    +0.000 A 
BRANCH   9  11
ATOM     11  C   UNL     1       6.008   4.486  13.880  0.00  0.00    +0.000 C 
BRANCH  11  12
ATOM     12  O   UNL     1       6.363   3.135  13.616  0.00  0.00    +0.000 OA
ATOM     13  H   UNL     1       6.498   3.069  12.655  0.00  0.00    +0.000 HD
ENDBRANCH  11  12
ENDBRANCH   9  11
ENDBRANCH   3   5
BRANCH   2  14
ATOM     14  C   UNL     1       2.277   7.535  18.958  0.00  0.00    +0.000 A 
ATOM     15  C   UNL     1       1.880   7.485  20.296  0.00  0.00    +0.000 A 
ATOM     16  C   UNL     1       1.080   8.496  20.825  0.00  0.00    +0.000 A 
ATOM     17  C   UNL     1       0.662   9.589  20.044  0.00  0.00    +0.000 A 
ATOM     18  C   UNL     1       1.056   9.605  18.691  0.00  0.00    +0.000 A 
ATOM     19  C   UNL     1       1.847   8.586  18.145  0.00  0.00    +0.000 A 
BRANCH  17  20
ATOM     20  C   UNL     1      -0.165  10.672  20.622  0.00  0.00    +0.000 A 
ATOM     21  C   UNL     1      -0.254  10.857  22.015  0.00  0.00    +0.000 A 
ATOM     22  C   UNL     1      -1.049  11.864  22.570  0.00  0.00    +0.000 A 
ATOM     23  C   UNL     1      -1.759  12.725  21.741  0.00  0.00    +0.000 A 
ATOM     24  C   UNL     1      -1.680  12.576  20.360  0.00  0.00    +0.000 A 
ATOM     25  C   UNL     1      -0.895  11.558  19.808  0.00  0.00    +0.000 A 
ENDBRANCH  17  20
ENDBRANCH   2  14
TORSDOF 5
ENDMDL
MODEL 3
REMARK VINA RESULT:      -7.6      3.765     10.025
REMARK  Name = 
REMARK  5 active torsions:
REMARK  status: ('A' for Active; 'I' for Inactive)
REMARK    1  A    between atoms: C_2  and  C_12
REMARK    2  A    between atoms: N_3  and  C_4
REMARK    3  A    between atoms: C_8  and  C_9
REMARK    4  A    between atoms: C_9  and  O_10
REMARK    5  A    between atoms: C_15  and  C_16
REMARK                            x       y       z     vdW  Elec       q    Type
REMARK                         _______ _______ _______ _____ _____    ______ ____
ROOT
ATOM      1  O   UNL     1      -0.753  11.901  19.520  0.00  0.00    +0.000 OA
ATOM      2  C   UNL     1      -0.251  11.125  20.324  0.00  0.00    +0.000 C 
ATOM      3  N   UNL     1      -0.298  11.214  21.704  0.00  0.00    +0.000 N 
ATOM      4  H   UNL     1       0.338  10.625  22.229  0.00  0.00    +0.000 HD
ENDROOT
BRANCH   3   5
ATOM      5  C   UNL     1      -1.012  12.176  22.449  0.00  0.00    +0.000 A 
ATOM      6  C   UNL     1      -0.527  13.460  22.689  0.00  0.00    +0.000 A 
ATOM      7  C   UNL     1      -1.258  14.362  23.462  0.00  0.00    +0.000 A 
ATOM      8  C   UNL     1      -2.488  13.987  23.992  0.00  0.00    +0.000 A 
ATOM      9  C   UNL     1      -3.013  12.712  23.741  0.00  0.00    +0.000 A 
ATOM     10  C   UNL     1      -2.262  11.811  22.964  0.00  0.00    +0.000 A 
BRANCH   9  11
ATOM     11  C   UNL     1      -4.312  12.309  24.387  0.00  0.00    +0.000 C 
BRANCH  11  12
ATOM     12  O   UNL     1      -4.342  12.650  25.766  0.00  0.00    +0.000 OA
ATOM     13  H   UNL     1      -5.269  12.852  25.979  0.00  0.00    +0.000 HD
ENDBRANCH  11  12
ENDBRANCH   9  11
ENDBRANCH   3   5
BRANCH   2  14
ATOM     14  C   UNL     1       0.556   9.999  19.789  0.00  0.00    +0.000 A 
ATOM     15  C   UNL     1       0.891  10.011  18.433  0.00  0.00    +0.000 A 
ATOM     16  C   UNL     1       1.652   8.976  17.892  0.00  0.00    +0.000 A 
ATOM     17  C   UNL     1       2.111   7.908  18.685  0.00  0.00    +0.000 A 
ATOM     18  C   UNL     1       1.740   7.907  20.045  0.00  0.00    +0.000 A 
ATOM     19  C   UNL     1       0.962   8.934  20.594  0.00  0.00    +0.000 A 
BRANCH  17  20
ATOM     20  C   UNL     1       2.941   6.827  18.108  0.00  0.00    +0.000 A 
ATOM     21  C   UNL     1       4.113   7.117  17.384  0.00  0.00    +0.000 A 
ATOM     22  C   UNL     1       4.892   6.103  16.818  0.00  0.00    +0.000 A 
ATOM     23  C   UNL     1       4.526   4.772  16.981  0.00  0.00    +0.000 A 
ATOM     24  C   UNL     1       3.380   4.454  17.704  0.00  0.00    +0.000 A 
ATOM     25  C   UNL     1       2.595   5.471  18.257  0.00  0.00    +0.000 A 
ENDBRANCH  17  20
ENDBRANCH   2  14
TORSDOF 5
ENDMDL
MODEL 4
REMARK VINA RESULT:      -7.6      0.924      1.407
REMARK  Name = 
REMARK  5 active torsions:
REMARK  status: ('A' for Active; 'I' for Inactive)
REMARK    1  A    between atoms: C_2  and  C_12
REMARK    2  A    between atoms: N_3  and  C_4
REMARK    3  A    between atoms: C_8  and  C_9
REMARK    4  A    between atoms: C_9  and  O_10
REMARK    5  A    between atoms: C_15  and  C_16
REMARK                            x       y       z     vdW  Elec       q    Type
REMARK                         _______ _______ _______ _____ _____    ______ ____
ROOT
ATOM      1  O   UNL     1       2.790   5.407  18.507  0.00  0.00    +0.000 OA
ATOM      2  C   UNL     1       3.198   6.556  18.386  0.00  0.00    +0.000 C 
ATOM      3  N   UNL     1       4.457   6.951  17.967  0.00  0.00    +0.000 N 
ATOM      4  H   UNL     1       4.716   7.918  18.121  0.00  0.00    +0.000 HD
ENDROOT
BRANCH   3   5
ATOM      5  C   UNL     1       5.484   6.097  17.513  0.00  0.00    +0.000 A 
ATOM      6  C   UNL     1       6.394   5.485  18.372  0.00  0.00    +0.000 A 
ATOM      7  C   UNL     1       7.413   4.677  17.867  0.00  0.00    +0.000 A 
ATOM      8  C   UNL     1       7.522   4.468  16.496  0.00  0.00    +0.000 A 
ATOM      9  C   UNL     1       6.602   5.048  15.613  0.00  0.00    +0.000 A 
ATOM     10  C   UNL     1       5.583   5.864  16.135  0.00  0.00    +0.000 A 
BRANCH   9  11
ATOM     11  C   UNL     1       6.786   4.864  14.130  0.00  0.00    +0.000 C 
BRANCH  11  12
ATOM     12  O   UNL     1       7.921   5.572  13.648  0.00  0.00    +0.000 OA
ATOM     13  H   UNL     1       7.608   6.127  12.914  0.00  0.00    +0.000 HD
ENDBRANCH  11  12
ENDBRANCH   9  11
ENDBRANCH   3   5
BRANCH   2  14
ATOM     14  C   UNL     1       2.292   7.660  18.793  0.00  0.00    +0.000 A 
ATOM     15  C   UNL     1       1.882   7.723  20.127  0.00  0.00    +0.000 A 
ATOM     16  C   UNL     1       1.034   8.745  20.550  0.00  0.00    +0.000 A 
ATOM     17  C   UNL     1       0.581   9.739  19.664  0.00  0.00    +0.000 A 
ATOM     18  C   UNL     1       0.989   9.641  18.318  0.00  0.00    +0.000 A 
ATOM     19  C   UNL     1       1.827   8.608  17.879  0.00  0.00    +0.000 A 
BRANCH  17  20
ATOM     20  C   UNL     1      -0.297  10.837  20.128  0.00  0.00    +0.000 A 
ATOM     21  C   UNL     1      -1.116  11.544  19.228  0.00  0.00    +0.000 A 
ATOM     22  C   UNL     1      -1.933  12.595  19.654  0.00  0.00    +0.000 A 
ATOM     23  C   UNL     1      -1.963  12.952  20.997  0.00  0.00    +0.000 A 
ATOM     24  C   UNL     1      -1.174  12.262  21.913  0.00  0.00    +0.000 A 
ATOM     25  C   UNL     1      -0.348  11.219  21.481  0.00  0.00    +0.000 A 
ENDBRANCH  17  20
ENDBRANCH   2  14
TORSDOF 5
ENDMDL
MODEL 5
REMARK VINA RESULT:      -7.6      0.432      1.064
REMARK  Name = 
REMARK  5 active torsions:
REMARK  status: ('A' for Active; 'I' for Inactive)
REMARK    1  A    between atoms: C_2  and  C_12
REMARK    2  A    between atoms: N_3  and  C_4
REMARK    3  A    between atoms: C_8  and  C_9
REMARK    4  A    between atoms: C_9  and  O_10
REMARK    5  A    between atoms: C_15  and  C_16
REMARK                            x       y       z     vdW  Elec       q    Type
REMARK                         _______ _______ _______ _____ _____    ______ ____
ROOT
ATOM      1  O   UNL     1       2.557   5.358  18.082  0.00  0.00    +0.000 OA
ATOM      2  C   UNL     1       3.080   6.455  18.234  0.00  0.00    +0.000 C 
ATOM      3  N   UNL     1       4.394   6.794  17.961  0.00  0.00    +0.000 N 
ATOM      4  H   UNL     1       4.735   7.671  18.335  0.00  0.00    +0.000 HD
ENDROOT
BRANCH   3   5
ATOM      5  C   UNL     1       5.360   5.953  17.370  0.00  0.00    +0.000 A 
ATOM      6  C   UNL     1       6.455   5.449  18.069  0.00  0.00    +0.000 A 
ATOM      7  C   UNL     1       7.400   4.649  17.427  0.00  0.00    +0.000 A 
ATOM      8  C   UNL     1       7.251   4.340  16.079  0.00  0.00    +0.000 A 
ATOM      9  C   UNL     1       6.144   4.810  15.360  0.00  0.00    +0.000 A 
ATOM     10  C   UNL     1       5.201   5.619  16.019  0.00  0.00    +0.000 A 
BRANCH   9  11
ATOM     11  C   UNL     1       6.045   4.520  13.885  0.00  0.00    +0.000 C 
BRANCH  11  12
ATOM     12  O   UNL     1       6.348   3.162  13.595  0.00  0.00    +0.000 OA
ATOM     13  H   UNL     1       6.983   3.174  12.858  0.00  0.00    +0.000 HD
ENDBRANCH  11  12
ENDBRANCH   9  11
ENDBRANCH   3   5
BRANCH   2  14
ATOM     14  C   UNL     1       2.261   7.536  18.839  0.00  0.00    +0.000 A 
ATOM     15  C   UNL     1       1.817   8.571  18.012  0.00  0.00    +0.000 A 
ATOM     16  C   UNL     1       1.042   9.603  18.540  0.00  0.00    +0.000 A 
ATOM     17  C   UNL     1       0.676   9.628  19.898  0.00  0.00    +0.000 A 
ATOM     18  C   UNL     1       1.156   8.585  20.717  0.00  0.00    +0.000 A 
ATOM     19  C   UNL     1       1.949   7.553  20.200  0.00  0.00    +0.000 A 
BRANCH  17  20
ATOM     20  C   UNL     1      -0.170  10.713  20.444  0.00  0.00    +0.000 A 
ATOM     21  C   UNL     1      -0.189  10.998  21.823  0.00  0.00    +0.000 A 
ATOM     22  C   UNL     1      -1.001  12.007  22.349  0.00  0.00    +0.000 A 
ATOM     23  C   UNL     1      -1.800  12.768  21.504  0.00  0.00    +0.000 A 
ATOM     24  C   UNL     1      -1.792  12.519  20.136  0.00  0.00    +0.000 A 
ATOM     25  C   UNL     1      -0.989  11.499  19.613  0.00  0.00    +0.000 A 
ENDBRANCH  17  20
ENDBRANCH   2  14
TORSDOF 5
ENDMDL
MODEL 6
REMARK VINA RESULT:      -7.5      3.812     10.067
REMARK  Name = 
REMARK  5 active torsions:
REMARK  status: ('A' for Active; 'I' for Inactive)
REMARK    1  A    between atoms: C_2  and  C_12
REMARK    2  A    between atoms: N_3  and  C_4
REMARK    3  A    between atoms: C_8  and  C_9
REMARK    4  A    between atoms: C_9  and  O_10
REMARK    5  A    between atoms: C_15  and  C_16
REMARK                            x       y       z     vdW  Elec       q    Type
REMARK                         _______ _______ _______ _____ _____    ______ ____
ROOT
ATOM      1  O   UNL     1      -0.907  11.968  19.459  0.00  0.00    +0.000 OA
ATOM      2  C   UNL     1      -0.303  11.235  20.234  0.00  0.00    +0.000 C 
ATOM      3  N   UNL     1      -0.256  11.343  21.613  0.00  0.00    +0.000 N 
ATOM      4  H   UNL     1       0.450  10.802  22.097  0.00  0.00    +0.000 HD
ENDROOT
BRANCH   3   5
ATOM      5  C   UNL     1      -0.973  12.272  22.396  0.00  0.00    +0.000 A 
ATOM      6  C   UNL     1      -0.503  13.555  22.669  0.00  0.00    +0.000 A 
ATOM      7  C   UNL     1      -1.236  14.422  23.479  0.00  0.00    +0.000 A 
ATOM      8  C   UNL     1      -2.453  14.014  24.014  0.00  0.00    +0.000 A 
ATOM      9  C   UNL     1      -2.963  12.740  23.731  0.00  0.00    +0.000 A 
ATOM     10  C   UNL     1      -2.211  11.874  22.917  0.00  0.00    +0.000 A 
BRANCH   9  11
ATOM     11  C   UNL     1      -4.248  12.298  24.381  0.00  0.00    +0.000 C 
BRANCH  11  12
ATOM     12  O   UNL     1      -4.315  12.704  25.741  0.00  0.00    +0.000 OA
ATOM     13  H   UNL     1      -5.089  13.287  25.817  0.00  0.00    +0.000 HD
ENDBRANCH  11  12
ENDBRANCH   9  11
ENDBRANCH   3   5
BRANCH   2  14
ATOM     14  C   UNL     1       0.533  10.153  19.655  0.00  0.00    +0.000 A 
ATOM     15  C   UNL     1       0.874   9.071  20.471  0.00  0.00    +0.000 A 
ATOM     16  C   UNL     1       1.653   8.032  19.965  0.00  0.00    +0.000 A 
ATOM     17  C   UNL     1       2.103   8.033  18.632  0.00  0.00    +0.000 A 
ATOM     18  C   UNL     1       1.766   9.146  17.835  0.00  0.00    +0.000 A 
ATOM     19  C   UNL     1       0.998  10.203  18.340  0.00  0.00    +0.000 A 
BRANCH  17  20
ATOM     20  C   UNL     1       2.907   6.912  18.095  0.00  0.00    +0.000 A 
ATOM     21  C   UNL     1       4.103   7.146  17.390  0.00  0.00    +0.000 A 
ATOM     22  C   UNL     1       4.858   6.094  16.862  0.00  0.00    +0.000 A 
ATOM     23  C   UNL     1       4.442   4.780  17.043  0.00  0.00    +0.000 A 
ATOM     24  C   UNL     1       3.271   4.517  17.747  0.00  0.00    +0.000 A 
ATOM     25  C   UNL     1       2.511   5.572  18.263  0.00  0.00    +0.000 A 
ENDBRANCH  17  20
ENDBRANCH   2  14
TORSDOF 5
ENDMDL
MODEL 7
REMARK VINA RESULT:      -7.4      2.477      3.950
REMARK  Name = 
REMARK  5 active torsions:
REMARK  status: ('A' for Active; 'I' for Inactive)
REMARK    1  A    between atoms: C_2  and  C_12
REMARK    2  A    between atoms: N_3  and  C_4
REMARK    3  A    between atoms: C_8  and  C_9
REMARK    4  A    between atoms: C_9  and  O_10
REMARK    5  A    between atoms: C_15  and  C_16
REMARK                            x       y       z     vdW  Elec       q    Type
REMARK                         _______ _______ _______ _____ _____    ______ ____
ROOT
ATOM      1  O   UNL     1       1.836   8.433  19.129  0.00  0.00    +0.000 OA
ATOM      2  C   UNL     1       1.418   8.145  20.245  0.00  0.00    +0.000 C 
ATOM      3  N   UNL     1       1.516   6.918  20.878  0.00  0.00    +0.000 N 
ATOM      4  H   UNL     1       0.942   6.772  21.699  0.00  0.00    +0.000 HD
ENDROOT
BRANCH   3   5
ATOM      5  C   UNL     1       2.199   5.786  20.387  0.00  0.00    +0.000 A 
ATOM      6  C   UNL     1       1.675   4.497  20.456  0.00  0.00    +0.000 A 
ATOM      7  C   UNL     1       2.408   3.406  19.987  0.00  0.00    +0.000 A 
ATOM      8  C   UNL     1       3.669   3.600  19.434  0.00  0.00    +0.000 A 
ATOM      9  C   UNL     1       4.207   4.890  19.325  0.00  0.00    +0.000 A 
ATOM     10  C   UNL     1       3.460   5.980  19.807  0.00  0.00    +0.000 A 
BRANCH   9  11
ATOM     11  C   UNL     1       5.604   5.064  18.789  0.00  0.00    +0.000 C 
BRANCH  11  12
ATOM     12  O   UNL     1       6.237   3.813  18.556  0.00  0.00    +0.000 OA
ATOM     13  H   UNL     1       5.916   3.209  19.247  0.00  0.00    +0.000 HD
ENDBRANCH  11  12
ENDBRANCH   9  11
ENDBRANCH   3   5
BRANCH   2  14
ATOM     14  C   UNL     1       0.661   9.182  20.990  0.00  0.00    +0.000 A 
ATOM     15  C   UNL     1       0.329  10.366  20.326  0.00  0.00    +0.000 A 
ATOM     16  C   UNL     1      -0.385  11.363  20.988  0.00  0.00    +0.000 A 
ATOM     17  C   UNL     1      -0.799  11.208  22.324  0.00  0.00    +0.000 A 
ATOM     18  C   UNL     1      -0.433  10.015  22.980  0.00  0.00    +0.000 A 
ATOM     19  C   UNL     1       0.299   9.014  22.328  0.00  0.00    +0.000 A 
BRANCH  17  20
ATOM     20  C   UNL     1      -1.581  12.260  23.011  0.00  0.00    +0.000 A 
ATOM     21  C   UNL     1      -1.025  13.527  23.270  0.00  0.00    +0.000 A 
ATOM     22  C   UNL     1      -1.748  14.521  23.936  0.00  0.00    +0.000 A 
ATOM     23  C   UNL     1      -3.055  14.275  24.343  0.00  0.00    +0.000 A 
ATOM     24  C   UNL     1      -3.636  13.036  24.088  0.00  0.00    +0.000 A 
ATOM     25  C   UNL     1      -2.904  12.040  23.433  0.00  0.00    +0.000 A 
ENDBRANCH  17  20
ENDBRANCH   2  14
TORSDOF 5
ENDMDL
MODEL 8
REMARK VINA RESULT:      -7.4      2.960      3.927
REMARK  Name = 
REMARK  5 active torsions:
REMARK  status: ('A' for Active; 'I' for Inactive)
REMARK    1  A    between atoms: C_2  and  C_12
REMARK    2  A    between atoms: N_3  and  C_4
REMARK    3  A    between atoms: C_8  and  C_9
REMARK    4  A    between atoms: C_9  and  O_10
REMARK    5  A    between atoms: C_15  and  C_16
REMARK                            x       y       z     vdW  Elec       q    Type
REMARK                         _______ _______ _______ _____ _____    ______ ____
ROOT
ATOM      1  O   UNL     1       2.165   8.223  18.767  0.00  0.00    +0.000 OA
ATOM      2  C   UNL     1       1.755   7.933  19.885  0.00  0.00    +0.000 C 
ATOM      3  N   UNL     1       1.853   6.704  20.513  0.00  0.00    +0.000 N 
ATOM      4  H   UNL     1       1.284   6.558  21.339  0.00  0.00    +0.000 HD
ENDROOT
BRANCH   3   5
ATOM      5  C   UNL     1       2.525   5.570  20.013  0.00  0.00    +0.000 A 
ATOM      6  C   UNL     1       3.881   5.575  19.691  0.00  0.00    +0.000 A 
ATOM      7  C   UNL     1       4.490   4.434  19.166  0.00  0.00    +0.000 A 
ATOM      8  C   UNL     1       3.746   3.276  18.969  0.00  0.00    +0.000 A 
ATOM      9  C   UNL     1       2.388   3.235  19.311  0.00  0.00    +0.000 A 
ATOM     10  C   UNL     1       1.786   4.393  19.835  0.00  0.00    +0.000 A 
BRANCH   9  11
ATOM     11  C   UNL     1       1.591   1.992  19.020  0.00  0.00    +0.000 C 
BRANCH  11  12
ATOM     12  O   UNL     1       0.301   2.301  18.510  0.00  0.00    +0.000 OA
ATOM     13  H   UNL     1       0.191   3.263  18.606  0.00  0.00    +0.000 HD
ENDBRANCH  11  12
ENDBRANCH   9  11
ENDBRANCH   3   5
BRANCH   2  14
ATOM     14  C   UNL     1       1.009   8.973  20.640  0.00  0.00    +0.000 A 
ATOM     15  C   UNL     1       0.644  10.143  19.970  0.00  0.00    +0.000 A 
ATOM     16  C   UNL     1      -0.061  11.141  20.641  0.00  0.00    +0.000 A 
ATOM     17  C   UNL     1      -0.431  10.999  21.991  0.00  0.00    +0.000 A 
ATOM     18  C   UNL     1      -0.030   9.820  22.652  0.00  0.00    +0.000 A 
ATOM     19  C   UNL     1       0.692   8.819  21.991  0.00  0.00    +0.000 A 
BRANCH  17  20
ATOM     20  C   UNL     1      -1.203  12.052  22.688  0.00  0.00    +0.000 A 
ATOM     21  C   UNL     1      -2.477  11.787  23.225  0.00  0.00    +0.000 A 
ATOM     22  C   UNL     1      -3.222  12.781  23.866  0.00  0.00    +0.000 A 
ATOM     23  C   UNL     1      -2.699  14.061  24.004  0.00  0.00    +0.000 A 
ATOM     24  C   UNL     1      -1.436  14.350  23.496  0.00  0.00    +0.000 A 
ATOM     25  C   UNL     1      -0.700  13.357  22.842  0.00  0.00    +0.000 A 
ENDBRANCH  17  20
ENDBRANCH   2  14
TORSDOF 5
ENDMDL
MODEL 9
REMARK VINA RESULT:      -7.4      1.878      2.727
REMARK  Name = 
REMARK  5 active torsions:
REMARK  status: ('A' for Active; 'I' for Inactive)
REMARK    1  A    between atoms: C_2  and  C_12
REMARK    2  A    between atoms: N_3  and  C_4
REMARK    3  A    between atoms: C_8  and  C_9
REMARK    4  A    between atoms: C_9  and  O_10
REMARK    5  A    between atoms: C_15  and  C_16
REMARK                            x       y       z     vdW  Elec       q    Type
REMARK                         _______ _______ _______ _____ _____    ______ ____
ROOT
ATOM      1  O   UNL     1       2.524   8.475  17.344  0.00  0.00    +0.000 OA
ATOM      2  C   UNL     1       2.152   8.061  18.437  0.00  0.00    +0.000 C 
ATOM      3  N   UNL     1       2.223   6.759  18.900  0.00  0.00    +0.000 N 
ATOM      4  H   UNL     1       1.687   6.531  19.728  0.00  0.00    +0.000 HD
ENDROOT
BRANCH   3   5
ATOM      5  C   UNL     1       2.823   5.673  18.229  0.00  0.00    +0.000 A 
ATOM      6  C   UNL     1       2.102   4.565  17.788  0.00  0.00    +0.000 A 
ATOM      7  C   UNL     1       2.750   3.501  17.160  0.00  0.00    +0.000 A 
ATOM      8  C   UNL     1       4.126   3.544  16.959  0.00  0.00    +0.000 A 
ATOM      9  C   UNL     1       4.870   4.659  17.366  0.00  0.00    +0.000 A 
ATOM     10  C   UNL     1       4.204   5.723  18.003  0.00  0.00    +0.000 A 
BRANCH   9  11
ATOM     11  C   UNL     1       6.366   4.648  17.202  0.00  0.00    +0.000 C 
BRANCH  11  12
ATOM     12  O   UNL     1       7.022   4.201  18.381  0.00  0.00    +0.000 OA
ATOM     13  H   UNL     1       6.322   4.001  19.026  0.00  0.00    +0.000 HD
ENDBRANCH  11  12
ENDBRANCH   9  11
ENDBRANCH   3   5
BRANCH   2  14
ATOM     14  C   UNL     1       1.487   9.023  19.352  0.00  0.00    +0.000 A 
ATOM     15  C   UNL     1       1.123  10.274  18.847  0.00  0.00    +0.000 A 
ATOM     16  C   UNL     1       0.493  11.204  19.672  0.00  0.00    +0.000 A 
ATOM     17  C   UNL     1       0.197  10.914  21.016  0.00  0.00    +0.000 A 
ATOM     18  C   UNL     1       0.596   9.655  21.509  0.00  0.00    +0.000 A 
ATOM     19  C   UNL     1       1.244   8.720  20.693  0.00  0.00    +0.000 A 
BRANCH  17  20
ATOM     20  C   UNL     1      -0.497  11.898  21.877  0.00  0.00    +0.000 A 
ATOM     21  C   UNL     1      -0.091  13.245  21.917  0.00  0.00    +0.000 A 
ATOM     22  C   UNL     1      -0.727  14.176  22.743  0.00  0.00    +0.000 A 
ATOM     23  C   UNL     1      -1.799  13.784  23.536  0.00  0.00    +0.000 A 
ATOM     24  C   UNL     1      -2.233  12.463  23.507  0.00  0.00    +0.000 A 
ATOM     25  C   UNL     1      -1.585  11.530  22.690  0.00  0.00    +0.000 A 
ENDBRANCH  17  20
ENDBRANCH   2  14
TORSDOF 5
ENDMDL
