MODEL 1
REMARK VINA RESULT:      -7.7      0.000      0.000
REMARK  Name = 
REMARK  6 active torsions:
REMARK  status: ('A' for Active; 'I' for Inactive)
REMARK    1  A    between atoms: C_1  and  S_2
REMARK    2  A    between atoms: S_2  and  N_5
REMARK    3  A    between atoms: C_11  and  N_12
REMARK    4  A    between atoms: N_12  and  C_13
REMARK    5  A    between atoms: C_13  and  C_14
REMARK    6  A    between atoms: C_14  and  N_15
REMARK                            x       y       z     vdW  Elec       q    Type
REMARK                         _______ _______ _______ _____ _____    ______ ____
ROOT
ATOM      1  N   UNL     1       1.625   3.253  19.024  0.00  0.00    +0.000 NA
ATOM      2  C   UNL     1       1.843   4.643  18.477  0.00  0.00    +0.000 C 
ATOM      3  C   UNL     1       3.341   4.960  18.319  0.00  0.00    +0.000 C 
ATOM      4  N   UNL     1       3.966   3.943  17.474  0.00  0.00    +0.000 N 
ATOM      5  C   UNL     1       5.033   4.257  16.665  0.00  0.00    +0.000 A 
ATOM      6  C   UNL     1       5.914   5.281  16.980  0.00  0.00    +0.000 A 
ATOM      7  C   UNL     1       6.904   5.691  16.083  0.00  0.00    +0.000 A 
ATOM      8  C   UNL     1       6.879   5.115  14.786  0.00  0.00    +0.000 A 
ATOM      9  C   UNL     1       7.682   5.541  13.693  0.00  0.00    +0.000 A 
ATOM     10  C   UNL     1       7.598   4.919  12.445  0.00  0.00    +0.000 A 
ATOM     11  C   UNL     1       6.730   3.852  12.266  0.00  0.00    +0.000 A 
ATOM     12  C   UNL     1       5.938   3.426  13.332  0.00  0.00    +0.000 A 
ATOM     13  C   UNL     1       5.984   4.040  14.572  0.00  0.00    +0.000 A 
ATOM     14  N   UNL     1       5.128   3.597  15.501  0.00  0.00    +0.000 NA
ATOM     15  C   UNL     1       3.765   2.540  17.838  0.00  0.00    +0.000 C 
ATOM     16  C   UNL     1       2.272   2.259  18.094  0.00  0.00    +0.000 C 
ENDROOT
BRANCH   1  18
ATOM     17  C   UNL     1       2.055   4.832  21.212  0.00  0.00    +0.000 C 
ATOM     18  S   UNL     1       1.944   3.137  20.686  0.00  0.00    +0.000 S 
ATOM     19  O   UNL     1       3.258   2.541  20.824  0.00  0.00    +0.000 OA
ATOM     20  O   UNL     1       0.799   2.543  21.335  0.00  0.00    +0.000 OA
ENDBRANCH   1  18
BRANCH   7  21
ATOM     21  N   UNL     1       7.789   6.734  16.428  0.00  0.00    +0.000 N 
ATOM     22  H   UNL     1       8.754   6.538  16.188  0.00  0.00    +0.000 HD
BRANCH  21  23
ATOM     23  C   UNL     1       7.714   7.320  17.782  0.00  0.00    +0.000 C 
BRANCH  23  24
ATOM     24  C   UNL     1       8.123   8.809  17.810  0.00  0.00    +0.000 C 
BRANCH  24  25
ATOM     25  N   UNL     1       8.893   9.153  19.012  0.00  0.00    +0.000 NA
ATOM     26  H   UNL     1       8.921   8.327  19.613  0.00  0.00    +0.000 HD
ATOM     27  H   UNL     1       8.372   9.854  19.541  0.00  0.00    +0.000 HD
ENDBRANCH  24  25
ENDBRANCH  23  24
ENDBRANCH  21  23
ENDBRANCH   7  21
TORSDOF 5
ENDMDL
MODEL 2
REMARK VINA RESULT:      -7.7      4.772      6.298
REMARK  Name = 
REMARK  6 active torsions:
REMARK  status: ('A' for Active; 'I' for Inactive)
REMARK    1  A    between atoms: C_1  and  S_2
REMARK    2  A    between atoms: S_2  and  N_5
REMARK    3  A    between atoms: C_11  and  N_12
REMARK    4  A    between atoms: N_12  and  C_13
REMARK    5  A    between atoms: C_13  and  C_14
REMARK    6  A    between atoms: C_14  and  N_15
REMARK                            x       y       z     vdW  Elec       q    Type
REMARK                         _______ _______ _______ _____ _____    ______ ____
ROOT
ATOM      1  N   UNL     1       0.267  10.489  19.738  0.00  0.00    +0.000 NA
ATOM      2  C   UNL     1       0.330   9.959  18.326  0.00  0.00    +0.000 C 
ATOM      3  C   UNL     1       1.665   9.243  18.049  0.00  0.00    +0.000 C 
ATOM      4  N   UNL     1       1.858   8.179  19.034  0.00  0.00    +0.000 N 
ATOM      5  C   UNL     1       2.543   7.033  18.708  0.00  0.00    +0.000 A 
ATOM      6  C   UNL     1       3.530   7.021  17.734  0.00  0.00    +0.000 A 
ATOM      7  C   UNL     1       4.116   5.828  17.304  0.00  0.00    +0.000 A 
ATOM      8  C   UNL     1       3.559   4.620  17.801  0.00  0.00    +0.000 A 
ATOM      9  C   UNL     1       3.897   3.320  17.338  0.00  0.00    +0.000 A 
ATOM     10  C   UNL     1       3.303   2.179  17.881  0.00  0.00    +0.000 A 
ATOM     11  C   UNL     1       2.379   2.307  18.907  0.00  0.00    +0.000 A 
ATOM     12  C   UNL     1       2.040   3.578  19.370  0.00  0.00    +0.000 A 
ATOM     13  C   UNL     1       2.596   4.727  18.832  0.00  0.00    +0.000 A 
ATOM     14  N   UNL     1       2.144   5.897  19.300  0.00  0.00    +0.000 NA
ATOM     15  C   UNL     1       1.740   8.534  20.449  0.00  0.00    +0.000 C 
ATOM     16  C   UNL     1       0.449   9.340  20.695  0.00  0.00    +0.000 C 
ENDROOT
BRANCH   1  18
ATOM     17  C   UNL     1       0.025  13.211  19.773  0.00  0.00    +0.000 C 
ATOM     18  S   UNL     1       1.199  11.889  19.962  0.00  0.00    +0.000 S 
ATOM     19  O   UNL     1       2.130  11.959  18.854  0.00  0.00    +0.000 OA
ATOM     20  O   UNL     1       1.679  11.911  21.324  0.00  0.00    +0.000 OA
ENDBRANCH   1  18
BRANCH   7  21
ATOM     21  N   UNL     1       5.119   5.844  16.312  0.00  0.00    +0.000 N 
ATOM     22  H   UNL     1       5.039   5.082  15.647  0.00  0.00    +0.000 HD
BRANCH  21  23
ATOM     23  C   UNL     1       6.528   6.012  16.721  0.00  0.00    +0.000 C 
BRANCH  23  24
ATOM     24  C   UNL     1       7.273   4.666  16.861  0.00  0.00    +0.000 C 
BRANCH  24  25
ATOM     25  N   UNL     1       7.584   4.345  18.260  0.00  0.00    +0.000 NA
ATOM     26  H   UNL     1       7.964   5.186  18.697  0.00  0.00    +0.000 HD
ATOM     27  H   UNL     1       8.345   3.665  18.274  0.00  0.00    +0.000 HD
ENDBRANCH  24  25
ENDBRANCH  23  24
ENDBRANCH  21  23
ENDBRANCH   7  21
TORSDOF 5
ENDMDL
MODEL 3
REMARK VINA RESULT:      -7.3      5.015      7.085
REMARK  Name = 
REMARK  6 active torsions:
REMARK  status: ('A' for Active; 'I' for Inactive)
REMARK    1  A    between atoms: C_1  and  S_2
REMARK    2  A    between atoms: S_2  and  N_5
REMARK    3  A    between atoms: C_11  and  N_12
REMARK    4  A    between atoms: N_12  and  C_13
REMARK    5  A    between atoms: C_13  and  C_14
REMARK    6  A    between atoms: C_14  and  N_15
REMARK                            x       y       z     vdW  Elec       q    Type
REMARK                         _______ _______ _______ _____ _____    ______ ____
ROOT
ATOM      1  N   UNL     1       0.124  10.926  19.757  0.00  0.00    +0.000 NA
ATOM      2  C   UNL     1       0.254  10.140  18.476  0.00  0.00    +0.000 C 
ATOM      3  C   UNL     1       1.542   9.296  18.458  0.00  0.00    +0.000 C 
ATOM      4  N   UNL     1       1.566   8.424  19.632  0.00  0.00    +0.000 N 
ATOM      5  C   UNL     1       2.176   7.192  19.582  0.00  0.00    +0.000 A 
ATOM      6  C   UNL     1       3.234   6.933  18.723  0.00  0.00    +0.000 A 
ATOM      7  C   UNL     1       3.749   5.643  18.571  0.00  0.00    +0.000 A 
ATOM      8  C   UNL     1       3.055   4.590  19.222  0.00  0.00    +0.000 A 
ATOM      9  C   UNL     1       3.319   3.206  19.034  0.00  0.00    +0.000 A 
ATOM     10  C   UNL     1       2.590   2.229  19.715  0.00  0.00    +0.000 A 
ATOM     11  C   UNL     1       1.600   2.609  20.609  0.00  0.00    +0.000 A 
ATOM     12  C   UNL     1       1.334   3.964  20.802  0.00  0.00    +0.000 A 
ATOM     13  C   UNL     1       2.025   4.952  20.123  0.00  0.00    +0.000 A 
ATOM     14  N   UNL     1       1.638   6.216  20.329  0.00  0.00    +0.000 NA
ATOM     15  C   UNL     1       1.365   9.043  20.943  0.00  0.00    +0.000 C 
ATOM     16  C   UNL     1       0.132   9.966  20.918  0.00  0.00    +0.000 C 
ENDROOT
BRANCH   1  18
ATOM     17  C   UNL     1       0.061  13.645  19.489  0.00  0.00    +0.000 C 
ATOM     18  S   UNL     1       1.149  12.277  19.813  0.00  0.00    +0.000 S 
ATOM     19  O   UNL     1       2.063  12.161  18.695  0.00  0.00    +0.000 OA
ATOM     20  O   UNL     1       1.653  12.418  21.159  0.00  0.00    +0.000 OA
ENDBRANCH   1  18
BRANCH   7  21
ATOM     21  N   UNL     1       4.826   5.406  17.692  0.00  0.00    +0.000 N 
ATOM     22  H   UNL     1       5.729   5.396  18.155  0.00  0.00    +0.000 HD
BRANCH  21  23
ATOM     23  C   UNL     1       4.912   6.181  16.437  0.00  0.00    +0.000 C 
BRANCH  23  24
ATOM     24  C   UNL     1       5.849   5.528  15.396  0.00  0.00    +0.000 C 
BRANCH  24  25
ATOM     25  N   UNL     1       7.264   5.653  15.766  0.00  0.00    +0.000 NA
ATOM     26  H   UNL     1       7.499   6.647  15.777  0.00  0.00    +0.000 HD
ATOM     27  H   UNL     1       7.831   5.251  15.019  0.00  0.00    +0.000 HD
ENDBRANCH  24  25
ENDBRANCH  23  24
ENDBRANCH  21  23
ENDBRANCH   7  21
TORSDOF 5
ENDMDL
MODEL 4
REMARK VINA RESULT:      -7.3      5.103      7.012
REMARK  Name = 
REMARK  6 active torsions:
REMARK  status: ('A' for Active; 'I' for Inactive)
REMARK    1  A    between atoms: C_1  and  S_2
REMARK    2  A    between atoms: S_2  and  N_5
REMARK    3  A    between atoms: C_11  and  N_12
REMARK    4  A    between atoms: N_12  and  C_13
REMARK    5  A    between atoms: C_13  and  C_14
REMARK    6  A    between atoms: C_14  and  N_15
REMARK                            x       y       z     vdW  Elec       q    Type
REMARK                         _______ _______ _______ _____ _____    ______ ____
ROOT
ATOM      1  N   UNL     1      -0.099  10.895  19.325  0.00  0.00    +0.000 NA
ATOM      2  C   UNL     1      -0.060   9.966  18.136  0.00  0.00    +0.000 C 
ATOM      3  C   UNL     1       1.300   9.253  18.018  0.00  0.00    +0.000 C 
ATOM      4  N   UNL     1       1.584   8.544  19.266  0.00  0.00    +0.000 N 
ATOM      5  C   UNL     1       2.316   7.380  19.264  0.00  0.00    +0.000 A 
ATOM      6  C   UNL     1       3.266   7.114  18.290  0.00  0.00    +0.000 A 
ATOM      7  C   UNL     1       3.897   5.870  18.208  0.00  0.00    +0.000 A 
ATOM      8  C   UNL     1       3.423   4.848  19.071  0.00  0.00    +0.000 A 
ATOM      9  C   UNL     1       3.811   3.483  19.002  0.00  0.00    +0.000 A 
ATOM     10  C   UNL     1       3.298   2.536  19.892  0.00  0.00    +0.000 A 
ATOM     11  C   UNL     1       2.406   2.932  20.877  0.00  0.00    +0.000 A 
ATOM     12  C   UNL     1       2.018   4.269  20.954  0.00  0.00    +0.000 A 
ATOM     13  C   UNL     1       2.493   5.223  20.070  0.00  0.00    +0.000 A 
ATOM     14  N   UNL     1       1.999   6.461  20.189  0.00  0.00    +0.000 NA
ATOM     15  C   UNL     1       1.499   9.304  20.514  0.00  0.00    +0.000 C 
ATOM     16  C   UNL     1       0.178  10.096  20.572  0.00  0.00    +0.000 C 
ENDROOT
BRANCH   1  18
ATOM     17  C   UNL     1       0.962  12.999  20.709  0.00  0.00    +0.000 C 
ATOM     18  S   UNL     1       0.766  12.332  19.073  0.00  0.00    +0.000 S 
ATOM     19  O   UNL     1      -0.102  13.223  18.330  0.00  0.00    +0.000 OA
ATOM     20  O   UNL     1       2.078  11.999  18.568  0.00  0.00    +0.000 OA
ENDBRANCH   1  18
BRANCH   7  21
ATOM     21  N   UNL     1       4.862   5.626  17.209  0.00  0.00    +0.000 N 
ATOM     22  H   UNL     1       4.869   4.665  16.884  0.00  0.00    +0.000 HD
BRANCH  21  23
ATOM     23  C   UNL     1       6.246   6.100  17.415  0.00  0.00    +0.000 C 
BRANCH  23  24
ATOM     24  C   UNL     1       7.141   5.044  18.101  0.00  0.00    +0.000 C 
BRANCH  24  25
ATOM     25  N   UNL     1       7.894   4.238  17.132  0.00  0.00    +0.000 NA
ATOM     26  H   UNL     1       7.233   3.626  16.652  0.00  0.00    +0.000 HD
ATOM     27  H   UNL     1       8.517   3.613  17.645  0.00  0.00    +0.000 HD
ENDBRANCH  24  25
ENDBRANCH  23  24
ENDBRANCH  21  23
ENDBRANCH   7  21
TORSDOF 5
ENDMDL
MODEL 5
REMARK VINA RESULT:      -7.3      5.116      7.180
REMARK  Name = 
REMARK  6 active torsions:
REMARK  status: ('A' for Active; 'I' for Inactive)
REMARK    1  A    between atoms: C_1  and  S_2
REMARK    2  A    between atoms: S_2  and  N_5
REMARK    3  A    between atoms: C_11  and  N_12
REMARK    4  A    between atoms: N_12  and  C_13
REMARK    5  A    between atoms: C_13  and  C_14
REMARK    6  A    between atoms: C_14  and  N_15
REMARK                            x       y       z     vdW  Elec       q    Type
REMARK                         _______ _______ _______ _____ _____    ______ ____
ROOT
ATOM      1  N   UNL     1      -0.429  10.843  21.123  0.00  0.00    +0.000 NA
ATOM      2  C   UNL     1      -0.513  10.230  19.746  0.00  0.00    +0.000 C 
ATOM      3  C   UNL     1       0.810   9.551  19.347  0.00  0.00    +0.000 C 
ATOM      4  N   UNL     1       1.169   8.558  20.359  0.00  0.00    +0.000 N 
ATOM      5  C   UNL     1       1.861   7.420  20.015  0.00  0.00    +0.000 A 
ATOM      6  C   UNL     1       2.722   7.386  18.929  0.00  0.00    +0.000 A 
ATOM      7  C   UNL     1       3.305   6.192  18.498  0.00  0.00    +0.000 A 
ATOM      8  C   UNL     1       2.868   4.997  19.127  0.00  0.00    +0.000 A 
ATOM      9  C   UNL     1       3.206   3.684  18.700  0.00  0.00    +0.000 A 
ATOM     10  C   UNL     1       2.734   2.557  19.376  0.00  0.00    +0.000 A 
ATOM     11  C   UNL     1       1.936   2.713  20.499  0.00  0.00    +0.000 A 
ATOM     12  C   UNL     1       1.599   3.996  20.927  0.00  0.00    +0.000 A 
ATOM     13  C   UNL     1       2.032   5.130  20.262  0.00  0.00    +0.000 A 
ATOM     14  N   UNL     1       1.588   6.308  20.716  0.00  0.00    +0.000 NA
ATOM     15  C   UNL     1       1.206   8.994  21.756  0.00  0.00    +0.000 C 
ATOM     16  C   UNL     1      -0.080   9.763  22.113  0.00  0.00    +0.000 C 
ENDROOT
BRANCH   1  18
ATOM     17  C   UNL     1      -0.066  13.135  19.678  0.00  0.00    +0.000 C 
ATOM     18  S   UNL     1       0.459  12.289  21.151  0.00  0.00    +0.000 S 
ATOM     19  O   UNL     1       1.854  11.932  20.987  0.00  0.00    +0.000 OA
ATOM     20  O   UNL     1       0.033  13.070  22.289  0.00  0.00    +0.000 OA
ENDBRANCH   1  18
BRANCH   7  21
ATOM     21  N   UNL     1       4.179   6.185  17.392  0.00  0.00    +0.000 N 
ATOM     22  H   UNL     1       3.963   5.463  16.713  0.00  0.00    +0.000 HD
BRANCH  21  23
ATOM     23  C   UNL     1       5.637   6.236  17.628  0.00  0.00    +0.000 C 
BRANCH  23  24
ATOM     24  C   UNL     1       6.379   5.020  17.033  0.00  0.00    +0.000 C 
BRANCH  24  25
ATOM     25  N   UNL     1       7.088   4.244  18.058  0.00  0.00    +0.000 NA
ATOM     26  H   UNL     1       6.927   3.253  17.868  0.00  0.00    +0.000 HD
ATOM     27  H   UNL     1       6.647   4.421  18.961  0.00  0.00    +0.000 HD
ENDBRANCH  24  25
ENDBRANCH  23  24
ENDBRANCH  21  23
ENDBRANCH   7  21
TORSDOF 5
ENDMDL
MODEL 6
REMARK VINA RESULT:      -7.3      0.848      1.008
REMARK  Name = 
REMARK  6 active torsions:
REMARK  status: ('A' for Active; 'I' for Inactive)
REMARK    1  A    between atoms: C_1  and  S_2
REMARK    2  A    between atoms: S_2  and  N_5
REMARK    3  A    between atoms: C_11  and  N_12
REMARK    4  A    between atoms: N_12  and  C_13
REMARK    5  A    between atoms: C_13  and  C_14
REMARK    6  A    between atoms: C_14  and  N_15
REMARK                            x       y       z     vdW  Elec       q    Type
REMARK                         _______ _______ _______ _____ _____    ______ ____
ROOT
ATOM      1  N   UNL     1       1.959   3.176  19.592  0.00  0.00    +0.000 NA
ATOM      2  C   UNL     1       2.076   4.552  18.982  0.00  0.00    +0.000 C 
ATOM      3  C   UNL     1       3.545   4.934  18.724  0.00  0.00    +0.000 C 
ATOM      4  N   UNL     1       4.170   3.915  17.881  0.00  0.00    +0.000 N 
ATOM      5  C   UNL     1       5.171   4.247  16.999  0.00  0.00    +0.000 A 
ATOM      6  C   UNL     1       6.016   5.323  17.221  0.00  0.00    +0.000 A 
ATOM      7  C   UNL     1       6.931   5.744  16.253  0.00  0.00    +0.000 A 
ATOM      8  C   UNL     1       6.859   5.116  14.981  0.00  0.00    +0.000 A 
ATOM      9  C   UNL     1       7.575   5.535  13.828  0.00  0.00    +0.000 A 
ATOM     10  C   UNL     1       7.450   4.860  12.611  0.00  0.00    +0.000 A 
ATOM     11  C   UNL     1       6.628   3.747  12.524  0.00  0.00    +0.000 A 
ATOM     12  C   UNL     1       5.922   3.327  13.650  0.00  0.00    +0.000 A 
ATOM     13  C   UNL     1       6.009   3.991  14.862  0.00  0.00    +0.000 A 
ATOM     14  N   UNL     1       5.231   3.546  15.856  0.00  0.00    +0.000 NA
ATOM     15  C   UNL     1       4.060   2.519  18.308  0.00  0.00    +0.000 C 
ATOM     16  C   UNL     1       2.600   2.178  18.663  0.00  0.00    +0.000 C 
ENDROOT
BRANCH   1  18
ATOM     17  C   UNL     1       1.007   2.314  22.005  0.00  0.00    +0.000 C 
ATOM     18  S   UNL     1       2.380   3.143  21.236  0.00  0.00    +0.000 S 
ATOM     19  O   UNL     1       2.387   4.516  21.699  0.00  0.00    +0.000 OA
ATOM     20  O   UNL     1       3.549   2.311  21.396  0.00  0.00    +0.000 OA
ENDBRANCH   1  18
BRANCH   7  21
ATOM     21  N   UNL     1       7.781   6.840  16.505  0.00  0.00    +0.000 N 
ATOM     22  H   UNL     1       8.714   6.721  16.126  0.00  0.00    +0.000 HD
BRANCH  21  23
ATOM     23  C   UNL     1       7.858   7.388  17.875  0.00  0.00    +0.000 C 
BRANCH  23  24
ATOM     24  C   UNL     1       8.190   8.897  17.896  0.00  0.00    +0.000 C 
BRANCH  24  25
ATOM     25  N   UNL     1       8.903   9.293  19.116  0.00  0.00    +0.000 NA
ATOM     26  H   UNL     1       8.361  10.030  19.571  0.00  0.00    +0.000 HD
ATOM     27  H   UNL     1       9.784   9.734  18.848  0.00  0.00    +0.000 HD
ENDBRANCH  24  25
ENDBRANCH  23  24
ENDBRANCH  21  23
ENDBRANCH   7  21
TORSDOF 5
ENDMDL
MODEL 7
REMARK VINA RESULT:      -7.2      5.160      7.244
REMARK  Name = 
REMARK  6 active torsions:
REMARK  status: ('A' for Active; 'I' for Inactive)
REMARK    1  A    between atoms: C_1  and  S_2
REMARK    2  A    between atoms: S_2  and  N_5
REMARK    3  A    between atoms: C_11  and  N_12
REMARK    4  A    between atoms: N_12  and  C_13
REMARK    5  A    between atoms: C_13  and  C_14
REMARK    6  A    between atoms: C_14  and  N_15
REMARK                            x       y       z     vdW  Elec       q    Type
REMARK                         _______ _______ _______ _____ _____    ______ ____
ROOT
ATOM      1  N   UNL     1      -0.505  10.921  20.889  0.00  0.00    +0.000 NA
ATOM      2  C   UNL     1      -0.621  10.236  19.549  0.00  0.00    +0.000 C 
ATOM      3  C   UNL     1       0.705   9.568  19.139  0.00  0.00    +0.000 C 
ATOM      4  N   UNL     1       1.123   8.637  20.187  0.00  0.00    +0.000 N 
ATOM      5  C   UNL     1       1.831   7.500  19.878  0.00  0.00    +0.000 A 
ATOM      6  C   UNL     1       2.656   7.431  18.766  0.00  0.00    +0.000 A 
ATOM      7  C   UNL     1       3.254   6.229  18.376  0.00  0.00    +0.000 A 
ATOM      8  C   UNL     1       2.869   5.058  19.080  0.00  0.00    +0.000 A 
ATOM      9  C   UNL     1       3.226   3.734  18.709  0.00  0.00    +0.000 A 
ATOM     10  C   UNL     1       2.806   2.632  19.457  0.00  0.00    +0.000 A 
ATOM     11  C   UNL     1       2.042   2.827  20.598  0.00  0.00    +0.000 A 
ATOM     12  C   UNL     1       1.687   4.123  20.972  0.00  0.00    +0.000 A 
ATOM     13  C   UNL     1       2.069   5.231  20.235  0.00  0.00    +0.000 A 
ATOM     14  N   UNL     1       1.611   6.420  20.644  0.00  0.00    +0.000 NA
ATOM     15  C   UNL     1       1.196   9.146  21.558  0.00  0.00    +0.000 C 
ATOM     16  C   UNL     1      -0.096   9.903  21.921  0.00  0.00    +0.000 C 
ENDROOT
BRANCH   1  18
ATOM     17  C   UNL     1      -0.415  13.382  22.075  0.00  0.00    +0.000 C 
ATOM     18  S   UNL     1       0.346  12.387  20.813  0.00  0.00    +0.000 S 
ATOM     19  O   UNL     1       0.041  12.986  19.529  0.00  0.00    +0.000 OA
ATOM     20  O   UNL     1       1.716  12.146  21.201  0.00  0.00    +0.000 OA
ENDBRANCH   1  18
BRANCH   7  21
ATOM     21  N   UNL     1       4.090   6.186  17.241  0.00  0.00    +0.000 N 
ATOM     22  H   UNL     1       3.953   5.358  16.672  0.00  0.00    +0.000 HD
BRANCH  21  23
ATOM     23  C   UNL     1       5.534   6.455  17.403  0.00  0.00    +0.000 C 
BRANCH  23  24
ATOM     24  C   UNL     1       6.418   5.430  16.658  0.00  0.00    +0.000 C 
BRANCH  24  25
ATOM     25  N   UNL     1       6.386   5.621  15.203  0.00  0.00    +0.000 NA
ATOM     26  H   UNL     1       6.008   6.551  15.017  0.00  0.00    +0.000 HD
ATOM     27  H   UNL     1       5.707   4.970  14.805  0.00  0.00    +0.000 HD
ENDBRANCH  24  25
ENDBRANCH  23  24
ENDBRANCH  21  23
ENDBRANCH   7  21
TORSDOF 5
ENDMDL
MODEL 8
REMARK VINA RESULT:      -7.1      5.230      8.460
REMARK  Name = 
REMARK  6 active torsions:
REMARK  status: ('A' for Active; 'I' for Inactive)
REMARK    1  A    between atoms: C_1  and  S_2
REMARK    2  A    between atoms: S_2  and  N_5
REMARK    3  A    between atoms: C_11  and  N_12
REMARK    4  A    between atoms: N_12  and  C_13
REMARK    5  A    between atoms: C_13  and  C_14
REMARK    6  A    between atoms: C_14  and  N_15
REMARK                            x       y       z     vdW  Elec       q    Type
REMARK                         _______ _______ _______ _____ _____    ______ ____
ROOT
ATOM      1  N   UNL     1       5.569   5.670  17.605  0.00  0.00    +0.000 NA
ATOM      2  C   UNL     1       5.499   7.171  17.458  0.00  0.00    +0.000 C 
ATOM      3  C   UNL     1       4.048   7.656  17.287  0.00  0.00    +0.000 C 
ATOM      4  N   UNL     1       3.244   7.186  18.415  0.00  0.00    +0.000 N 
ATOM      5  C   UNL     1       2.178   7.922  18.876  0.00  0.00    +0.000 A 
ATOM      6  C   UNL     1       1.459   8.769  18.046  0.00  0.00    +0.000 A 
ATOM      7  C   UNL     1       0.476   9.623  18.552  0.00  0.00    +0.000 A 
ATOM      8  C   UNL     1       0.344   9.691  19.964  0.00  0.00    +0.000 A 
ATOM      9  C   UNL     1      -0.464  10.631  20.659  0.00  0.00    +0.000 A 
ATOM     10  C   UNL     1      -0.541  10.631  22.054  0.00  0.00    +0.000 A 
ATOM     11  C   UNL     1       0.168   9.686  22.781  0.00  0.00    +0.000 A 
ATOM     12  C   UNL     1       0.964   8.759  22.109  0.00  0.00    +0.000 A 
ATOM     13  C   UNL     1       1.076   8.752  20.729  0.00  0.00    +0.000 A 
ATOM     14  N   UNL     1       1.924   7.867  20.193  0.00  0.00    +0.000 NA
ATOM     15  C   UNL     1       3.284   5.757  18.730  0.00  0.00    +0.000 C 
ATOM     16  C   UNL     1       4.742   5.261  18.795  0.00  0.00    +0.000 C 
ENDROOT
BRANCH   1  18
ATOM     17  C   UNL     1       6.900   4.033  15.868  0.00  0.00    +0.000 C 
ATOM     18  S   UNL     1       5.343   4.849  16.138  0.00  0.00    +0.000 S 
ATOM     19  O   UNL     1       5.185   5.858  15.109  0.00  0.00    +0.000 OA
ATOM     20  O   UNL     1       4.335   3.833  16.328  0.00  0.00    +0.000 OA
ENDBRANCH   1  18
BRANCH   7  21
ATOM     21  N   UNL     1      -0.242  10.473  17.686  0.00  0.00    +0.000 N 
ATOM     22  H   UNL     1      -0.235  11.445  17.979  0.00  0.00    +0.000 HD
BRANCH  21  23
ATOM     23  C   UNL     1      -1.603  10.083  17.263  0.00  0.00    +0.000 C 
BRANCH  23  24
ATOM     24  C   UNL     1      -2.535  11.299  17.058  0.00  0.00    +0.000 C 
BRANCH  24  25
ATOM     25  N   UNL     1      -3.040  11.388  15.682  0.00  0.00    +0.000 NA
ATOM     26  H   UNL     1      -4.014  11.079  15.686  0.00  0.00    +0.000 HD
ATOM     27  H   UNL     1      -2.543  10.704  15.110  0.00  0.00    +0.000 HD
ENDBRANCH  24  25
ENDBRANCH  23  24
ENDBRANCH  21  23
ENDBRANCH   7  21
TORSDOF 5
ENDMDL
MODEL 9
REMARK VINA RESULT:      -7.1      4.843      7.744
REMARK  Name = 
REMARK  6 active torsions:
REMARK  status: ('A' for Active; 'I' for Inactive)
REMARK    1  A    between atoms: C_1  and  S_2
REMARK    2  A    between atoms: S_2  and  N_5
REMARK    3  A    between atoms: C_11  and  N_12
REMARK    4  A    between atoms: N_12  and  C_13
REMARK    5  A    between atoms: C_13  and  C_14
REMARK    6  A    between atoms: C_14  and  N_15
REMARK                            x       y       z     vdW  Elec       q    Type
REMARK                         _______ _______ _______ _____ _____    ______ ____
ROOT
ATOM      1  N   UNL     1       3.832   3.997  19.473  0.00  0.00    +0.000 NA
ATOM      2  C   UNL     1       4.499   5.350  19.440  0.00  0.00    +0.000 C 
ATOM      3  C   UNL     1       3.561   6.430  18.869  0.00  0.00    +0.000 C 
ATOM      4  N   UNL     1       2.323   6.457  19.648  0.00  0.00    +0.000 N 
ATOM      5  C   UNL     1       1.622   7.628  19.816  0.00  0.00    +0.000 A 
ATOM      6  C   UNL     1       1.666   8.649  18.879  0.00  0.00    +0.000 A 
ATOM      7  C   UNL     1       1.074   9.890  19.125  0.00  0.00    +0.000 A 
ATOM      8  C   UNL     1       0.551  10.109  20.427  0.00  0.00    +0.000 A 
ATOM      9  C   UNL     1       0.084  11.359  20.914  0.00  0.00    +0.000 A 
ATOM     10  C   UNL     1      -0.418  11.491  22.210  0.00  0.00    +0.000 A 
ATOM     11  C   UNL     1      -0.483  10.381  23.038  0.00  0.00    +0.000 A 
ATOM     12  C   UNL     1      -0.028   9.149  22.570  0.00  0.00    +0.000 A 
ATOM     13  C   UNL     1       0.496   8.995  21.298  0.00  0.00    +0.000 A 
ATOM     14  N   UNL     1       0.972   7.786  20.979  0.00  0.00    +0.000 NA
ATOM     15  C   UNL     1       1.611   5.192  19.836  0.00  0.00    +0.000 C 
ATOM     16  C   UNL     1       2.582   4.093  20.309  0.00  0.00    +0.000 C 
ENDROOT
BRANCH   1  18
ATOM     17  C   UNL     1       3.728   1.528  18.306  0.00  0.00    +0.000 C 
ATOM     18  S   UNL     1       3.733   3.269  17.944  0.00  0.00    +0.000 S 
ATOM     19  O   UNL     1       4.967   3.575  17.249  0.00  0.00    +0.000 OA
ATOM     20  O   UNL     1       2.458   3.605  17.355  0.00  0.00    +0.000 OA
ENDBRANCH   1  18
BRANCH   7  21
ATOM     21  N   UNL     1       1.131  10.912  18.154  0.00  0.00    +0.000 N 
ATOM     22  H   UNL     1       0.711  10.649  17.269  0.00  0.00    +0.000 HD
BRANCH  21  23
ATOM     23  C   UNL     1       2.414  11.606  17.918  0.00  0.00    +0.000 C 
BRANCH  23  24
ATOM     24  C   UNL     1       2.434  13.036  18.503  0.00  0.00    +0.000 C 
BRANCH  24  25
ATOM     25  N   UNL     1       3.386  13.909  17.806  0.00  0.00    +0.000 NA
ATOM     26  H   UNL     1       4.218  13.358  17.592  0.00  0.00    +0.000 HD
ATOM     27  H   UNL     1       3.700  14.631  18.457  0.00  0.00    +0.000 HD
ENDBRANCH  24  25
ENDBRANCH  23  24
ENDBRANCH  21  23
ENDBRANCH   7  21
TORSDOF 5
ENDMDL
