MODEL 1
REMARK VINA RESULT:      -6.4      0.000      0.000
REMARK  Name = 
REMARK  8 active torsions:
REMARK  status: ('A' for Active; 'I' for Inactive)
REMARK    1  A    between atoms: C_1  and  C_2
REMARK    2  A    between atoms: C_2  and  N_3
REMARK    3  A    between atoms: N_6  and  C_7
REMARK    4  A    between atoms: C_7  and  C_8
REMARK    5  A    between atoms: C_7  and  C_13
REMARK    6  A    between atoms: C_13  and  C_14
REMARK    7  A    between atoms: C_13  and  N_15
REMARK    8  A    between atoms: C_16  and  C_18
REMARK                            x       y       z     vdW  Elec       q    Type
REMARK                         _______ _______ _______ _____ _____    ______ ____
ROOT
ATOM      1  C   UNL     1      -0.200  10.545  19.426  0.00  0.00    +0.000 C 
ENDROOT
BRANCH   1   5
ATOM      2  N   UNL     1      -3.792  10.780  18.048  0.00  0.00    +0.000 NA
ATOM      3  C   UNL     1      -2.872   9.655  17.805  0.00  0.00    +0.000 C 
ATOM      4  C   UNL     1      -1.465  10.056  17.310  0.00  0.00    +0.000 C 
ATOM      5  N   UNL     1      -0.754  11.081  18.126  0.00  0.00    +0.000 NA
ATOM      6  C   UNL     1      -1.698  12.212  18.292  0.00  0.00    +0.000 C 
ATOM      7  C   UNL     1      -3.083  11.803  18.854  0.00  0.00    +0.000 C 
BRANCH   2   9
ATOM      8  C   UNL     1      -5.544  12.292  17.041  0.00  0.00    +0.000 C 
ATOM      9  C   UNL     1      -4.338  11.382  16.820  0.00  0.00    +0.000 C 
ENDBRANCH   2   9
ENDBRANCH   1   5
BRANCH   1  10
ATOM     10  C   UNL     1       0.864   9.460  19.123  0.00  0.00    +0.000 A 
ATOM     11  C   UNL     1       1.513   9.173  17.928  0.00  0.00    +0.000 A 
ATOM     12  C   UNL     1       2.336   8.013  17.996  0.00  0.00    +0.000 A 
ATOM     13  C   UNL     1       2.392   7.505  19.271  0.00  0.00    +0.000 A 
ATOM     14  S   UNL     1       1.297   8.293  20.316  0.00  0.00    +0.000 S 
ENDBRANCH   1  10
BRANCH   1  15
ATOM     15  C   UNL     1       0.389  11.686  20.380  0.00  0.00    +0.000 C 
ATOM     16  C   UNL     1       1.232  12.771  19.692  0.00  0.00    +0.000 C 
BRANCH  15  17
ATOM     17  N   UNL     1      -0.636  12.314  21.214  0.00  0.00    +0.000 N 
ATOM     18  C   UNL     1      -0.855  11.920  22.520  0.00  0.00    +0.000 C 
ATOM     19  O   UNL     1      -0.319  10.951  23.045  0.00  0.00    +0.000 OA
ATOM     20  H   UNL     1      -0.967  13.225  20.912  0.00  0.00    +0.000 HD
BRANCH  18  21
ATOM     21  C   UNL     1      -1.771  12.786  23.307  0.00  0.00    +0.000 A 
ATOM     22  C   UNL     1      -3.076  12.369  23.603  0.00  0.00    +0.000 A 
ATOM     23  C   UNL     1      -3.941  13.219  24.281  0.00  0.00    +0.000 A 
ATOM     24  C   UNL     1      -3.507  14.485  24.676  0.00  0.00    +0.000 A 
ATOM     25  C   UNL     1      -2.199  14.891  24.419  0.00  0.00    +0.000 A 
ATOM     26  C   UNL     1      -1.329  14.034  23.732  0.00  0.00    +0.000 A 
ENDBRANCH  18  21
ENDBRANCH  15  17
ENDBRANCH   1  15
TORSDOF 6
ENDMDL
MODEL 2
REMARK VINA RESULT:      -6.2      2.805      5.797
REMARK  Name = 
REMARK  8 active torsions:
REMARK  status: ('A' for Active; 'I' for Inactive)
REMARK    1  A    between atoms: C_1  and  C_2
REMARK    2  A    between atoms: C_2  and  N_3
REMARK    3  A    between atoms: N_6  and  C_7
REMARK    4  A    between atoms: C_7  and  C_8
REMARK    5  A    between atoms: C_7  and  C_13
REMARK    6  A    between atoms: C_13  and  C_14
REMARK    7  A    between atoms: C_13  and  N_15
REMARK    8  A    between atoms: C_16  and  C_18
REMARK                            x       y       z     vdW  Elec       q    Type
REMARK                         _______ _______ _______ _____ _____    ______ ____
ROOT
ATOM      1  C   UNL     1       0.250  11.739  19.787  0.00  0.00    +0.000 C 
ENDROOT
BRANCH   1   5
ATOM      2  N   UNL     1       3.071  14.314  19.274  0.00  0.00    +0.000 NA
ATOM      3  C   UNL     1       2.818  13.587  20.530  0.00  0.00    +0.000 C 
ATOM      4  C   UNL     1       1.355  13.626  21.025  0.00  0.00    +0.000 C 
ATOM      5  N   UNL     1       0.319  13.229  20.030  0.00  0.00    +0.000 NA
ATOM      6  C   UNL     1       0.582  14.029  18.810  0.00  0.00    +0.000 C 
ATOM      7  C   UNL     1       2.037  13.924  18.286  0.00  0.00    +0.000 C 
BRANCH   2   9
ATOM      8  C   UNL     1       3.284  16.550  18.122  0.00  0.00    +0.000 C 
ATOM      9  C   UNL     1       3.108  15.779  19.428  0.00  0.00    +0.000 C 
ENDBRANCH   2   9
ENDBRANCH   1   5
BRANCH   1  10
ATOM     10  C   UNL     1      -0.090  11.017  21.115  0.00  0.00    +0.000 A 
ATOM     11  C   UNL     1      -1.048  11.335  22.070  0.00  0.00    +0.000 A 
ATOM     12  C   UNL     1      -0.983  10.515  23.232  0.00  0.00    +0.000 A 
ATOM     13  C   UNL     1      -0.054   9.512  23.093  0.00  0.00    +0.000 A 
ATOM     14  S   UNL     1       0.869   9.696  21.670  0.00  0.00    +0.000 S 
ENDBRANCH   1  10
BRANCH   1  15
ATOM     15  C   UNL     1      -0.774  11.335  18.627  0.00  0.00    +0.000 C 
ATOM     16  C   UNL     1      -0.620   9.917  18.055  0.00  0.00    +0.000 C 
BRANCH  15  17
ATOM     17  N   UNL     1      -2.170  11.569  18.995  0.00  0.00    +0.000 N 
ATOM     18  C   UNL     1      -3.180  11.587  18.053  0.00  0.00    +0.000 C 
ATOM     19  O   UNL     1      -2.992  11.540  16.842  0.00  0.00    +0.000 OA
ATOM     20  H   UNL     1      -2.410  11.422  19.971  0.00  0.00    +0.000 HD
BRANCH  18  21
ATOM     21  C   UNL     1      -4.564  11.619  18.594  0.00  0.00    +0.000 A 
ATOM     22  C   UNL     1      -4.886  12.429  19.691  0.00  0.00    +0.000 A 
ATOM     23  C   UNL     1      -6.168  12.396  20.227  0.00  0.00    +0.000 A 
ATOM     24  C   UNL     1      -7.136  11.562  19.667  0.00  0.00    +0.000 A 
ATOM     25  C   UNL     1      -6.833  10.783  18.552  0.00  0.00    +0.000 A 
ATOM     26  C   UNL     1      -5.540  10.815  18.015  0.00  0.00    +0.000 A 
ENDBRANCH  18  21
ENDBRANCH  15  17
ENDBRANCH   1  15
TORSDOF 6
ENDMDL
MODEL 3
REMARK VINA RESULT:      -6.1      3.050      6.679
REMARK  Name = 
REMARK  8 active torsions:
REMARK  status: ('A' for Active; 'I' for Inactive)
REMARK    1  A    between atoms: C_1  and  C_2
REMARK    2  A    between atoms: C_2  and  N_3
REMARK    3  A    between atoms: N_6  and  C_7
REMARK    4  A    between atoms: C_7  and  C_8
REMARK    5  A    between atoms: C_7  and  C_13
REMARK    6  A    between atoms: C_13  and  C_14
REMARK    7  A    between atoms: C_13  and  N_15
REMARK    8  A    between atoms: C_16  and  C_18
REMARK                            x       y       z     vdW  Elec       q    Type
REMARK                         _______ _______ _______ _____ _____    ______ ____
ROOT
ATOM      1  C   UNL     1      -0.317  11.792  20.006  0.00  0.00    +0.000 C 
ENDROOT
BRANCH   1   5
ATOM      2  N   UNL     1       1.029  15.400  20.165  0.00  0.00    +0.000 NA
ATOM      3  C   UNL     1      -0.020  14.936  19.239  0.00  0.00    +0.000 C 
ATOM      4  C   UNL     1       0.327  13.656  18.448  0.00  0.00    +0.000 C 
ATOM      5  N   UNL     1       0.792  12.494  19.257  0.00  0.00    +0.000 NA
ATOM      6  C   UNL     1       1.882  12.999  20.125  0.00  0.00    +0.000 C 
ATOM      7  C   UNL     1       1.497  14.244  20.966  0.00  0.00    +0.000 C 
BRANCH   2   9
ATOM      8  C   UNL     1       1.777  17.141  18.497  0.00  0.00    +0.000 C 
ATOM      9  C   UNL     1       2.167  16.057  19.499  0.00  0.00    +0.000 C 
ENDBRANCH   2   9
ENDBRANCH   1   5
BRANCH   1  10
ATOM     10  C   UNL     1      -1.337  11.215  18.991  0.00  0.00    +0.000 A 
ATOM     11  C   UNL     1      -1.138  10.292  17.972  0.00  0.00    +0.000 A 
ATOM     12  C   UNL     1      -2.287  10.098  17.153  0.00  0.00    +0.000 A 
ATOM     13  C   UNL     1      -3.374  10.788  17.633  0.00  0.00    +0.000 A 
ATOM     14  S   UNL     1      -2.950  11.819  18.925  0.00  0.00    +0.000 S 
ENDBRANCH   1  10
BRANCH   1  15
ATOM     15  C   UNL     1       0.213  10.661  21.005  0.00  0.00    +0.000 C 
ATOM     16  C   UNL     1      -0.788  10.176  22.066  0.00  0.00    +0.000 C 
BRANCH  15  17
ATOM     17  N   UNL     1       0.788   9.511  20.308  0.00  0.00    +0.000 N 
ATOM     18  C   UNL     1       1.495   8.532  20.977  0.00  0.00    +0.000 C 
ATOM     19  O   UNL     1       1.810   8.597  22.159  0.00  0.00    +0.000 OA
ATOM     20  H   UNL     1       0.406   9.303  19.390  0.00  0.00    +0.000 HD
BRANCH  18  21
ATOM     21  C   UNL     1       1.830   7.323  20.179  0.00  0.00    +0.000 A 
ATOM     22  C   UNL     1       1.621   6.039  20.700  0.00  0.00    +0.000 A 
ATOM     23  C   UNL     1       2.002   4.921  19.968  0.00  0.00    +0.000 A 
ATOM     24  C   UNL     1       2.587   5.077  18.711  0.00  0.00    +0.000 A 
ATOM     25  C   UNL     1       2.762   6.350  18.170  0.00  0.00    +0.000 A 
ATOM     26  C   UNL     1       2.379   7.476  18.911  0.00  0.00    +0.000 A 
ENDBRANCH  18  21
ENDBRANCH  15  17
ENDBRANCH   1  15
TORSDOF 6
ENDMDL
MODEL 4
REMARK VINA RESULT:      -6.1      0.492      1.168
REMARK  Name = 
REMARK  8 active torsions:
REMARK  status: ('A' for Active; 'I' for Inactive)
REMARK    1  A    between atoms: C_1  and  C_2
REMARK    2  A    between atoms: C_2  and  N_3
REMARK    3  A    between atoms: N_6  and  C_7
REMARK    4  A    between atoms: C_7  and  C_8
REMARK    5  A    between atoms: C_7  and  C_13
REMARK    6  A    between atoms: C_13  and  C_14
REMARK    7  A    between atoms: C_13  and  N_15
REMARK    8  A    between atoms: C_16  and  C_18
REMARK                            x       y       z     vdW  Elec       q    Type
REMARK                         _______ _______ _______ _____ _____    ______ ____
ROOT
ATOM      1  C   UNL     1       0.008  10.530  19.679  0.00  0.00    +0.000 C 
ENDROOT
BRANCH   1   5
ATOM      2  N   UNL     1      -3.471  10.838  18.049  0.00  0.00    +0.000 NA
ATOM      3  C   UNL     1      -2.543   9.713  17.838  0.00  0.00    +0.000 C 
ATOM      4  C   UNL     1      -1.101  10.118  17.461  0.00  0.00    +0.000 C 
ATOM      5  N   UNL     1      -0.446  11.111  18.359  0.00  0.00    +0.000 NA
ATOM      6  C   UNL     1      -1.392  12.244  18.490  0.00  0.00    +0.000 C 
ATOM      7  C   UNL     1      -2.818  11.830  18.937  0.00  0.00    +0.000 C 
BRANCH   2   9
ATOM      8  C   UNL     1      -3.827  10.600  15.561  0.00  0.00    +0.000 C 
ATOM      9  C   UNL     1      -3.922  11.483  16.803  0.00  0.00    +0.000 C 
ENDBRANCH   2   9
ENDBRANCH   1   5
BRANCH   1  10
ATOM     10  C   UNL     1       0.998   9.368  19.415  0.00  0.00    +0.000 A 
ATOM     11  C   UNL     1       1.678   9.038  18.249  0.00  0.00    +0.000 A 
ATOM     12  C   UNL     1       2.405   7.817  18.345  0.00  0.00    +0.000 A 
ATOM     13  C   UNL     1       2.362   7.300  19.618  0.00  0.00    +0.000 A 
ATOM     14  S   UNL     1       1.284   8.165  20.617  0.00  0.00    +0.000 S 
ENDBRANCH   1  10
BRANCH   1  15
ATOM     15  C   UNL     1       0.639  11.620  20.664  0.00  0.00    +0.000 C 
ATOM     16  C   UNL     1       1.647  12.595  20.035  0.00  0.00    +0.000 C 
BRANCH  15  17
ATOM     17  N   UNL     1      -0.374  12.370  21.406  0.00  0.00    +0.000 N 
ATOM     18  C   UNL     1      -0.962  11.867  22.550  0.00  0.00    +0.000 C 
ATOM     19  O   UNL     1      -0.791  10.727  22.966  0.00  0.00    +0.000 OA
ATOM     20  H   UNL     1      -0.413  13.370  21.231  0.00  0.00    +0.000 HD
BRANCH  18  21
ATOM     21  C   UNL     1      -1.807  12.823  23.312  0.00  0.00    +0.000 A 
ATOM     22  C   UNL     1      -1.301  14.069  23.710  0.00  0.00    +0.000 A 
ATOM     23  C   UNL     1      -2.082  14.922  24.479  0.00  0.00    +0.000 A 
ATOM     24  C   UNL     1      -3.373  14.543  24.850  0.00  0.00    +0.000 A 
ATOM     25  C   UNL     1      -3.896  13.322  24.425  0.00  0.00    +0.000 A 
ATOM     26  C   UNL     1      -3.106  12.462  23.652  0.00  0.00    +0.000 A 
ENDBRANCH  18  21
ENDBRANCH  15  17
ENDBRANCH   1  15
TORSDOF 6
ENDMDL
MODEL 5
REMARK VINA RESULT:      -6.1      2.461      7.265
REMARK  Name = 
REMARK  8 active torsions:
REMARK  status: ('A' for Active; 'I' for Inactive)
REMARK    1  A    between atoms: C_1  and  C_2
REMARK    2  A    between atoms: C_2  and  N_3
REMARK    3  A    between atoms: N_6  and  C_7
REMARK    4  A    between atoms: C_7  and  C_8
REMARK    5  A    between atoms: C_7  and  C_13
REMARK    6  A    between atoms: C_13  and  C_14
REMARK    7  A    between atoms: C_13  and  N_15
REMARK    8  A    between atoms: C_16  and  C_18
REMARK                            x       y       z     vdW  Elec       q    Type
REMARK                         _______ _______ _______ _____ _____    ______ ____
ROOT
ATOM      1  C   UNL     1      -0.170  11.864  20.117  0.00  0.00    +0.000 C 
ENDROOT
BRANCH   1   5
ATOM      2  N   UNL     1       2.746  14.355  19.732  0.00  0.00    +0.000 NA
ATOM      3  C   UNL     1       1.646  14.495  20.702  0.00  0.00    +0.000 C 
ATOM      4  C   UNL     1       0.227  14.345  20.108  0.00  0.00    +0.000 C 
ATOM      5  N   UNL     1      -0.013  13.122  19.293  0.00  0.00    +0.000 NA
ATOM      6  C   UNL     1       1.084  13.059  18.299  0.00  0.00    +0.000 C 
ATOM      7  C   UNL     1       2.504  13.141  18.916  0.00  0.00    +0.000 C 
BRANCH   2   9
ATOM      8  C   UNL     1       3.929  15.328  17.726  0.00  0.00    +0.000 C 
ATOM      9  C   UNL     1       2.929  15.530  18.862  0.00  0.00    +0.000 C 
ENDBRANCH   2   9
ENDBRANCH   1   5
BRANCH   1  10
ATOM     10  C   UNL     1      -1.192  12.119  21.254  0.00  0.00    +0.000 A 
ATOM     11  C   UNL     1      -1.083  11.847  22.612  0.00  0.00    +0.000 A 
ATOM     12  C   UNL     1      -2.283  12.099  23.337  0.00  0.00    +0.000 A 
ATOM     13  C   UNL     1      -3.246  12.669  22.540  0.00  0.00    +0.000 A 
ATOM     14  S   UNL     1      -2.777  12.697  20.900  0.00  0.00    +0.000 S 
ENDBRANCH   1  10
BRANCH   1  15
ATOM     15  C   UNL     1      -0.576  10.585  19.246  0.00  0.00    +0.000 C 
ATOM     16  C   UNL     1      -1.424  10.863  17.996  0.00  0.00    +0.000 C 
BRANCH  15  17
ATOM     17  N   UNL     1       0.574   9.754  18.887  0.00  0.00    +0.000 N 
ATOM     18  C   UNL     1       1.092   8.813  19.755  0.00  0.00    +0.000 C 
ATOM     19  O   UNL     1       0.733   8.679  20.919  0.00  0.00    +0.000 OA
ATOM     20  H   UNL     1       0.785   9.681  17.896  0.00  0.00    +0.000 HD
BRANCH  18  21
ATOM     21  C   UNL     1       2.113   7.900  19.177  0.00  0.00    +0.000 A 
ATOM     22  C   UNL     1       2.768   8.222  17.980  0.00  0.00    +0.000 A 
ATOM     23  C   UNL     1       3.670   7.327  17.419  0.00  0.00    +0.000 A 
ATOM     24  C   UNL     1       3.930   6.110  18.051  0.00  0.00    +0.000 A 
ATOM     25  C   UNL     1       3.311   5.801  19.261  0.00  0.00    +0.000 A 
ATOM     26  C   UNL     1       2.400   6.703  19.824  0.00  0.00    +0.000 A 
ENDBRANCH  18  21
ENDBRANCH  15  17
ENDBRANCH   1  15
TORSDOF 6
ENDMDL
MODEL 6
REMARK VINA RESULT:      -6.0      3.192      7.754
REMARK  Name = 
REMARK  8 active torsions:
REMARK  status: ('A' for Active; 'I' for Inactive)
REMARK    1  A    between atoms: C_1  and  C_2
REMARK    2  A    between atoms: C_2  and  N_3
REMARK    3  A    between atoms: N_6  and  C_7
REMARK    4  A    between atoms: C_7  and  C_8
REMARK    5  A    between atoms: C_7  and  C_13
REMARK    6  A    between atoms: C_13  and  C_14
REMARK    7  A    between atoms: C_13  and  N_15
REMARK    8  A    between atoms: C_16  and  C_18
REMARK                            x       y       z     vdW  Elec       q    Type
REMARK                         _______ _______ _______ _____ _____    ______ ____
ROOT
ATOM      1  C   UNL     1       1.031  10.681  19.845  0.00  0.00    +0.000 C 
ENDROOT
BRANCH   1   5
ATOM      2  N   UNL     1       3.197  13.820  19.287  0.00  0.00    +0.000 NA
ATOM      3  C   UNL     1       2.508  13.489  20.547  0.00  0.00    +0.000 C 
ATOM      4  C   UNL     1       1.012  13.132  20.400  0.00  0.00    +0.000 C 
ATOM      5  N   UNL     1       0.688  12.082  19.394  0.00  0.00    +0.000 NA
ATOM      6  C   UNL     1       1.354  12.490  18.134  0.00  0.00    +0.000 C 
ATOM      7  C   UNL     1       2.870  12.779  18.283  0.00  0.00    +0.000 C 
BRANCH   2   9
ATOM      8  C   UNL     1       3.623  15.537  17.486  0.00  0.00    +0.000 C 
ATOM      9  C   UNL     1       2.875  15.158  18.762  0.00  0.00    +0.000 C 
ENDBRANCH   2   9
ENDBRANCH   1   5
BRANCH   1  10
ATOM     10  C   UNL     1       0.444  10.439  21.259  0.00  0.00    +0.000 A 
ATOM     11  C   UNL     1       0.860   9.552  22.245  0.00  0.00    +0.000 A 
ATOM     12  C   UNL     1      -0.009   9.515  23.374  0.00  0.00    +0.000 A 
ATOM     13  C   UNL     1      -1.003  10.458  23.280  0.00  0.00    +0.000 A 
ATOM     14  S   UNL     1      -1.009  11.223  21.755  0.00  0.00    +0.000 S 
ENDBRANCH   1  10
BRANCH   1  15
ATOM     15  C   UNL     1       0.556   9.552  18.817  0.00  0.00    +0.000 C 
ATOM     16  C   UNL     1      -0.392  10.013  17.699  0.00  0.00    +0.000 C 
BRANCH  15  17
ATOM     17  N   UNL     1       1.672   8.803  18.239  0.00  0.00    +0.000 N 
ATOM     18  C   UNL     1       2.208   7.694  18.864  0.00  0.00    +0.000 C 
ATOM     19  O   UNL     1       1.895   7.320  19.989  0.00  0.00    +0.000 OA
ATOM     20  H   UNL     1       1.840   8.939  17.247  0.00  0.00    +0.000 HD
BRANCH  18  21
ATOM     21  C   UNL     1       3.185   6.914  18.061  0.00  0.00    +0.000 A 
ATOM     22  C   UNL     1       4.129   7.562  17.252  0.00  0.00    +0.000 A 
ATOM     23  C   UNL     1       4.990   6.817  16.456  0.00  0.00    +0.000 A 
ATOM     24  C   UNL     1       4.921   5.423  16.468  0.00  0.00    +0.000 A 
ATOM     25  C   UNL     1       4.011   4.772  17.299  0.00  0.00    +0.000 A 
ATOM     26  C   UNL     1       3.141   5.524  18.099  0.00  0.00    +0.000 A 
ENDBRANCH  18  21
ENDBRANCH  15  17
ENDBRANCH   1  15
TORSDOF 6
ENDMDL
MODEL 7
REMARK VINA RESULT:      -6.0      5.896     10.857
REMARK  Name = 
REMARK  8 active torsions:
REMARK  status: ('A' for Active; 'I' for Inactive)
REMARK    1  A    between atoms: C_1  and  C_2
REMARK    2  A    between atoms: C_2  and  N_3
REMARK    3  A    between atoms: N_6  and  C_7
REMARK    4  A    between atoms: C_7  and  C_8
REMARK    5  A    between atoms: C_7  and  C_13
REMARK    6  A    between atoms: C_13  and  C_14
REMARK    7  A    between atoms: C_13  and  N_15
REMARK    8  A    between atoms: C_16  and  C_18
REMARK                            x       y       z     vdW  Elec       q    Type
REMARK                         _______ _______ _______ _____ _____    ______ ____
ROOT
ATOM      1  C   UNL     1       4.231   5.354  18.631  0.00  0.00    +0.000 C 
ENDROOT
BRANCH   1   5
ATOM      2  N   UNL     1       2.262   8.658  18.877  0.00  0.00    +0.000 NA
ATOM      3  C   UNL     1       1.913   7.418  19.593  0.00  0.00    +0.000 C 
ATOM      4  C   UNL     1       1.849   6.150  18.712  0.00  0.00    +0.000 C 
ATOM      5  N   UNL     1       3.044   5.886  17.862  0.00  0.00    +0.000 NA
ATOM      6  C   UNL     1       3.316   7.141  17.122  0.00  0.00    +0.000 C 
ATOM      7  C   UNL     1       3.447   8.394  18.025  0.00  0.00    +0.000 C 
BRANCH   2   9
ATOM      8  C   UNL     1       0.208  10.124  18.835  0.00  0.00    +0.000 C 
ATOM      9  C   UNL     1       1.162   9.212  18.068  0.00  0.00    +0.000 C 
ENDBRANCH   2   9
ENDBRANCH   1   5
BRANCH   1  10
ATOM     10  C   UNL     1       4.048   3.834  18.870  0.00  0.00    +0.000 A 
ATOM     11  C   UNL     1       4.447   3.059  19.953  0.00  0.00    +0.000 A 
ATOM     12  C   UNL     1       4.223   1.665  19.763  0.00  0.00    +0.000 A 
ATOM     13  C   UNL     1       3.550   1.414  18.592  0.00  0.00    +0.000 A 
ATOM     14  S   UNL     1       3.387   2.821  17.641  0.00  0.00    +0.000 S 
ENDBRANCH   1  10
BRANCH   1  15
ATOM     15  C   UNL     1       5.632   5.666  17.925  0.00  0.00    +0.000 C 
ATOM     16  C   UNL     1       6.884   5.162  18.660  0.00  0.00    +0.000 C 
BRANCH  15  17
ATOM     17  N   UNL     1       5.673   5.236  16.528  0.00  0.00    +0.000 N 
ATOM     18  C   UNL     1       6.723   5.566  15.694  0.00  0.00    +0.000 C 
ATOM     19  O   UNL     1       7.627   6.335  15.998  0.00  0.00    +0.000 OA
ATOM     20  H   UNL     1       5.072   4.456  16.279  0.00  0.00    +0.000 HD
BRANCH  18  21
ATOM     21  C   UNL     1       6.735   4.882  14.374  0.00  0.00    +0.000 A 
ATOM     22  C   UNL     1       7.695   5.208  13.405  0.00  0.00    +0.000 A 
ATOM     23  C   UNL     1       7.650   4.607  12.153  0.00  0.00    +0.000 A 
ATOM     24  C   UNL     1       6.654   3.673  11.863  0.00  0.00    +0.000 A 
ATOM     25  C   UNL     1       5.721   3.316  12.834  0.00  0.00    +0.000 A 
ATOM     26  C   UNL     1       5.766   3.925  14.095  0.00  0.00    +0.000 A 
ENDBRANCH  18  21
ENDBRANCH  15  17
ENDBRANCH   1  15
TORSDOF 6
ENDMDL
MODEL 8
REMARK VINA RESULT:      -5.9      2.326      7.047
REMARK  Name = 
REMARK  8 active torsions:
REMARK  status: ('A' for Active; 'I' for Inactive)
REMARK    1  A    between atoms: C_1  and  C_2
REMARK    2  A    between atoms: C_2  and  N_3
REMARK    3  A    between atoms: N_6  and  C_7
REMARK    4  A    between atoms: C_7  and  C_8
REMARK    5  A    between atoms: C_7  and  C_13
REMARK    6  A    between atoms: C_13  and  C_14
REMARK    7  A    between atoms: C_13  and  N_15
REMARK    8  A    between atoms: C_16  and  C_18
REMARK                            x       y       z     vdW  Elec       q    Type
REMARK                         _______ _______ _______ _____ _____    ______ ____
ROOT
ATOM      1  C   UNL     1      -0.643  12.075  20.048  0.00  0.00    +0.000 C 
ENDROOT
BRANCH   1   5
ATOM      2  N   UNL     1       2.246  14.585  19.589  0.00  0.00    +0.000 NA
ATOM      3  C   UNL     1       1.199  14.691  20.620  0.00  0.00    +0.000 C 
ATOM      4  C   UNL     1      -0.249  14.557  20.098  0.00  0.00    +0.000 C 
ATOM      5  N   UNL     1      -0.531  13.359  19.258  0.00  0.00    +0.000 NA
ATOM      6  C   UNL     1       0.512  13.331  18.205  0.00  0.00    +0.000 C 
ATOM      7  C   UNL     1       1.962  13.397  18.748  0.00  0.00    +0.000 C 
BRANCH   2   9
ATOM      8  C   UNL     1       3.370  15.646  17.593  0.00  0.00    +0.000 C 
ATOM      9  C   UNL     1       2.382  15.787  18.748  0.00  0.00    +0.000 C 
ENDBRANCH   2   9
ENDBRANCH   1   5
BRANCH   1  10
ATOM     10  C   UNL     1      -1.618  12.286  21.234  0.00  0.00    +0.000 A 
ATOM     11  C   UNL     1      -1.422  12.044  22.588  0.00  0.00    +0.000 A 
ATOM     12  C   UNL     1      -2.596  12.234  23.372  0.00  0.00    +0.000 A 
ATOM     13  C   UNL     1      -3.634  12.729  22.619  0.00  0.00    +0.000 A 
ATOM     14  S   UNL     1      -3.253  12.757  20.956  0.00  0.00    +0.000 S 
ENDBRANCH   1  10
BRANCH   1  15
ATOM     15  C   UNL     1      -1.075  10.820  19.155  0.00  0.00    +0.000 C 
ATOM     16  C   UNL     1      -1.918  11.136  17.910  0.00  0.00    +0.000 C 
BRANCH  15  17
ATOM     17  N   UNL     1       0.057   9.972  18.782  0.00  0.00    +0.000 N 
ATOM     18  C   UNL     1       0.780   9.264  19.722  0.00  0.00    +0.000 C 
ATOM     19  O   UNL     1       0.628   9.377  20.933  0.00  0.00    +0.000 OA
ATOM     20  H   UNL     1       0.107   9.690  17.807  0.00  0.00    +0.000 HD
BRANCH  18  21
ATOM     21  C   UNL     1       1.755   8.284  19.178  0.00  0.00    +0.000 A 
ATOM     22  C   UNL     1       2.086   7.126  19.897  0.00  0.00    +0.000 A 
ATOM     23  C   UNL     1       3.050   6.255  19.405  0.00  0.00    +0.000 A 
ATOM     24  C   UNL     1       3.683   6.527  18.191  0.00  0.00    +0.000 A 
ATOM     25  C   UNL     1       3.330   7.656  17.453  0.00  0.00    +0.000 A 
ATOM     26  C   UNL     1       2.360   8.535  17.952  0.00  0.00    +0.000 A 
ENDBRANCH  18  21
ENDBRANCH  15  17
ENDBRANCH   1  15
TORSDOF 6
ENDMDL
MODEL 9
REMARK VINA RESULT:      -5.8      2.887      5.657
REMARK  Name = 
REMARK  8 active torsions:
REMARK  status: ('A' for Active; 'I' for Inactive)
REMARK    1  A    between atoms: C_1  and  C_2
REMARK    2  A    between atoms: C_2  and  N_3
REMARK    3  A    between atoms: N_6  and  C_7
REMARK    4  A    between atoms: C_7  and  C_8
REMARK    5  A    between atoms: C_7  and  C_13
REMARK    6  A    between atoms: C_13  and  C_14
REMARK    7  A    between atoms: C_13  and  N_15
REMARK    8  A    between atoms: C_16  and  C_18
REMARK                            x       y       z     vdW  Elec       q    Type
REMARK                         _______ _______ _______ _____ _____    ______ ____
ROOT
ATOM      1  C   UNL     1      -0.067  11.807  19.680  0.00  0.00    +0.000 C 
ENDROOT
BRANCH   1   5
ATOM      2  N   UNL     1       2.999  14.129  19.436  0.00  0.00    +0.000 NA
ATOM      3  C   UNL     1       2.573  13.428  20.660  0.00  0.00    +0.000 C 
ATOM      4  C   UNL     1       1.081  13.594  21.023  0.00  0.00    +0.000 C 
ATOM      5  N   UNL     1       0.107  13.286  19.938  0.00  0.00    +0.000 NA
ATOM      6  C   UNL     1       0.545  14.059  18.751  0.00  0.00    +0.000 C 
ATOM      7  C   UNL     1       2.027  13.829  18.357  0.00  0.00    +0.000 C 
BRANCH   2   9
ATOM      8  C   UNL     1       3.669  16.315  18.366  0.00  0.00    +0.000 C 
ATOM      9  C   UNL     1       3.147  15.586  19.601  0.00  0.00    +0.000 C 
ENDBRANCH   2   9
ENDBRANCH   1   5
BRANCH   1  10
ATOM     10  C   UNL     1      -0.305  11.076  21.026  0.00  0.00    +0.000 A 
ATOM     11  C   UNL     1      -1.160  11.410  22.069  0.00  0.00    +0.000 A 
ATOM     12  C   UNL     1      -1.013  10.570  23.210  0.00  0.00    +0.000 A 
ATOM     13  C   UNL     1      -0.134   9.541  22.973  0.00  0.00    +0.000 A 
ATOM     14  S   UNL     1       0.658   9.718  21.472  0.00  0.00    +0.000 S 
ENDBRANCH   1  10
BRANCH   1  15
ATOM     15  C   UNL     1      -1.228  11.482  18.628  0.00  0.00    +0.000 C 
ATOM     16  C   UNL     1      -1.194  10.081  17.999  0.00  0.00    +0.000 C 
BRANCH  15  17
ATOM     17  N   UNL     1      -2.565  11.753  19.156  0.00  0.00    +0.000 N 
ATOM     18  C   UNL     1      -3.684  11.742  18.347  0.00  0.00    +0.000 C 
ATOM     19  O   UNL     1      -3.649  11.636  17.126  0.00  0.00    +0.000 OA
ATOM     20  H   UNL     1      -2.681  11.655  20.160  0.00  0.00    +0.000 HD
BRANCH  18  21
ATOM     21  C   UNL     1      -4.989  11.818  19.054  0.00  0.00    +0.000 A 
ATOM     22  C   UNL     1      -6.081  11.047  18.632  0.00  0.00    +0.000 A 
ATOM     23  C   UNL     1      -7.312  11.181  19.262  0.00  0.00    +0.000 A 
ATOM     24  C   UNL     1      -7.459  12.077  20.321  0.00  0.00    +0.000 A 
ATOM     25  C   UNL     1      -6.368  12.819  20.771  0.00  0.00    +0.000 A 
ATOM     26  C   UNL     1      -5.128  12.685  20.133  0.00  0.00    +0.000 A 
ENDBRANCH  18  21
ENDBRANCH  15  17
ENDBRANCH   1  15
TORSDOF 6
ENDMDL
