MODEL 1
REMARK VINA RESULT:      -8.7      0.000      0.000
REMARK  Name = 
REMARK  7 active torsions:
REMARK  status: ('A' for Active; 'I' for Inactive)
REMARK    1  A    between atoms: C_2  and  C_3
REMARK    2  A    between atoms: C_3  and  C_4
REMARK    3  A    between atoms: C_7  and  O_8
REMARK    4  A    between atoms: O_8  and  C_9
REMARK    5  A    between atoms: C_9  and  C_11
REMARK    6  A    between atoms: C_21  and  O_22
REMARK    7  A    between atoms: O_22  and  C_23
REMARK                            x       y       z     vdW  Elec       q    Type
REMARK                         _______ _______ _______ _____ _____    ______ ____
ROOT
ATOM      1  O   UNL     1       4.680   6.181  18.851  0.00  0.00    +0.000 OA
ENDROOT
BRANCH   1   5
ATOM      2  C   UNL     1       6.483   4.994  15.217  0.00  0.00    +0.000 A 
ATOM      3  C   UNL     1       5.313   5.763  15.210  0.00  0.00    +0.000 A 
ATOM      4  C   UNL     1       4.728   6.157  16.406  0.00  0.00    +0.000 A 
ATOM      5  C   UNL     1       5.276   5.763  17.635  0.00  0.00    +0.000 A 
ATOM      6  C   UNL     1       6.456   4.994  17.665  0.00  0.00    +0.000 A 
ATOM      7  C   UNL     1       7.033   4.596  16.447  0.00  0.00    +0.000 A 
BRANCH   6   8
ATOM      8  O   UNL     1       6.997   4.721  18.899  0.00  0.00    +0.000 OA
ATOM      9  C   UNL     1       7.954   5.657  19.391  0.00  0.00    +0.000 C 
ENDBRANCH   6   8
BRANCH   2  10
ATOM     10  C   UNL     1       7.156   4.642  13.913  0.00  0.00    +0.000 C 
BRANCH  10  12
ATOM     11  C   UNL     1       6.732   3.297  11.836  0.00  0.00    +0.000 C 
ATOM     12  C   UNL     1       6.305   3.805  12.999  0.00  0.00    +0.000 C 
ENDBRANCH  10  12
ENDBRANCH   2  10
ENDBRANCH   1   5
BRANCH   1  13
ATOM     13  C   UNL     1       3.285   6.184  19.000  0.00  0.00    +0.000 C 
ATOM     14  O   UNL     1       2.546   7.148  18.832  0.00  0.00    +0.000 OA
BRANCH  13  15
ATOM     15  C   UNL     1       2.763   4.790  19.349  0.00  0.00    +0.000 C 
ATOM     16  C   UNL     1       3.860   3.885  19.952  0.00  0.00    +0.000 C 
ATOM     17  C   UNL     1       3.293   2.479  20.238  0.00  0.00    +0.000 C 
ATOM     18  C   UNL     1       2.142   2.581  21.254  0.00  0.00    +0.000 C 
ATOM     19  C   UNL     1       1.036   3.493  20.701  0.00  0.00    +0.000 C 
ATOM     20  C   UNL     1       0.491   2.889  19.396  0.00  0.00    +0.000 C 
ATOM     21  C   UNL     1       1.624   2.758  18.365  0.00  0.00    +0.000 C 
ATOM     22  C   UNL     1       2.749   1.876  18.931  0.00  0.00    +0.000 C 
ATOM     23  C   UNL     1       2.193   4.150  18.066  0.00  0.00    +0.000 C 
ATOM     24  C   UNL     1       1.624   4.885  20.408  0.00  0.00    +0.000 C 
ENDBRANCH  13  15
ENDBRANCH   1  13
TORSDOF 6
ENDMDL
MODEL 2
REMARK VINA RESULT:      -8.7      0.127      1.507
REMARK  Name = 
REMARK  7 active torsions:
REMARK  status: ('A' for Active; 'I' for Inactive)
REMARK    1  A    between atoms: C_2  and  C_3
REMARK    2  A    between atoms: C_3  and  C_4
REMARK    3  A    between atoms: C_7  and  O_8
REMARK    4  A    between atoms: O_8  and  C_9
REMARK    5  A    between atoms: C_9  and  C_11
REMARK    6  A    between atoms: C_21  and  O_22
REMARK    7  A    between atoms: O_22  and  C_23
REMARK                            x       y       z     vdW  Elec       q    Type
REMARK                         _______ _______ _______ _____ _____    ______ ____
ROOT
ATOM      1  O   UNL     1       4.761   6.095  18.847  0.00  0.00    +0.000 OA
ENDROOT
BRANCH   1   5
ATOM      2  C   UNL     1       6.472   4.949  15.156  0.00  0.00    +0.000 A 
ATOM      3  C   UNL     1       5.282   5.686  15.188  0.00  0.00    +0.000 A 
ATOM      4  C   UNL     1       4.727   6.067  16.403  0.00  0.00    +0.000 A 
ATOM      5  C   UNL     1       5.327   5.690  17.613  0.00  0.00    +0.000 A 
ATOM      6  C   UNL     1       6.527   4.953  17.604  0.00  0.00    +0.000 A 
ATOM      7  C   UNL     1       7.074   4.569  16.368  0.00  0.00    +0.000 A 
BRANCH   6   8
ATOM      8  O   UNL     1       7.117   4.698  18.819  0.00  0.00    +0.000 OA
ATOM      9  C   UNL     1       7.997   5.702  19.320  0.00  0.00    +0.000 C 
ENDBRANCH   6   8
BRANCH   2  10
ATOM     10  C   UNL     1       7.111   4.613  13.830  0.00  0.00    +0.000 C 
BRANCH  10  12
ATOM     11  C   UNL     1       6.666   3.056  11.912  0.00  0.00    +0.000 C 
ATOM     12  C   UNL     1       6.218   3.827  12.911  0.00  0.00    +0.000 C 
ENDBRANCH  10  12
ENDBRANCH   2  10
ENDBRANCH   1   5
BRANCH   1  13
ATOM     13  C   UNL     1       3.370   6.197  18.997  0.00  0.00    +0.000 C 
ATOM     14  O   UNL     1       2.702   7.211  18.831  0.00  0.00    +0.000 OA
BRANCH  13  15
ATOM     15  C   UNL     1       2.749   4.844  19.345  0.00  0.00    +0.000 C 
ATOM     16  C   UNL     1       1.668   4.958  20.442  0.00  0.00    +0.000 C 
ATOM     17  C   UNL     1       1.112   3.561  20.789  0.00  0.00    +0.000 C 
ATOM     18  C   UNL     1       0.465   2.936  19.540  0.00  0.00    +0.000 C 
ATOM     19  C   UNL     1       1.504   2.824  18.414  0.00  0.00    +0.000 C 
ATOM     20  C   UNL     1       2.656   1.919  18.879  0.00  0.00    +0.000 C 
ATOM     21  C   UNL     1       3.312   2.510  20.138  0.00  0.00    +0.000 C 
ATOM     22  C   UNL     1       2.265   2.657  21.255  0.00  0.00    +0.000 C 
ATOM     23  C   UNL     1       3.876   3.897  19.806  0.00  0.00    +0.000 C 
ATOM     24  C   UNL     1       2.058   4.224  18.093  0.00  0.00    +0.000 C 
ENDBRANCH  13  15
ENDBRANCH   1  13
TORSDOF 6
ENDMDL
MODEL 3
REMARK VINA RESULT:      -8.7      0.279      1.593
REMARK  Name = 
REMARK  7 active torsions:
REMARK  status: ('A' for Active; 'I' for Inactive)
REMARK    1  A    between atoms: C_2  and  C_3
REMARK    2  A    between atoms: C_3  and  C_4
REMARK    3  A    between atoms: C_7  and  O_8
REMARK    4  A    between atoms: O_8  and  C_9
REMARK    5  A    between atoms: C_9  and  C_11
REMARK    6  A    between atoms: C_21  and  O_22
REMARK    7  A    between atoms: O_22  and  C_23
REMARK                            x       y       z     vdW  Elec       q    Type
REMARK                         _______ _______ _______ _____ _____    ______ ____
ROOT
ATOM      1  O   UNL     1       4.749   6.123  18.866  0.00  0.00    +0.000 OA
ENDROOT
BRANCH   1   5
ATOM      2  C   UNL     1       6.404   5.041  15.131  0.00  0.00    +0.000 A 
ATOM      3  C   UNL     1       5.232   5.804  15.193  0.00  0.00    +0.000 A 
ATOM      4  C   UNL     1       4.695   6.163  16.422  0.00  0.00    +0.000 A 
ATOM      5  C   UNL     1       5.295   5.739  17.616  0.00  0.00    +0.000 A 
ATOM      6  C   UNL     1       6.479   4.976  17.577  0.00  0.00    +0.000 A 
ATOM      7  C   UNL     1       7.006   4.614  16.326  0.00  0.00    +0.000 A 
BRANCH   6   8
ATOM      8  O   UNL     1       7.071   4.673  18.780  0.00  0.00    +0.000 OA
ATOM      9  C   UNL     1       7.981   5.641  19.298  0.00  0.00    +0.000 C 
ENDBRANCH   6   8
BRANCH   2  10
ATOM     10  C   UNL     1       7.024   4.727  13.791  0.00  0.00    +0.000 C 
BRANCH  10  12
ATOM     11  C   UNL     1       5.607   3.524  12.103  0.00  0.00    +0.000 C 
ATOM     12  C   UNL     1       6.459   3.498  13.136  0.00  0.00    +0.000 C 
ENDBRANCH  10  12
ENDBRANCH   2  10
ENDBRANCH   1   5
BRANCH   1  13
ATOM     13  C   UNL     1       3.360   6.182  19.052  0.00  0.00    +0.000 C 
ATOM     14  O   UNL     1       2.664   7.187  18.949  0.00  0.00    +0.000 OA
BRANCH  13  15
ATOM     15  C   UNL     1       2.780   4.799  19.347  0.00  0.00    +0.000 C 
ATOM     16  C   UNL     1       2.138   4.153  18.099  0.00  0.00    +0.000 C 
ATOM     17  C   UNL     1       1.525   2.784  18.463  0.00  0.00    +0.000 C 
ATOM     18  C   UNL     1       2.629   1.843  18.978  0.00  0.00    +0.000 C 
ATOM     19  C   UNL     1       3.310   2.460  20.209  0.00  0.00    +0.000 C 
ATOM     20  C   UNL     1       2.265   2.650  21.320  0.00  0.00    +0.000 C 
ATOM     21  C   UNL     1       1.138   3.574  20.829  0.00  0.00    +0.000 C 
ATOM     22  C   UNL     1       0.480   2.976  19.574  0.00  0.00    +0.000 C 
ATOM     23  C   UNL     1       1.732   4.941  20.469  0.00  0.00    +0.000 C 
ATOM     24  C   UNL     1       3.901   3.831  19.830  0.00  0.00    +0.000 C 
ENDBRANCH  13  15
ENDBRANCH   1  13
TORSDOF 6
ENDMDL
MODEL 4
REMARK VINA RESULT:      -8.7      1.276      2.086
REMARK  Name = 
REMARK  7 active torsions:
REMARK  status: ('A' for Active; 'I' for Inactive)
REMARK    1  A    between atoms: C_2  and  C_3
REMARK    2  A    between atoms: C_3  and  C_4
REMARK    3  A    between atoms: C_7  and  O_8
REMARK    4  A    between atoms: O_8  and  C_9
REMARK    5  A    between atoms: C_9  and  C_11
REMARK    6  A    between atoms: C_21  and  O_22
REMARK    7  A    between atoms: O_22  and  C_23
REMARK                            x       y       z     vdW  Elec       q    Type
REMARK                         _______ _______ _______ _____ _____    ______ ____
ROOT
ATOM      1  O   UNL     1       5.158   5.347  18.203  0.00  0.00    +0.000 OA
ENDROOT
BRANCH   1   5
ATOM      2  C   UNL     1       6.325   4.370  14.260  0.00  0.00    +0.000 A 
ATOM      3  C   UNL     1       5.651   3.433  15.053  0.00  0.00    +0.000 A 
ATOM      4  C   UNL     1       5.263   3.761  16.346  0.00  0.00    +0.000 A 
ATOM      5  C   UNL     1       5.570   5.017  16.888  0.00  0.00    +0.000 A 
ATOM      6  C   UNL     1       6.242   5.976  16.106  0.00  0.00    +0.000 A 
ATOM      7  C   UNL     1       6.635   5.629  14.803  0.00  0.00    +0.000 A 
BRANCH   6   8
ATOM      8  O   UNL     1       6.428   7.220  16.660  0.00  0.00    +0.000 OA
ATOM      9  C   UNL     1       7.608   7.395  17.441  0.00  0.00    +0.000 C 
ENDBRANCH   6   8
BRANCH   2  10
ATOM     10  C   UNL     1       6.668   4.033  12.829  0.00  0.00    +0.000 C 
BRANCH  10  12
ATOM     11  C   UNL     1       4.589   3.381  11.580  0.00  0.00    +0.000 C 
ATOM     12  C   UNL     1       5.728   3.043  12.199  0.00  0.00    +0.000 C 
ENDBRANCH  10  12
ENDBRANCH   2  10
ENDBRANCH   1   5
BRANCH   1  13
ATOM     13  C   UNL     1       3.851   5.791  18.452  0.00  0.00    +0.000 C 
ATOM     14  O   UNL     1       3.399   6.894  18.163  0.00  0.00    +0.000 OA
BRANCH  13  15
ATOM     15  C   UNL     1       3.004   4.692  19.093  0.00  0.00    +0.000 C 
ATOM     16  C   UNL     1       2.095   5.231  20.219  0.00  0.00    +0.000 C 
ATOM     17  C   UNL     1       1.301   4.075  20.863  0.00  0.00    +0.000 C 
ATOM     18  C   UNL     1       0.409   3.405  19.803  0.00  0.00    +0.000 C 
ATOM     19  C   UNL     1       1.275   2.873  18.651  0.00  0.00    +0.000 C 
ATOM     20  C   UNL     1       2.257   1.827  19.202  0.00  0.00    +0.000 C 
ATOM     21  C   UNL     1       3.153   2.463  20.277  0.00  0.00    +0.000 C 
ATOM     22  C   UNL     1       2.286   3.030  21.414  0.00  0.00    +0.000 C 
ATOM     23  C   UNL     1       3.953   3.610  19.649  0.00  0.00    +0.000 C 
ATOM     24  C   UNL     1       2.069   4.037  18.032  0.00  0.00    +0.000 C 
ENDBRANCH  13  15
ENDBRANCH   1  13
TORSDOF 6
ENDMDL
MODEL 5
REMARK VINA RESULT:      -8.7      1.162      1.248
REMARK  Name = 
REMARK  7 active torsions:
REMARK  status: ('A' for Active; 'I' for Inactive)
REMARK    1  A    between atoms: C_2  and  C_3
REMARK    2  A    between atoms: C_3  and  C_4
REMARK    3  A    between atoms: C_7  and  O_8
REMARK    4  A    between atoms: O_8  and  C_9
REMARK    5  A    between atoms: C_9  and  C_11
REMARK    6  A    between atoms: C_21  and  O_22
REMARK    7  A    between atoms: O_22  and  C_23
REMARK                            x       y       z     vdW  Elec       q    Type
REMARK                         _______ _______ _______ _____ _____    ______ ____
ROOT
ATOM      1  O   UNL     1       5.246   5.416  18.257  0.00  0.00    +0.000 OA
ENDROOT
BRANCH   1   5
ATOM      2  C   UNL     1       6.429   4.337  14.345  0.00  0.00    +0.000 A 
ATOM      3  C   UNL     1       5.151   4.013  14.814  0.00  0.00    +0.000 A 
ATOM      4  C   UNL     1       4.763   4.375  16.098  0.00  0.00    +0.000 A 
ATOM      5  C   UNL     1       5.655   5.038  16.954  0.00  0.00    +0.000 A 
ATOM      6  C   UNL     1       6.944   5.379  16.500  0.00  0.00    +0.000 A 
ATOM      7  C   UNL     1       7.324   5.000  15.202  0.00  0.00    +0.000 A 
BRANCH   6   8
ATOM      8  O   UNL     1       7.736   6.112  17.351  0.00  0.00    +0.000 OA
ATOM      9  C   UNL     1       7.513   7.521  17.367  0.00  0.00    +0.000 C 
ENDBRANCH   6   8
BRANCH   2  10
ATOM     10  C   UNL     1       6.810   4.013  12.921  0.00  0.00    +0.000 C 
BRANCH  10  12
ATOM     11  C   UNL     1       5.838   2.130  11.573  0.00  0.00    +0.000 C 
ATOM     12  C   UNL     1       5.716   3.337  12.142  0.00  0.00    +0.000 C 
ENDBRANCH  10  12
ENDBRANCH   2  10
ENDBRANCH   1   5
BRANCH   1  13
ATOM     13  C   UNL     1       3.918   5.787  18.510  0.00  0.00    +0.000 C 
ATOM     14  O   UNL     1       3.404   6.862  18.221  0.00  0.00    +0.000 OA
BRANCH  13  15
ATOM     15  C   UNL     1       3.136   4.642  19.155  0.00  0.00    +0.000 C 
ATOM     16  C   UNL     1       4.044   3.450  19.532  0.00  0.00    +0.000 C 
ATOM     17  C   UNL     1       3.199   2.306  20.131  0.00  0.00    +0.000 C 
ATOM     18  C   UNL     1       2.494   2.797  21.408  0.00  0.00    +0.000 C 
ATOM     19  C   UNL     1       1.595   3.998  21.080  0.00  0.00    +0.000 C 
ATOM     20  C   UNL     1       0.528   3.566  20.061  0.00  0.00    +0.000 C 
ATOM     21  C   UNL     1       1.204   3.055  18.778  0.00  0.00    +0.000 C 
ATOM     22  C   UNL     1       2.133   1.875  19.110  0.00  0.00    +0.000 C 
ATOM     23  C   UNL     1       2.043   4.184  18.168  0.00  0.00    +0.000 C 
ATOM     24  C   UNL     1       2.452   5.123  20.470  0.00  0.00    +0.000 C 
ENDBRANCH  13  15
ENDBRANCH   1  13
TORSDOF 6
ENDMDL
MODEL 6
REMARK VINA RESULT:      -8.5      1.205      2.107
REMARK  Name = 
REMARK  7 active torsions:
REMARK  status: ('A' for Active; 'I' for Inactive)
REMARK    1  A    between atoms: C_2  and  C_3
REMARK    2  A    between atoms: C_3  and  C_4
REMARK    3  A    between atoms: C_7  and  O_8
REMARK    4  A    between atoms: O_8  and  C_9
REMARK    5  A    between atoms: C_9  and  C_11
REMARK    6  A    between atoms: C_21  and  O_22
REMARK    7  A    between atoms: O_22  and  C_23
REMARK                            x       y       z     vdW  Elec       q    Type
REMARK                         _______ _______ _______ _____ _____    ______ ____
ROOT
ATOM      1  O   UNL     1       5.414   4.983  18.210  0.00  0.00    +0.000 OA
ENDROOT
BRANCH   1   5
ATOM      2  C   UNL     1       6.548   4.400  14.180  0.00  0.00    +0.000 A 
ATOM      3  C   UNL     1       5.344   3.872  14.662  0.00  0.00    +0.000 A 
ATOM      4  C   UNL     1       4.972   4.072  15.985  0.00  0.00    +0.000 A 
ATOM      5  C   UNL     1       5.808   4.772  16.865  0.00  0.00    +0.000 A 
ATOM      6  C   UNL     1       7.021   5.317  16.400  0.00  0.00    +0.000 A 
ATOM      7  C   UNL     1       7.388   5.101  15.062  0.00  0.00    +0.000 A 
BRANCH   6   8
ATOM      8  O   UNL     1       7.750   6.074  17.286  0.00  0.00    +0.000 OA
ATOM      9  C   UNL     1       7.467   7.472  17.307  0.00  0.00    +0.000 C 
ENDBRANCH   6   8
BRANCH   2  10
ATOM     10  C   UNL     1       6.902   4.249  12.721  0.00  0.00    +0.000 C 
BRANCH  10  12
ATOM     11  C   UNL     1       6.680   2.127  11.396  0.00  0.00    +0.000 C 
ATOM     12  C   UNL     1       6.121   3.175  12.017  0.00  0.00    +0.000 C 
ENDBRANCH  10  12
ENDBRANCH   2  10
ENDBRANCH   1   5
BRANCH   1  13
ATOM     13  C   UNL     1       4.172   5.562  18.508  0.00  0.00    +0.000 C 
ATOM     14  O   UNL     1       3.845   6.721  18.274  0.00  0.00    +0.000 OA
BRANCH  13  15
ATOM     15  C   UNL     1       3.217   4.540  19.124  0.00  0.00    +0.000 C 
ATOM     16  C   UNL     1       2.103   4.111  18.142  0.00  0.00    +0.000 C 
ATOM     17  C   UNL     1       1.141   3.120  18.829  0.00  0.00    +0.000 C 
ATOM     18  C   UNL     1       1.915   1.860  19.259  0.00  0.00    +0.000 C 
ATOM     19  C   UNL     1       3.048   2.246  20.221  0.00  0.00    +0.000 C 
ATOM     20  C   UNL     1       2.444   2.906  21.471  0.00  0.00    +0.000 C 
ATOM     21  C   UNL     1       1.649   4.161  21.071  0.00  0.00    +0.000 C 
ATOM     22  C   UNL     1       0.537   3.782  20.078  0.00  0.00    +0.000 C 
ATOM     23  C   UNL     1       2.596   5.158  20.393  0.00  0.00    +0.000 C 
ATOM     24  C   UNL     1       3.988   3.247  19.525  0.00  0.00    +0.000 C 
ENDBRANCH  13  15
ENDBRANCH   1  13
TORSDOF 6
ENDMDL
MODEL 7
REMARK VINA RESULT:      -8.0      1.382      2.113
REMARK  Name = 
REMARK  7 active torsions:
REMARK  status: ('A' for Active; 'I' for Inactive)
REMARK    1  A    between atoms: C_2  and  C_3
REMARK    2  A    between atoms: C_3  and  C_4
REMARK    3  A    between atoms: C_7  and  O_8
REMARK    4  A    between atoms: O_8  and  C_9
REMARK    5  A    between atoms: C_9  and  C_11
REMARK    6  A    between atoms: C_21  and  O_22
REMARK    7  A    between atoms: O_22  and  C_23
REMARK                            x       y       z     vdW  Elec       q    Type
REMARK                         _______ _______ _______ _____ _____    ______ ____
ROOT
ATOM      1  O   UNL     1       4.691   5.620  17.866  0.00  0.00    +0.000 OA
ENDROOT
BRANCH   1   5
ATOM      2  C   UNL     1       6.271   4.288  14.178  0.00  0.00    +0.000 A 
ATOM      3  C   UNL     1       5.282   3.546  14.837  0.00  0.00    +0.000 A 
ATOM      4  C   UNL     1       4.761   3.991  16.044  0.00  0.00    +0.000 A 
ATOM      5  C   UNL     1       5.239   5.166  16.640  0.00  0.00    +0.000 A 
ATOM      6  C   UNL     1       6.229   5.932  15.993  0.00  0.00    +0.000 A 
ATOM      7  C   UNL     1       6.752   5.466  14.775  0.00  0.00    +0.000 A 
BRANCH   6   8
ATOM      8  O   UNL     1       6.586   7.122  16.580  0.00  0.00    +0.000 OA
ATOM      9  C   UNL     1       7.622   7.060  17.558  0.00  0.00    +0.000 C 
ENDBRANCH   6   8
BRANCH   2  10
ATOM     10  C   UNL     1       6.770   3.840  12.827  0.00  0.00    +0.000 C 
BRANCH  10  12
ATOM     11  C   UNL     1       5.833   1.946  11.469  0.00  0.00    +0.000 C 
ATOM     12  C   UNL     1       5.717   3.178  11.982  0.00  0.00    +0.000 C 
ENDBRANCH  10  12
ENDBRANCH   2  10
ENDBRANCH   1   5
BRANCH   1  13
ATOM     13  C   UNL     1       4.875   4.886  19.047  0.00  0.00    +0.000 C 
ATOM     14  O   UNL     1       5.911   4.823  19.700  0.00  0.00    +0.000 OA
BRANCH  13  15
ATOM     15  C   UNL     1       3.580   4.198  19.479  0.00  0.00    +0.000 C 
ATOM     16  C   UNL     1       3.097   4.673  20.867  0.00  0.00    +0.000 C 
ATOM     17  C   UNL     1       1.818   3.912  21.275  0.00  0.00    +0.000 C 
ATOM     18  C   UNL     1       0.700   4.193  20.255  0.00  0.00    +0.000 C 
ATOM     19  C   UNL     1       1.150   3.753  18.853  0.00  0.00    +0.000 C 
ATOM     20  C   UNL     1       1.439   2.244  18.867  0.00  0.00    +0.000 C 
ATOM     21  C   UNL     1       2.542   1.929  19.891  0.00  0.00    +0.000 C 
ATOM     22  C   UNL     1       2.109   2.402  21.289  0.00  0.00    +0.000 C 
ATOM     23  C   UNL     1       3.821   2.675  19.494  0.00  0.00    +0.000 C 
ATOM     24  C   UNL     1       2.434   4.511  18.470  0.00  0.00    +0.000 C 
ENDBRANCH  13  15
ENDBRANCH   1  13
TORSDOF 6
ENDMDL
MODEL 8
REMARK VINA RESULT:      -8.0      3.584      6.349
REMARK  Name = 
REMARK  7 active torsions:
REMARK  status: ('A' for Active; 'I' for Inactive)
REMARK    1  A    between atoms: C_2  and  C_3
REMARK    2  A    between atoms: C_3  and  C_4
REMARK    3  A    between atoms: C_7  and  O_8
REMARK    4  A    between atoms: O_8  and  C_9
REMARK    5  A    between atoms: C_9  and  C_11
REMARK    6  A    between atoms: C_21  and  O_22
REMARK    7  A    between atoms: O_22  and  C_23
REMARK                            x       y       z     vdW  Elec       q    Type
REMARK                         _______ _______ _______ _____ _____    ______ ____
ROOT
ATOM      1  O   UNL     1       2.670   7.323  19.811  0.00  0.00    +0.000 OA
ENDROOT
BRANCH   1   5
ATOM      2  C   UNL     1      -0.186  10.244  18.726  0.00  0.00    +0.000 A 
ATOM      3  C   UNL     1       0.593   9.616  17.747  0.00  0.00    +0.000 A 
ATOM      4  C   UNL     1       1.526   8.652  18.107  0.00  0.00    +0.000 A 
ATOM      5  C   UNL     1       1.727   8.318  19.454  0.00  0.00    +0.000 A 
ATOM      6  C   UNL     1       0.949   8.934  20.455  0.00  0.00    +0.000 A 
ATOM      7  C   UNL     1       0.015   9.912  20.076  0.00  0.00    +0.000 A 
BRANCH   6   8
ATOM      8  O   UNL     1       1.125   8.496  21.746  0.00  0.00    +0.000 OA
ATOM      9  C   UNL     1       0.606   9.335  22.775  0.00  0.00    +0.000 C 
ENDBRANCH   6   8
BRANCH   2  10
ATOM     10  C   UNL     1      -1.254  11.229  18.316  0.00  0.00    +0.000 C 
BRANCH  10  12
ATOM     11  C   UNL     1      -3.181   9.915  17.386  0.00  0.00    +0.000 C 
ATOM     12  C   UNL     1      -2.137  10.735  17.205  0.00  0.00    +0.000 C 
ENDBRANCH  10  12
ENDBRANCH   2  10
ENDBRANCH   1   5
BRANCH   1  13
ATOM     13  C   UNL     1       3.157   6.423  18.852  0.00  0.00    +0.000 C 
ATOM     14  O   UNL     1       3.878   6.706  17.901  0.00  0.00    +0.000 OA
BRANCH  13  15
ATOM     15  C   UNL     1       2.726   4.991  19.168  0.00  0.00    +0.000 C 
ATOM     16  C   UNL     1       1.896   4.362  18.026  0.00  0.00    +0.000 C 
ATOM     17  C   UNL     1       1.446   2.939  18.417  0.00  0.00    +0.000 C 
ATOM     18  C   UNL     1       2.681   2.052  18.657  0.00  0.00    +0.000 C 
ATOM     19  C   UNL     1       3.547   2.655  19.773  0.00  0.00    +0.000 C 
ATOM     20  C   UNL     1       2.726   2.719  21.070  0.00  0.00    +0.000 C 
ATOM     21  C   UNL     1       1.474   3.586  20.856  0.00  0.00    +0.000 C 
ATOM     22  C   UNL     1       0.623   3.005  19.714  0.00  0.00    +0.000 C 
ATOM     23  C   UNL     1       1.906   5.006  20.474  0.00  0.00    +0.000 C 
ATOM     24  C   UNL     1       3.974   4.079  19.372  0.00  0.00    +0.000 C 
ENDBRANCH  13  15
ENDBRANCH   1  13
TORSDOF 6
ENDMDL
MODEL 9
REMARK VINA RESULT:      -8.0      1.321      2.364
REMARK  Name = 
REMARK  7 active torsions:
REMARK  status: ('A' for Active; 'I' for Inactive)
REMARK    1  A    between atoms: C_2  and  C_3
REMARK    2  A    between atoms: C_3  and  C_4
REMARK    3  A    between atoms: C_7  and  O_8
REMARK    4  A    between atoms: O_8  and  C_9
REMARK    5  A    between atoms: C_9  and  C_11
REMARK    6  A    between atoms: C_21  and  O_22
REMARK    7  A    between atoms: O_22  and  C_23
REMARK                            x       y       z     vdW  Elec       q    Type
REMARK                         _______ _______ _______ _____ _____    ______ ____
ROOT
ATOM      1  O   UNL     1       5.058   5.502  18.006  0.00  0.00    +0.000 OA
ENDROOT
BRANCH   1   5
ATOM      2  C   UNL     1       6.401   4.274  14.191  0.00  0.00    +0.000 A 
ATOM      3  C   UNL     1       5.074   4.055  14.581  0.00  0.00    +0.000 A 
ATOM      4  C   UNL     1       4.635   4.466  15.832  0.00  0.00    +0.000 A 
ATOM      5  C   UNL     1       5.518   5.073  16.736  0.00  0.00    +0.000 A 
ATOM      6  C   UNL     1       6.856   5.308  16.363  0.00  0.00    +0.000 A 
ATOM      7  C   UNL     1       7.288   4.881  15.097  0.00  0.00    +0.000 A 
BRANCH   6   8
ATOM      8  O   UNL     1       7.646   5.993  17.256  0.00  0.00    +0.000 OA
ATOM      9  C   UNL     1       7.485   7.410  17.286  0.00  0.00    +0.000 C 
ENDBRANCH   6   8
BRANCH   2  10
ATOM     10  C   UNL     1       6.845   3.899  12.798  0.00  0.00    +0.000 C 
BRANCH  10  12
ATOM     11  C   UNL     1       5.892   1.976  11.495  0.00  0.00    +0.000 C 
ATOM     12  C   UNL     1       5.779   3.218  11.987  0.00  0.00    +0.000 C 
ENDBRANCH  10  12
ENDBRANCH   2  10
ENDBRANCH   1   5
BRANCH   1  13
ATOM     13  C   UNL     1       5.043   4.621  19.097  0.00  0.00    +0.000 C 
ATOM     14  O   UNL     1       6.005   4.333  19.802  0.00  0.00    +0.000 OA
BRANCH  13  15
ATOM     15  C   UNL     1       3.635   4.086  19.359  0.00  0.00    +0.000 C 
ATOM     16  C   UNL     1       2.581   4.725  18.427  0.00  0.00    +0.000 C 
ATOM     17  C   UNL     1       1.175   4.188  18.767  0.00  0.00    +0.000 C 
ATOM     18  C   UNL     1       1.138   2.664  18.560  0.00  0.00    +0.000 C 
ATOM     19  C   UNL     1       2.189   1.989  19.454  0.00  0.00    +0.000 C 
ATOM     20  C   UNL     1       1.870   2.296  20.926  0.00  0.00    +0.000 C 
ATOM     21  C   UNL     1       1.883   3.815  21.161  0.00  0.00    +0.000 C 
ATOM     22  C   UNL     1       0.857   4.497  20.240  0.00  0.00    +0.000 C 
ATOM     23  C   UNL     1       3.277   4.362  20.833  0.00  0.00    +0.000 C 
ATOM     24  C   UNL     1       3.583   2.548  19.112  0.00  0.00    +0.000 C 
ENDBRANCH  13  15
ENDBRANCH   1  13
TORSDOF 6
ENDMDL
