MODEL 1
REMARK VINA RESULT:      -7.7      0.000      0.000
REMARK  Name = 
REMARK  6 active torsions:
REMARK  status: ('A' for Active; 'I' for Inactive)
REMARK    1  A    between atoms: C_1  and  O_2
REMARK    2  A    between atoms: O_2  and  N_3
REMARK    3  A    between atoms: C_4  and  C_5
REMARK    4  A    between atoms: C_12  and  O_13
REMARK    5  A    between atoms: O_13  and  C_14
REMARK    6  A    between atoms: C_14  and  C_15
REMARK                            x       y       z     vdW  Elec       q    Type
REMARK                         _______ _______ _______ _____ _____    ______ ____
ROOT
ATOM      1  C   UNL     1       5.777   4.415  15.609  0.00  0.00    +0.000 A 
ATOM      2  C   UNL     1       7.009   5.027  15.793  0.00  0.00    +0.000 A 
ATOM      3  N   UNL     1       7.755   5.552  14.735  0.00  0.00    +0.000 N 
ATOM      4  N   UNL     1       7.528   5.267  17.008  0.00  0.00    +0.000 NA
ATOM      5  C   UNL     1       6.798   4.909  18.062  0.00  0.00    +0.000 A 
ATOM      6  N   UNL     1       7.318   5.145  19.314  0.00  0.00    +0.000 N 
ATOM      7  N   UNL     1       5.614   4.305  17.997  0.00  0.00    +0.000 NA
ATOM      8  C   UNL     1       5.108   4.079  16.765  0.00  0.00    +0.000 A 
ATOM      9  H   UNL     1       7.746   4.942  13.921  0.00  0.00    +0.000 HD
ATOM     10  H   UNL     1       8.676   5.829  15.054  0.00  0.00    +0.000 HD
ATOM     11  H   UNL     1       8.324   5.226  19.264  0.00  0.00    +0.000 HD
ATOM     12  H   UNL     1       6.936   4.495  19.986  0.00  0.00    +0.000 HD
ENDROOT
BRANCH   1  14
ATOM     13  N   UNL     1       5.973   3.586  13.355  0.00  0.00    +0.000 NA
ATOM     14  C   UNL     1       5.234   4.141  14.270  0.00  0.00    +0.000 C 
BRANCH  13  16
ATOM     15  C   UNL     1       5.620   2.213  11.564  0.00  0.00    +0.000 C 
ATOM     16  O   UNL     1       5.248   3.452  12.165  0.00  0.00    +0.000 OA
ENDBRANCH  13  16
ENDBRANCH   1  14
BRANCH   8  17
ATOM     17  O   UNL     1       3.899   3.408  16.689  0.00  0.00    +0.000 OA
BRANCH  17  18
ATOM     18  C   UNL     1       3.571   2.749  17.920  0.00  0.00    +0.000 C 
BRANCH  18  19
ATOM     19  C   UNL     1       2.067   2.875  18.241  0.00  0.00    +0.000 C 
ATOM     20  C   UNL     1       1.742   2.256  19.614  0.00  0.00    +0.000 C 
ATOM     21  C   UNL     1       2.301   3.082  20.774  0.00  0.00    +0.000 C 
ATOM     22  C   UNL     1       1.854   4.539  20.701  0.00  0.00    +0.000 C 
ATOM     23  C   UNL     1       2.109   5.171  19.333  0.00  0.00    +0.000 C 
ATOM     24  C   UNL     1       1.556   4.320  18.194  0.00  0.00    +0.000 C 
ENDBRANCH  18  19
ENDBRANCH  17  18
ENDBRANCH   8  17
TORSDOF 5
ENDMDL
MODEL 2
REMARK VINA RESULT:      -7.5      1.070      1.229
REMARK  Name = 
REMARK  6 active torsions:
REMARK  status: ('A' for Active; 'I' for Inactive)
REMARK    1  A    between atoms: C_1  and  O_2
REMARK    2  A    between atoms: O_2  and  N_3
REMARK    3  A    between atoms: C_4  and  C_5
REMARK    4  A    between atoms: C_12  and  O_13
REMARK    5  A    between atoms: O_13  and  C_14
REMARK    6  A    between atoms: C_14  and  C_15
REMARK                            x       y       z     vdW  Elec       q    Type
REMARK                         _______ _______ _______ _____ _____    ______ ____
ROOT
ATOM      1  C   UNL     1       5.976   4.642  16.716  0.00  0.00    +0.000 A 
ATOM      2  C   UNL     1       7.125   5.421  16.735  0.00  0.00    +0.000 A 
ATOM      3  N   UNL     1       7.625   6.055  15.595  0.00  0.00    +0.000 N 
ATOM      4  N   UNL     1       7.780   5.721  17.868  0.00  0.00    +0.000 NA
ATOM      5  C   UNL     1       7.272   5.255  19.007  0.00  0.00    +0.000 A 
ATOM      6  N   UNL     1       7.935   5.552  20.176  0.00  0.00    +0.000 N 
ATOM      7  N   UNL     1       6.187   4.490  19.097  0.00  0.00    +0.000 NA
ATOM      8  C   UNL     1       5.540   4.204  17.946  0.00  0.00    +0.000 A 
ATOM      9  H   UNL     1       7.579   5.456  14.774  0.00  0.00    +0.000 HD
ATOM     10  H   UNL     1       8.535   6.457  15.785  0.00  0.00    +0.000 HD
ATOM     11  H   UNL     1       8.901   5.774  19.982  0.00  0.00    +0.000 HD
ATOM     12  H   UNL     1       7.750   4.849  20.877  0.00  0.00    +0.000 HD
ENDROOT
BRANCH   1  14
ATOM     13  N   UNL     1       5.957   4.008  14.391  0.00  0.00    +0.000 NA
ATOM     14  C   UNL     1       5.283   4.305  15.463  0.00  0.00    +0.000 C 
BRANCH  13  16
ATOM     15  C   UNL     1       5.860   3.269  12.232  0.00  0.00    +0.000 C 
ATOM     16  O   UNL     1       5.083   3.752  13.327  0.00  0.00    +0.000 OA
ENDBRANCH  13  16
ENDBRANCH   1  14
BRANCH   8  17
ATOM     17  O   UNL     1       4.438   3.370  18.028  0.00  0.00    +0.000 OA
BRANCH  17  18
ATOM     18  C   UNL     1       4.246   2.860  19.356  0.00  0.00    +0.000 C 
BRANCH  18  19
ATOM     19  C   UNL     1       2.810   2.334  19.553  0.00  0.00    +0.000 C 
ATOM     20  C   UNL     1       2.356   2.505  21.015  0.00  0.00    +0.000 C 
ATOM     21  C   UNL     1       2.124   3.970  21.389  0.00  0.00    +0.000 C 
ATOM     22  C   UNL     1       1.161   4.657  20.423  0.00  0.00    +0.000 C 
ATOM     23  C   UNL     1       1.549   4.461  18.959  0.00  0.00    +0.000 C 
ATOM     24  C   UNL     1       1.788   2.993  18.618  0.00  0.00    +0.000 C 
ENDBRANCH  18  19
ENDBRANCH  17  18
ENDBRANCH   8  17
TORSDOF 5
ENDMDL
MODEL 3
REMARK VINA RESULT:      -7.5      1.109      1.643
REMARK  Name = 
REMARK  6 active torsions:
REMARK  status: ('A' for Active; 'I' for Inactive)
REMARK    1  A    between atoms: C_1  and  O_2
REMARK    2  A    between atoms: O_2  and  N_3
REMARK    3  A    between atoms: C_4  and  C_5
REMARK    4  A    between atoms: C_12  and  O_13
REMARK    5  A    between atoms: O_13  and  C_14
REMARK    6  A    between atoms: C_14  and  C_15
REMARK                            x       y       z     vdW  Elec       q    Type
REMARK                         _______ _______ _______ _____ _____    ______ ____
ROOT
ATOM      1  C   UNL     1       6.038   4.688  16.644  0.00  0.00    +0.000 A 
ATOM      2  C   UNL     1       7.178   5.480  16.635  0.00  0.00    +0.000 A 
ATOM      3  N   UNL     1       7.648   6.111  15.480  0.00  0.00    +0.000 N 
ATOM      4  N   UNL     1       7.852   5.797  17.752  0.00  0.00    +0.000 NA
ATOM      5  C   UNL     1       7.371   5.335  18.904  0.00  0.00    +0.000 A 
ATOM      6  N   UNL     1       8.054   5.649  20.057  0.00  0.00    +0.000 N 
ATOM      7  N   UNL     1       6.297   4.559  19.022  0.00  0.00    +0.000 NA
ATOM      8  C   UNL     1       5.631   4.257  17.887  0.00  0.00    +0.000 A 
ATOM      9  H   UNL     1       7.593   5.504  14.664  0.00  0.00    +0.000 HD
ATOM     10  H   UNL     1       8.557   6.523  15.648  0.00  0.00    +0.000 HD
ATOM     11  H   UNL     1       9.014   5.880  19.842  0.00  0.00    +0.000 HD
ATOM     12  H   UNL     1       7.891   4.950  20.767  0.00  0.00    +0.000 HD
ENDROOT
BRANCH   1  14
ATOM     13  N   UNL     1       5.980   4.027  14.328  0.00  0.00    +0.000 NA
ATOM     14  C   UNL     1       5.323   4.334  15.408  0.00  0.00    +0.000 C 
BRANCH  13  16
ATOM     15  C   UNL     1       5.844   3.233  12.191  0.00  0.00    +0.000 C 
ATOM     16  O   UNL     1       5.088   3.754  13.283  0.00  0.00    +0.000 OA
ENDBRANCH  13  16
ENDBRANCH   1  14
BRANCH   8  17
ATOM     17  O   UNL     1       4.540   3.411  17.997  0.00  0.00    +0.000 OA
BRANCH  17  18
ATOM     18  C   UNL     1       3.914   3.505  19.285  0.00  0.00    +0.000 C 
BRANCH  18  19
ATOM     19  C   UNL     1       2.695   4.448  19.249  0.00  0.00    +0.000 C 
ATOM     20  C   UNL     1       1.661   3.973  18.210  0.00  0.00    +0.000 C 
ATOM     21  C   UNL     1       0.952   2.686  18.636  0.00  0.00    +0.000 C 
ATOM     22  C   UNL     1       0.328   2.814  20.023  0.00  0.00    +0.000 C 
ATOM     23  C   UNL     1       1.310   3.337  21.070  0.00  0.00    +0.000 C 
ATOM     24  C   UNL     1       2.014   4.612  20.614  0.00  0.00    +0.000 C 
ENDBRANCH  18  19
ENDBRANCH  17  18
ENDBRANCH   8  17
TORSDOF 5
ENDMDL
MODEL 4
REMARK VINA RESULT:      -7.5      1.076      1.247
REMARK  Name = 
REMARK  6 active torsions:
REMARK  status: ('A' for Active; 'I' for Inactive)
REMARK    1  A    between atoms: C_1  and  O_2
REMARK    2  A    between atoms: O_2  and  N_3
REMARK    3  A    between atoms: C_4  and  C_5
REMARK    4  A    between atoms: C_12  and  O_13
REMARK    5  A    between atoms: O_13  and  C_14
REMARK    6  A    between atoms: C_14  and  C_15
REMARK                            x       y       z     vdW  Elec       q    Type
REMARK                         _______ _______ _______ _____ _____    ______ ____
ROOT
ATOM      1  C   UNL     1       5.928   4.539  16.483  0.00  0.00    +0.000 A 
ATOM      2  C   UNL     1       7.076   5.317  16.538  0.00  0.00    +0.000 A 
ATOM      3  N   UNL     1       7.610   5.952  15.414  0.00  0.00    +0.000 N 
ATOM      4  N   UNL     1       7.697   5.618  17.690  0.00  0.00    +0.000 NA
ATOM      5  C   UNL     1       7.154   5.151  18.813  0.00  0.00    +0.000 A 
ATOM      6  N   UNL     1       7.782   5.447  20.001  0.00  0.00    +0.000 N 
ATOM      7  N   UNL     1       6.067   4.387  18.870  0.00  0.00    +0.000 NA
ATOM      8  C   UNL     1       5.455   4.101  17.700  0.00  0.00    +0.000 A 
ATOM      9  H   UNL     1       7.590   5.353  14.591  0.00  0.00    +0.000 HD
ATOM     10  H   UNL     1       8.515   6.353  15.631  0.00  0.00    +0.000 HD
ATOM     11  H   UNL     1       8.754   5.670  19.837  0.00  0.00    +0.000 HD
ATOM     12  H   UNL     1       7.576   4.744  20.696  0.00  0.00    +0.000 HD
ENDROOT
BRANCH   1  14
ATOM     13  N   UNL     1       5.979   3.928  14.153  0.00  0.00    +0.000 NA
ATOM     14  C   UNL     1       5.273   4.202  15.210  0.00  0.00    +0.000 C 
BRANCH  13  16
ATOM     15  C   UNL     1       5.921   3.045  12.048  0.00  0.00    +0.000 C 
ATOM     16  O   UNL     1       5.137   3.667  13.065  0.00  0.00    +0.000 OA
ENDBRANCH  13  16
ENDBRANCH   1  14
BRANCH   8  17
ATOM     17  O   UNL     1       4.350   3.267  17.749  0.00  0.00    +0.000 OA
BRANCH  17  18
ATOM     18  C   UNL     1       3.601   3.436  18.960  0.00  0.00    +0.000 C 
BRANCH  18  19
ATOM     19  C   UNL     1       2.191   3.994  18.675  0.00  0.00    +0.000 C 
ATOM     20  C   UNL     1       1.377   4.127  19.976  0.00  0.00    +0.000 C 
ATOM     21  C   UNL     1       1.895   5.247  20.879  0.00  0.00    +0.000 C 
ATOM     22  C   UNL     1       1.982   6.579  20.138  0.00  0.00    +0.000 C 
ATOM     23  C   UNL     1       2.736   6.474  18.814  0.00  0.00    +0.000 C 
ATOM     24  C   UNL     1       2.208   5.340  17.939  0.00  0.00    +0.000 C 
ENDBRANCH  18  19
ENDBRANCH  17  18
ENDBRANCH   8  17
TORSDOF 5
ENDMDL
MODEL 5
REMARK VINA RESULT:      -7.4      0.994      1.113
REMARK  Name = 
REMARK  6 active torsions:
REMARK  status: ('A' for Active; 'I' for Inactive)
REMARK    1  A    between atoms: C_1  and  O_2
REMARK    2  A    between atoms: O_2  and  N_3
REMARK    3  A    between atoms: C_4  and  C_5
REMARK    4  A    between atoms: C_12  and  O_13
REMARK    5  A    between atoms: O_13  and  C_14
REMARK    6  A    between atoms: C_14  and  C_15
REMARK                            x       y       z     vdW  Elec       q    Type
REMARK                         _______ _______ _______ _____ _____    ______ ____
ROOT
ATOM      1  C   UNL     1       5.969   4.407  15.038  0.00  0.00    +0.000 A 
ATOM      2  C   UNL     1       7.098   5.213  14.983  0.00  0.00    +0.000 A 
ATOM      3  N   UNL     1       7.751   5.514  13.785  0.00  0.00    +0.000 N 
ATOM      4  N   UNL     1       7.583   5.859  16.056  0.00  0.00    +0.000 NA
ATOM      5  C   UNL     1       6.921   5.718  17.202  0.00  0.00    +0.000 A 
ATOM      6  N   UNL     1       7.409   6.371  18.311  0.00  0.00    +0.000 N 
ATOM      7  N   UNL     1       5.839   4.960  17.366  0.00  0.00    +0.000 NA
ATOM      8  C   UNL     1       5.365   4.323  16.273  0.00  0.00    +0.000 A 
ATOM      9  H   UNL     1       7.827   4.702  13.177  0.00  0.00    +0.000 HD
ATOM     10  H   UNL     1       8.622   5.996  13.969  0.00  0.00    +0.000 HD
ATOM     11  H   UNL     1       8.392   6.574  18.191  0.00  0.00    +0.000 HD
ATOM     12  H   UNL     1       7.131   5.892  19.155  0.00  0.00    +0.000 HD
ENDROOT
BRANCH   1  14
ATOM     13  N   UNL     1       6.278   3.290  12.926  0.00  0.00    +0.000 NA
ATOM     14  C   UNL     1       5.463   3.689  13.858  0.00  0.00    +0.000 C 
BRANCH  13  16
ATOM     15  C   UNL     1       4.422   3.463  11.606  0.00  0.00    +0.000 C 
ATOM     16  O   UNL     1       5.563   2.660  11.899  0.00  0.00    +0.000 OA
ENDBRANCH  13  16
ENDBRANCH   1  14
BRANCH   8  17
ATOM     17  O   UNL     1       4.268   3.496  16.447  0.00  0.00    +0.000 OA
BRANCH  17  18
ATOM     18  C   UNL     1       3.699   3.626  17.758  0.00  0.00    +0.000 C 
BRANCH  18  19
ATOM     19  C   UNL     1       2.322   4.318  17.705  0.00  0.00    +0.000 C 
ATOM     20  C   UNL     1       1.235   3.435  18.347  0.00  0.00    +0.000 C 
ATOM     21  C   UNL     1       1.388   3.328  19.865  0.00  0.00    +0.000 C 
ATOM     22  C   UNL     1       1.450   4.703  20.527  0.00  0.00    +0.000 C 
ATOM     23  C   UNL     1       2.479   5.628  19.879  0.00  0.00    +0.000 C 
ATOM     24  C   UNL     1       2.313   5.703  18.364  0.00  0.00    +0.000 C 
ENDBRANCH  18  19
ENDBRANCH  17  18
ENDBRANCH   8  17
TORSDOF 5
ENDMDL
MODEL 6
REMARK VINA RESULT:      -7.2      1.122      1.415
REMARK  Name = 
REMARK  6 active torsions:
REMARK  status: ('A' for Active; 'I' for Inactive)
REMARK    1  A    between atoms: C_1  and  O_2
REMARK    2  A    between atoms: O_2  and  N_3
REMARK    3  A    between atoms: C_4  and  C_5
REMARK    4  A    between atoms: C_12  and  O_13
REMARK    5  A    between atoms: O_13  and  C_14
REMARK    6  A    between atoms: C_14  and  C_15
REMARK                            x       y       z     vdW  Elec       q    Type
REMARK                         _______ _______ _______ _____ _____    ______ ____
ROOT
ATOM      1  C   UNL     1       5.959   4.515  14.919  0.00  0.00    +0.000 A 
ATOM      2  C   UNL     1       7.117   5.278  14.880  0.00  0.00    +0.000 A 
ATOM      3  N   UNL     1       7.811   5.535  13.695  0.00  0.00    +0.000 N 
ATOM      4  N   UNL     1       7.598   5.925  15.954  0.00  0.00    +0.000 NA
ATOM      5  C   UNL     1       6.902   5.827  17.085  0.00  0.00    +0.000 A 
ATOM      6  N   UNL     1       7.386   6.481  18.195  0.00  0.00    +0.000 N 
ATOM      7  N   UNL     1       5.790   5.112  17.233  0.00  0.00    +0.000 NA
ATOM      8  C   UNL     1       5.321   4.474  16.138  0.00  0.00    +0.000 A 
ATOM      9  H   UNL     1       7.873   4.710  13.102  0.00  0.00    +0.000 HD
ATOM     10  H   UNL     1       8.695   5.989  13.894  0.00  0.00    +0.000 HD
ATOM     11  H   UNL     1       8.378   6.647  18.098  0.00  0.00    +0.000 HD
ATOM     12  H   UNL     1       7.069   6.028  19.040  0.00  0.00    +0.000 HD
ENDROOT
BRANCH   1  14
ATOM     13  N   UNL     1       6.283   3.240  12.900  0.00  0.00    +0.000 NA
ATOM     14  C   UNL     1       5.458   3.796  13.737  0.00  0.00    +0.000 C 
BRANCH  13  16
ATOM     15  C   UNL     1       4.392   3.409  11.630  0.00  0.00    +0.000 C 
ATOM     16  O   UNL     1       5.575   2.642  11.850  0.00  0.00    +0.000 OA
ENDBRANCH  13  16
ENDBRANCH   1  14
BRANCH   8  17
ATOM     17  O   UNL     1       4.191   3.690  16.297  0.00  0.00    +0.000 OA
BRANCH  17  18
ATOM     18  C   UNL     1       3.424   4.077  17.447  0.00  0.00    +0.000 C 
BRANCH  18  19
ATOM     19  C   UNL     1       3.360   2.939  18.487  0.00  0.00    +0.000 C 
ATOM     20  C   UNL     1       3.535   3.488  19.915  0.00  0.00    +0.000 C 
ATOM     21  C   UNL     1       2.327   4.303  20.382  0.00  0.00    +0.000 C 
ATOM     22  C   UNL     1       1.025   3.519  20.242  0.00  0.00    +0.000 C 
ATOM     23  C   UNL     1       0.843   2.911  18.853  0.00  0.00    +0.000 C 
ATOM     24  C   UNL     1       2.067   2.117  18.406  0.00  0.00    +0.000 C 
ENDBRANCH  18  19
ENDBRANCH  17  18
ENDBRANCH   8  17
TORSDOF 5
ENDMDL
MODEL 7
REMARK VINA RESULT:      -7.1      3.447      6.560
REMARK  Name = 
REMARK  6 active torsions:
REMARK  status: ('A' for Active; 'I' for Inactive)
REMARK    1  A    between atoms: C_1  and  O_2
REMARK    2  A    between atoms: O_2  and  N_3
REMARK    3  A    between atoms: C_4  and  C_5
REMARK    4  A    between atoms: C_12  and  O_13
REMARK    5  A    between atoms: O_13  and  C_14
REMARK    6  A    between atoms: C_14  and  C_15
REMARK                            x       y       z     vdW  Elec       q    Type
REMARK                         _______ _______ _______ _____ _____    ______ ____
ROOT
ATOM      1  C   UNL     1       3.753   3.249  20.091  0.00  0.00    +0.000 A 
ATOM      2  C   UNL     1       2.737   3.649  20.947  0.00  0.00    +0.000 A 
ATOM      3  N   UNL     1       2.325   2.879  22.039  0.00  0.00    +0.000 N 
ATOM      4  N   UNL     1       2.148   4.853  20.866  0.00  0.00    +0.000 NA
ATOM      5  C   UNL     1       2.594   5.685  19.927  0.00  0.00    +0.000 A 
ATOM      6  N   UNL     1       1.997   6.922  19.829  0.00  0.00    +0.000 N 
ATOM      7  N   UNL     1       3.551   5.397  19.049  0.00  0.00    +0.000 NA
ATOM      8  C   UNL     1       4.133   4.182  19.152  0.00  0.00    +0.000 A 
ATOM      9  H   UNL     1       2.269   1.889  21.809  0.00  0.00    +0.000 HD
ATOM     10  H   UNL     1       1.489   3.273  22.453  0.00  0.00    +0.000 HD
ATOM     11  H   UNL     1       1.074   6.897  20.239  0.00  0.00    +0.000 HD
ATOM     12  H   UNL     1       2.081   7.283  18.890  0.00  0.00    +0.000 HD
ENDROOT
BRANCH   1  14
ATOM     13  N   UNL     1       5.252   1.657  21.103  0.00  0.00    +0.000 NA
ATOM     14  C   UNL     1       4.372   1.918  20.181  0.00  0.00    +0.000 C 
BRANCH  13  16
ATOM     15  C   UNL     1       6.284  -0.048  22.218  0.00  0.00    +0.000 C 
ATOM     16  O   UNL     1       5.714   0.342  20.970  0.00  0.00    +0.000 OA
ENDBRANCH  13  16
ENDBRANCH   1  14
BRANCH   8  17
ATOM     17  O   UNL     1       5.096   3.859  18.211  0.00  0.00    +0.000 OA
BRANCH  17  18
ATOM     18  C   UNL     1       5.353   4.944  17.309  0.00  0.00    +0.000 C 
BRANCH  18  19
ATOM     19  C   UNL     1       6.840   4.998  16.905  0.00  0.00    +0.000 C 
ATOM     20  C   UNL     1       7.201   6.373  16.310  0.00  0.00    +0.000 C 
ATOM     21  C   UNL     1       7.202   7.483  17.362  0.00  0.00    +0.000 C 
ATOM     22  C   UNL     1       8.096   7.139  18.551  0.00  0.00    +0.000 C 
ATOM     23  C   UNL     1       7.805   5.756  19.132  0.00  0.00    +0.000 C 
ATOM     24  C   UNL     1       7.795   4.671  18.060  0.00  0.00    +0.000 C 
ENDBRANCH  18  19
ENDBRANCH  17  18
ENDBRANCH   8  17
TORSDOF 5
ENDMDL
MODEL 8
REMARK VINA RESULT:      -7.0      3.496      6.471
REMARK  Name = 
REMARK  6 active torsions:
REMARK  status: ('A' for Active; 'I' for Inactive)
REMARK    1  A    between atoms: C_1  and  O_2
REMARK    2  A    between atoms: O_2  and  N_3
REMARK    3  A    between atoms: C_4  and  C_5
REMARK    4  A    between atoms: C_12  and  O_13
REMARK    5  A    between atoms: O_13  and  C_14
REMARK    6  A    between atoms: C_14  and  C_15
REMARK                            x       y       z     vdW  Elec       q    Type
REMARK                         _______ _______ _______ _____ _____    ______ ____
ROOT
ATOM      1  C   UNL     1       3.920   3.193  20.282  0.00  0.00    +0.000 A 
ATOM      2  C   UNL     1       2.697   3.411  20.901  0.00  0.00    +0.000 A 
ATOM      3  N   UNL     1       2.074   2.447  21.700  0.00  0.00    +0.000 N 
ATOM      4  N   UNL     1       2.071   4.599  20.879  0.00  0.00    +0.000 NA
ATOM      5  C   UNL     1       2.684   5.597  20.245  0.00  0.00    +0.000 A 
ATOM      6  N   UNL     1       2.053   6.819  20.210  0.00  0.00    +0.000 N 
ATOM      7  N   UNL     1       3.848   5.491  19.609  0.00  0.00    +0.000 NA
ATOM      8  C   UNL     1       4.463   4.289  19.649  0.00  0.00    +0.000 A 
ATOM      9  H   UNL     1       2.142   1.515  21.297  0.00  0.00    +0.000 HD
ATOM     10  H   UNL     1       1.137   2.743  21.944  0.00  0.00    +0.000 HD
ATOM     11  H   UNL     1       1.059   6.703  20.356  0.00  0.00    +0.000 HD
ATOM     12  H   UNL     1       2.347   7.347  19.402  0.00  0.00    +0.000 HD
ENDROOT
BRANCH   1  14
ATOM     13  N   UNL     1       5.321   1.523  21.308  0.00  0.00    +0.000 NA
ATOM     14  C   UNL     1       4.581   1.879  20.300  0.00  0.00    +0.000 C 
BRANCH  13  16
ATOM     15  C   UNL     1       6.436  -0.201  22.309  0.00  0.00    +0.000 C 
ATOM     16  O   UNL     1       5.860   0.250  21.084  0.00  0.00    +0.000 OA
ENDBRANCH  13  16
ENDBRANCH   1  14
BRANCH   8  17
ATOM     17  O   UNL     1       5.651   4.160  18.949  0.00  0.00    +0.000 OA
BRANCH  17  18
ATOM     18  C   UNL     1       6.534   5.267  19.180  0.00  0.00    +0.000 C 
BRANCH  18  19
ATOM     19  C   UNL     1       7.341   5.615  17.913  0.00  0.00    +0.000 C 
ATOM     20  C   UNL     1       7.205   4.507  16.851  0.00  0.00    +0.000 C 
ATOM     21  C   UNL     1       5.807   4.457  16.234  0.00  0.00    +0.000 C 
ATOM     22  C   UNL     1       5.382   5.814  15.679  0.00  0.00    +0.000 C 
ATOM     23  C   UNL     1       5.557   6.949  16.687  0.00  0.00    +0.000 C 
ATOM     24  C   UNL     1       6.955   6.966  17.298  0.00  0.00    +0.000 C 
ENDBRANCH  18  19
ENDBRANCH  17  18
ENDBRANCH   8  17
TORSDOF 5
ENDMDL
MODEL 9
REMARK VINA RESULT:      -7.0      3.524      6.298
REMARK  Name = 
REMARK  6 active torsions:
REMARK  status: ('A' for Active; 'I' for Inactive)
REMARK    1  A    between atoms: C_1  and  O_2
REMARK    2  A    between atoms: O_2  and  N_3
REMARK    3  A    between atoms: C_4  and  C_5
REMARK    4  A    between atoms: C_12  and  O_13
REMARK    5  A    between atoms: O_13  and  C_14
REMARK    6  A    between atoms: C_14  and  C_15
REMARK                            x       y       z     vdW  Elec       q    Type
REMARK                         _______ _______ _______ _____ _____    ______ ____
ROOT
ATOM      1  C   UNL     1       2.470   6.197  19.073  0.00  0.00    +0.000 A 
ATOM      2  C   UNL     1       2.071   6.187  20.403  0.00  0.00    +0.000 A 
ATOM      3  N   UNL     1       1.711   7.350  21.089  0.00  0.00    +0.000 N 
ATOM      4  N   UNL     1       1.888   5.054  21.099  0.00  0.00    +0.000 NA
ATOM      5  C   UNL     1       2.086   3.906  20.455  0.00  0.00    +0.000 A 
ATOM      6  N   UNL     1       1.906   2.736  21.158  0.00  0.00    +0.000 N 
ATOM      7  N   UNL     1       2.482   3.804  19.189  0.00  0.00    +0.000 NA
ATOM      8  C   UNL     1       2.655   4.956  18.505  0.00  0.00    +0.000 A 
ATOM      9  H   UNL     1       2.334   8.126  20.879  0.00  0.00    +0.000 HD
ATOM     10  H   UNL     1       1.585   7.153  22.075  0.00  0.00    +0.000 HD
ATOM     11  H   UNL     1       1.999   2.907  22.149  0.00  0.00    +0.000 HD
ATOM     12  H   UNL     1       2.462   1.994  20.758  0.00  0.00    +0.000 HD
ENDROOT
BRANCH   1  14
ATOM     13  N   UNL     1       1.679   8.188  17.972  0.00  0.00    +0.000 NA
ATOM     14  C   UNL     1       2.686   7.449  18.332  0.00  0.00    +0.000 C 
BRANCH  13  16
ATOM     15  C   UNL     1       2.029  10.440  18.120  0.00  0.00    +0.000 C 
ATOM     16  O   UNL     1       2.131   9.306  17.261  0.00  0.00    +0.000 OA
ENDBRANCH  13  16
ENDBRANCH   1  14
BRANCH   8  17
ATOM     17  O   UNL     1       3.113   4.858  17.202  0.00  0.00    +0.000 OA
BRANCH  17  18
ATOM     18  C   UNL     1       4.346   4.129  17.118  0.00  0.00    +0.000 C 
BRANCH  18  19
ATOM     19  C   UNL     1       5.249   4.681  15.997  0.00  0.00    +0.000 C 
ATOM     20  C   UNL     1       5.219   6.221  15.972  0.00  0.00    +0.000 C 
ATOM     21  C   UNL     1       5.932   6.839  17.175  0.00  0.00    +0.000 C 
ATOM     22  C   UNL     1       7.358   6.313  17.323  0.00  0.00    +0.000 C 
ATOM     23  C   UNL     1       7.433   4.787  17.295  0.00  0.00    +0.000 C 
ATOM     24  C   UNL     1       6.701   4.196  16.093  0.00  0.00    +0.000 C 
ENDBRANCH  18  19
ENDBRANCH  17  18
ENDBRANCH   8  17
TORSDOF 5
ENDMDL
