MODEL 1
REMARK VINA RESULT:      -8.7      0.000      0.000
REMARK  Name = 
REMARK  11 active torsions:
REMARK  status: ('A' for Active; 'I' for Inactive)
REMARK    1  A    between atoms: C_1  and  C_2
REMARK    2  A    between atoms: N_6  and  C_7
REMARK    3  A    between atoms: N_6  and  C_8
REMARK    4  A    between atoms: C_8  and  C_9
REMARK    5  A    between atoms: C_9  and  C_11
REMARK    6  A    between atoms: C_14  and  C_15
REMARK    7  A    between atoms: C_18  and  C_19
REMARK    8  A    between atoms: C_19  and  C_21
REMARK    9  A    between atoms: C_21  and  N_22
REMARK   10  A    between atoms: N_22  and  C_23
REMARK   11  A    between atoms: C_27  and  C_28
REMARK                            x       y       z     vdW  Elec       q    Type
REMARK                         _______ _______ _______ _____ _____    ______ ____
ROOT
ATOM      1  C   UNL     1       2.436   6.870  18.688  0.00  0.00    +0.000 A 
ATOM      2  C   UNL     1       2.107   8.125  18.172  0.00  0.00    +0.000 A 
ATOM      3  C   UNL     1       1.501   9.071  18.989  0.00  0.00    +0.000 A 
ATOM      4  C   UNL     1       1.170   8.784  20.323  0.00  0.00    +0.000 A 
ATOM      5  C   UNL     1       1.494   7.510  20.820  0.00  0.00    +0.000 A 
ATOM      6  C   UNL     1       2.132   6.564  20.016  0.00  0.00    +0.000 A 
ENDROOT
BRANCH   4   7
ATOM      7  C   UNL     1       0.468   9.782  21.148  0.00  0.00    +0.000 A 
ATOM      8  C   UNL     1       0.403  11.121  20.732  0.00  0.00    +0.000 A 
ATOM      9  C   UNL     1      -0.284  12.074  21.479  0.00  0.00    +0.000 A 
ATOM     10  C   UNL     1      -0.952  11.696  22.645  0.00  0.00    +0.000 A 
ATOM     11  C   UNL     1      -0.881  10.378  23.096  0.00  0.00    +0.000 A 
ATOM     12  C   UNL     1      -0.162   9.433  22.351  0.00  0.00    +0.000 A 
BRANCH  10  13
ATOM     13  C   UNL     1      -1.758  12.740  23.319  0.00  0.00    +0.000 C 
ATOM     14  O   UNL     1      -1.218  13.799  23.630  0.00  0.00    +0.000 OA
BRANCH  13  15
ATOM     15  C   UNL     1      -3.246  12.488  23.552  0.00  0.00    +0.000 C 
BRANCH  15  16
ATOM     16  N   UNL     1      -4.188  13.255  22.558  0.00  0.00    +0.000 N 
ATOM     17  C   UNL     1      -3.827  12.824  21.134  0.00  0.00    +0.000 C 
ATOM     18  C   UNL     1      -3.979  14.763  22.688  0.00  0.00    +0.000 C 
ATOM     19  C   UNL     1      -4.850  15.165  23.854  0.00  0.00    +0.000 C 
ATOM     20  C   UNL     1      -6.096  14.321  23.692  0.00  0.00    +0.000 C 
ATOM     21  C   UNL     1      -5.674  13.026  22.984  0.00  0.00    +0.000 C 
ATOM     22  C   UNL     1      -6.599  12.701  21.821  0.00  0.00    +0.000 C 
ENDBRANCH  15  16
ENDBRANCH  13  15
ENDBRANCH  10  13
ENDBRANCH   4   7
BRANCH   1  23
ATOM     23  C   UNL     1       3.121   5.851  17.860  0.00  0.00    +0.000 C 
ATOM     24  O   UNL     1       2.549   4.797  17.589  0.00  0.00    +0.000 OA
BRANCH  23  25
ATOM     25  C   UNL     1       4.533   6.178  17.386  0.00  0.00    +0.000 C 
BRANCH  25  31
ATOM     26  C   UNL     1       7.340   6.972  17.425  0.00  0.00    +0.000 C 
ATOM     27  C   UNL     1       7.008   5.518  17.116  0.00  0.00    +0.000 C 
ATOM     28  C   UNL     1       7.008   5.231  15.625  0.00  0.00    +0.000 C 
ATOM     29  C   UNL     1       6.275   3.915  15.505  0.00  0.00    +0.000 C 
ATOM     30  C   UNL     1       5.272   3.867  16.649  0.00  0.00    +0.000 C 
ATOM     31  N   UNL     1       5.602   5.070  17.571  0.00  0.00    +0.000 N 
ATOM     32  C   UNL     1       5.618   4.630  19.034  0.00  0.00    +0.000 C 
ENDBRANCH  25  31
ENDBRANCH  23  25
ENDBRANCH   1  23
TORSDOF 7
ENDMDL
MODEL 2
REMARK VINA RESULT:      -8.7      0.663      1.767
REMARK  Name = 
REMARK  11 active torsions:
REMARK  status: ('A' for Active; 'I' for Inactive)
REMARK    1  A    between atoms: C_1  and  C_2
REMARK    2  A    between atoms: N_6  and  C_7
REMARK    3  A    between atoms: N_6  and  C_8
REMARK    4  A    between atoms: C_8  and  C_9
REMARK    5  A    between atoms: C_9  and  C_11
REMARK    6  A    between atoms: C_14  and  C_15
REMARK    7  A    between atoms: C_18  and  C_19
REMARK    8  A    between atoms: C_19  and  C_21
REMARK    9  A    between atoms: C_21  and  N_22
REMARK   10  A    between atoms: N_22  and  C_23
REMARK   11  A    between atoms: C_27  and  C_28
REMARK                            x       y       z     vdW  Elec       q    Type
REMARK                         _______ _______ _______ _____ _____    ______ ____
ROOT
ATOM      1  C   UNL     1       2.408   7.100  18.666  0.00  0.00    +0.000 A 
ATOM      2  C   UNL     1       2.032   8.295  18.048  0.00  0.00    +0.000 A 
ATOM      3  C   UNL     1       1.412   9.291  18.790  0.00  0.00    +0.000 A 
ATOM      4  C   UNL     1       1.110   9.112  20.150  0.00  0.00    +0.000 A 
ATOM      5  C   UNL     1       1.481   7.897  20.750  0.00  0.00    +0.000 A 
ATOM      6  C   UNL     1       2.134   6.903  20.021  0.00  0.00    +0.000 A 
ENDROOT
BRANCH   4   7
ATOM      7  C   UNL     1       0.392  10.159  20.898  0.00  0.00    +0.000 A 
ATOM      8  C   UNL     1      -0.239   9.853  22.113  0.00  0.00    +0.000 A 
ATOM      9  C   UNL     1      -0.893  10.833  22.852  0.00  0.00    +0.000 A 
ATOM     10  C   UNL     1      -0.898  12.156  22.403  0.00  0.00    +0.000 A 
ATOM     11  C   UNL     1      -0.303  12.484  21.186  0.00  0.00    +0.000 A 
ATOM     12  C   UNL     1       0.328  11.482  20.436  0.00  0.00    +0.000 A 
BRANCH  10  13
ATOM     13  C   UNL     1      -1.512  13.161  23.302  0.00  0.00    +0.000 C 
ATOM     14  O   UNL     1      -0.827  14.103  23.695  0.00  0.00    +0.000 OA
BRANCH  13  15
ATOM     15  C   UNL     1      -2.990  13.026  23.662  0.00  0.00    +0.000 C 
BRANCH  15  16
ATOM     16  N   UNL     1      -3.924  14.048  22.924  0.00  0.00    +0.000 N 
ATOM     17  C   UNL     1      -4.057  15.292  23.806  0.00  0.00    +0.000 C 
ATOM     18  C   UNL     1      -5.310  13.440  22.710  0.00  0.00    +0.000 C 
ATOM     19  C   UNL     1      -5.172  12.623  21.448  0.00  0.00    +0.000 C 
ATOM     20  C   UNL     1      -4.283  13.466  20.558  0.00  0.00    +0.000 C 
ATOM     21  C   UNL     1      -3.374  14.290  21.480  0.00  0.00    +0.000 C 
ATOM     22  C   UNL     1      -3.353  15.757  21.075  0.00  0.00    +0.000 C 
ENDBRANCH  15  16
ENDBRANCH  13  15
ENDBRANCH  10  13
ENDBRANCH   4   7
BRANCH   1  23
ATOM     23  C   UNL     1       3.110   6.032  17.917  0.00  0.00    +0.000 C 
ATOM     24  O   UNL     1       2.551   4.956  17.718  0.00  0.00    +0.000 OA
BRANCH  23  25
ATOM     25  C   UNL     1       4.522   6.340  17.432  0.00  0.00    +0.000 C 
BRANCH  25  31
ATOM     26  C   UNL     1       7.331   7.130  17.426  0.00  0.00    +0.000 C 
ATOM     27  C   UNL     1       6.995   5.665  17.178  0.00  0.00    +0.000 C 
ATOM     28  C   UNL     1       6.988   5.317  15.700  0.00  0.00    +0.000 C 
ATOM     29  C   UNL     1       6.252   3.999  15.637  0.00  0.00    +0.000 C 
ATOM     30  C   UNL     1       5.254   3.999  16.786  0.00  0.00    +0.000 C 
ATOM     31  N   UNL     1       5.590   5.239  17.657  0.00  0.00    +0.000 N 
ATOM     32  C   UNL     1       5.612   4.859  19.137  0.00  0.00    +0.000 C 
ENDBRANCH  25  31
ENDBRANCH  23  25
ENDBRANCH   1  23
TORSDOF 7
ENDMDL
MODEL 3
REMARK VINA RESULT:      -8.7      1.984      3.572
REMARK  Name = 
REMARK  11 active torsions:
REMARK  status: ('A' for Active; 'I' for Inactive)
REMARK    1  A    between atoms: C_1  and  C_2
REMARK    2  A    between atoms: N_6  and  C_7
REMARK    3  A    between atoms: N_6  and  C_8
REMARK    4  A    between atoms: C_8  and  C_9
REMARK    5  A    between atoms: C_9  and  C_11
REMARK    6  A    between atoms: C_14  and  C_15
REMARK    7  A    between atoms: C_18  and  C_19
REMARK    8  A    between atoms: C_19  and  C_21
REMARK    9  A    between atoms: C_21  and  N_22
REMARK   10  A    between atoms: N_22  and  C_23
REMARK   11  A    between atoms: C_27  and  C_28
REMARK                            x       y       z     vdW  Elec       q    Type
REMARK                         _______ _______ _______ _____ _____    ______ ____
ROOT
ATOM      1  C   UNL     1       2.377   6.862  19.164  0.00  0.00    +0.000 A 
ATOM      2  C   UNL     1       1.904   6.726  20.470  0.00  0.00    +0.000 A 
ATOM      3  C   UNL     1       1.216   7.773  21.070  0.00  0.00    +0.000 A 
ATOM      4  C   UNL     1       1.016   8.994  20.405  0.00  0.00    +0.000 A 
ATOM      5  C   UNL     1       1.513   9.118  19.097  0.00  0.00    +0.000 A 
ATOM      6  C   UNL     1       2.178   8.060  18.475  0.00  0.00    +0.000 A 
ENDROOT
BRANCH   4   7
ATOM      7  C   UNL     1       0.340  10.111  21.087  0.00  0.00    +0.000 A 
ATOM      8  C   UNL     1      -0.340   9.893  22.296  0.00  0.00    +0.000 A 
ATOM      9  C   UNL     1      -0.955  10.940  22.974  0.00  0.00    +0.000 A 
ATOM     10  C   UNL     1      -0.872  12.240  22.472  0.00  0.00    +0.000 A 
ATOM     11  C   UNL     1      -0.226  12.481  21.260  0.00  0.00    +0.000 A 
ATOM     12  C   UNL     1       0.366  11.414  20.570  0.00  0.00    +0.000 A 
BRANCH  10  13
ATOM     13  C   UNL     1      -1.449  13.316  23.310  0.00  0.00    +0.000 C 
ATOM     14  O   UNL     1      -0.741  14.271  23.622  0.00  0.00    +0.000 OA
BRANCH  13  15
ATOM     15  C   UNL     1      -2.921  13.232  23.709  0.00  0.00    +0.000 C 
BRANCH  15  16
ATOM     16  N   UNL     1      -3.861  14.186  22.891  0.00  0.00    +0.000 N 
ATOM     17  C   UNL     1      -4.038  15.479  23.692  0.00  0.00    +0.000 C 
ATOM     18  C   UNL     1      -5.229  13.536  22.688  0.00  0.00    +0.000 C 
ATOM     19  C   UNL     1      -5.048  12.646  21.482  0.00  0.00    +0.000 C 
ATOM     20  C   UNL     1      -4.158  13.452  20.559  0.00  0.00    +0.000 C 
ATOM     21  C   UNL     1      -3.286  14.351  21.446  0.00  0.00    +0.000 C 
ATOM     22  C   UNL     1      -3.286  15.790  20.950  0.00  0.00    +0.000 C 
ENDBRANCH  15  16
ENDBRANCH  13  15
ENDBRANCH  10  13
ENDBRANCH   4   7
BRANCH   1  23
ATOM     23  C   UNL     1       3.078   5.752  18.477  0.00  0.00    +0.000 C 
ATOM     24  O   UNL     1       4.241   5.899  18.107  0.00  0.00    +0.000 OA
BRANCH  23  25
ATOM     25  C   UNL     1       2.290   4.465  18.261  0.00  0.00    +0.000 C 
BRANCH  25  31
ATOM     26  C   UNL     1       0.441   2.235  18.611  0.00  0.00    +0.000 C 
ATOM     27  C   UNL     1       1.651   2.318  19.534  0.00  0.00    +0.000 C 
ATOM     28  C   UNL     1       1.309   2.941  20.876  0.00  0.00    +0.000 C 
ATOM     29  C   UNL     1       2.652   3.312  21.460  0.00  0.00    +0.000 C 
ATOM     30  C   UNL     1       3.567   3.628  20.286  0.00  0.00    +0.000 C 
ATOM     31  N   UNL     1       2.800   3.205  19.006  0.00  0.00    +0.000 N 
ATOM     32  C   UNL     1       3.716   2.410  18.076  0.00  0.00    +0.000 C 
ENDBRANCH  25  31
ENDBRANCH  23  25
ENDBRANCH   1  23
TORSDOF 7
ENDMDL
MODEL 4
REMARK VINA RESULT:      -8.6      0.565      1.636
REMARK  Name = 
REMARK  11 active torsions:
REMARK  status: ('A' for Active; 'I' for Inactive)
REMARK    1  A    between atoms: C_1  and  C_2
REMARK    2  A    between atoms: N_6  and  C_7
REMARK    3  A    between atoms: N_6  and  C_8
REMARK    4  A    between atoms: C_8  and  C_9
REMARK    5  A    between atoms: C_9  and  C_11
REMARK    6  A    between atoms: C_14  and  C_15
REMARK    7  A    between atoms: C_18  and  C_19
REMARK    8  A    between atoms: C_19  and  C_21
REMARK    9  A    between atoms: C_21  and  N_22
REMARK   10  A    between atoms: N_22  and  C_23
REMARK   11  A    between atoms: C_27  and  C_28
REMARK                            x       y       z     vdW  Elec       q    Type
REMARK                         _______ _______ _______ _____ _____    ______ ____
ROOT
ATOM      1  C   UNL     1       2.436   6.798  18.660  0.00  0.00    +0.000 A 
ATOM      2  C   UNL     1       2.124   8.065  18.162  0.00  0.00    +0.000 A 
ATOM      3  C   UNL     1       1.544   9.012  18.997  0.00  0.00    +0.000 A 
ATOM      4  C   UNL     1       1.220   8.713  20.331  0.00  0.00    +0.000 A 
ATOM      5  C   UNL     1       1.527   7.428  20.808  0.00  0.00    +0.000 A 
ATOM      6  C   UNL     1       2.139   6.481  19.987  0.00  0.00    +0.000 A 
ENDROOT
BRANCH   4   7
ATOM      7  C   UNL     1       0.545   9.714  21.175  0.00  0.00    +0.000 A 
ATOM      8  C   UNL     1       0.554  11.069  20.809  0.00  0.00    +0.000 A 
ATOM      9  C   UNL     1      -0.106  12.025  21.573  0.00  0.00    +0.000 A 
ATOM     10  C   UNL     1      -0.823  11.638  22.707  0.00  0.00    +0.000 A 
ATOM     11  C   UNL     1      -0.827  10.303  23.109  0.00  0.00    +0.000 A 
ATOM     12  C   UNL     1      -0.133   9.351  22.347  0.00  0.00    +0.000 A 
BRANCH  10  13
ATOM     13  C   UNL     1      -1.596  12.694  23.399  0.00  0.00    +0.000 C 
ATOM     14  O   UNL     1      -1.007  13.696  23.800  0.00  0.00    +0.000 OA
BRANCH  13  15
ATOM     15  C   UNL     1      -3.108  12.531  23.540  0.00  0.00    +0.000 C 
BRANCH  15  16
ATOM     16  N   UNL     1      -3.944  13.592  22.742  0.00  0.00    +0.000 N 
ATOM     17  C   UNL     1      -4.729  14.434  23.750  0.00  0.00    +0.000 C 
ATOM     18  C   UNL     1      -4.928  12.895  21.803  0.00  0.00    +0.000 C 
ATOM     19  C   UNL     1      -4.114  12.579  20.571  0.00  0.00    +0.000 C 
ATOM     20  C   UNL     1      -3.226  13.792  20.394  0.00  0.00    +0.000 C 
ATOM     21  C   UNL     1      -2.987  14.383  21.791  0.00  0.00    +0.000 C 
ATOM     22  C   UNL     1      -3.219  15.887  21.806  0.00  0.00    +0.000 C 
ENDBRANCH  15  16
ENDBRANCH  13  15
ENDBRANCH  10  13
ENDBRANCH   4   7
BRANCH   1  23
ATOM     23  C   UNL     1       3.094   5.778  17.812  0.00  0.00    +0.000 C 
ATOM     24  O   UNL     1       2.510   4.727  17.554  0.00  0.00    +0.000 OA
BRANCH  23  25
ATOM     25  C   UNL     1       4.496   6.099  17.303  0.00  0.00    +0.000 C 
BRANCH  25  31
ATOM     26  C   UNL     1       7.304   6.886  17.376  0.00  0.00    +0.000 C 
ATOM     27  C   UNL     1       6.971   5.443  17.018  0.00  0.00    +0.000 C 
ATOM     28  C   UNL     1       6.974   5.206  15.518  0.00  0.00    +0.000 C 
ATOM     29  C   UNL     1       6.239   3.896  15.353  0.00  0.00    +0.000 C 
ATOM     30  C   UNL     1       5.233   3.812  16.492  0.00  0.00    +0.000 C 
ATOM     31  N   UNL     1       5.562   4.983  17.454  0.00  0.00    +0.000 N 
ATOM     32  C   UNL     1       5.574   4.495  18.902  0.00  0.00    +0.000 C 
ENDBRANCH  25  31
ENDBRANCH  23  25
ENDBRANCH   1  23
TORSDOF 7
ENDMDL
MODEL 5
REMARK VINA RESULT:      -8.6      2.087     11.021
REMARK  Name = 
REMARK  11 active torsions:
REMARK  status: ('A' for Active; 'I' for Inactive)
REMARK    1  A    between atoms: C_1  and  C_2
REMARK    2  A    between atoms: N_6  and  C_7
REMARK    3  A    between atoms: N_6  and  C_8
REMARK    4  A    between atoms: C_8  and  C_9
REMARK    5  A    between atoms: C_9  and  C_11
REMARK    6  A    between atoms: C_14  and  C_15
REMARK    7  A    between atoms: C_18  and  C_19
REMARK    8  A    between atoms: C_19  and  C_21
REMARK    9  A    between atoms: C_21  and  N_22
REMARK   10  A    between atoms: N_22  and  C_23
REMARK   11  A    between atoms: C_27  and  C_28
REMARK                            x       y       z     vdW  Elec       q    Type
REMARK                         _______ _______ _______ _____ _____    ______ ____
ROOT
ATOM      1  C   UNL     1      -0.501  12.522  22.333  0.00  0.00    +0.000 A 
ATOM      2  C   UNL     1      -0.862  11.238  22.747  0.00  0.00    +0.000 A 
ATOM      3  C   UNL     1      -0.298  10.129  22.130  0.00  0.00    +0.000 A 
ATOM      4  C   UNL     1       0.604  10.264  21.062  0.00  0.00    +0.000 A 
ATOM      5  C   UNL     1       0.943  11.563  20.649  0.00  0.00    +0.000 A 
ATOM      6  C   UNL     1       0.405  12.684  21.283  0.00  0.00    +0.000 A 
ENDROOT
BRANCH   4   7
ATOM      7  C   UNL     1       1.137   9.070  20.382  0.00  0.00    +0.000 A 
ATOM      8  C   UNL     1       1.536   9.141  19.038  0.00  0.00    +0.000 A 
ATOM      9  C   UNL     1       2.074   8.036  18.388  0.00  0.00    +0.000 A 
ATOM     10  C   UNL     1       2.256   6.839  19.083  0.00  0.00    +0.000 A 
ATOM     11  C   UNL     1       1.844   6.731  20.410  0.00  0.00    +0.000 A 
ATOM     12  C   UNL     1       1.277   7.844  21.048  0.00  0.00    +0.000 A 
BRANCH  10  13
ATOM     13  C   UNL     1       2.943   5.745  18.357  0.00  0.00    +0.000 C 
ATOM     14  O   UNL     1       4.167   5.778  18.251  0.00  0.00    +0.000 OA
BRANCH  13  15
ATOM     15  C   UNL     1       2.112   4.583  17.816  0.00  0.00    +0.000 C 
BRANCH  15  16
ATOM     16  N   UNL     1       2.415   3.205  18.504  0.00  0.00    +0.000 N 
ATOM     17  C   UNL     1       3.180   2.334  17.504  0.00  0.00    +0.000 C 
ATOM     18  C   UNL     1       1.111   2.503  18.879  0.00  0.00    +0.000 C 
ATOM     19  C   UNL     1       0.728   3.105  20.209  0.00  0.00    +0.000 C 
ATOM     20  C   UNL     1       2.046   3.260  20.938  0.00  0.00    +0.000 C 
ATOM     21  C   UNL     1       3.130   3.464  19.870  0.00  0.00    +0.000 C 
ATOM     22  C   UNL     1       4.328   2.558  20.113  0.00  0.00    +0.000 C 
ENDBRANCH  15  16
ENDBRANCH  13  15
ENDBRANCH  10  13
ENDBRANCH   4   7
BRANCH   1  23
ATOM     23  C   UNL     1      -1.050  13.728  22.995  0.00  0.00    +0.000 C 
ATOM     24  O   UNL     1      -0.355  14.736  23.102  0.00  0.00    +0.000 OA
BRANCH  23  25
ATOM     25  C   UNL     1      -2.478  13.639  23.523  0.00  0.00    +0.000 C 
BRANCH  25  31
ATOM     26  C   UNL     1      -5.264  12.929  24.015  0.00  0.00    +0.000 C 
ATOM     27  C   UNL     1      -4.916  13.600  22.692  0.00  0.00    +0.000 C 
ATOM     28  C   UNL     1      -4.757  12.598  21.562  0.00  0.00    +0.000 C 
ATOM     29  C   UNL     1      -4.029  13.370  20.487  0.00  0.00    +0.000 C 
ATOM     30  C   UNL     1      -3.156  14.394  21.199  0.00  0.00    +0.000 C 
ATOM     31  N   UNL     1      -3.571  14.360  22.693  0.00  0.00    +0.000 N 
ATOM     32  C   UNL     1      -3.750  15.780  23.228  0.00  0.00    +0.000 C 
ENDBRANCH  25  31
ENDBRANCH  23  25
ENDBRANCH   1  23
TORSDOF 7
ENDMDL
MODEL 6
REMARK VINA RESULT:      -8.6      2.014     11.206
REMARK  Name = 
REMARK  11 active torsions:
REMARK  status: ('A' for Active; 'I' for Inactive)
REMARK    1  A    between atoms: C_1  and  C_2
REMARK    2  A    between atoms: N_6  and  C_7
REMARK    3  A    between atoms: N_6  and  C_8
REMARK    4  A    between atoms: C_8  and  C_9
REMARK    5  A    between atoms: C_9  and  C_11
REMARK    6  A    between atoms: C_14  and  C_15
REMARK    7  A    between atoms: C_18  and  C_19
REMARK    8  A    between atoms: C_19  and  C_21
REMARK    9  A    between atoms: C_21  and  N_22
REMARK   10  A    between atoms: N_22  and  C_23
REMARK   11  A    between atoms: C_27  and  C_28
REMARK                            x       y       z     vdW  Elec       q    Type
REMARK                         _______ _______ _______ _____ _____    ______ ____
ROOT
ATOM      1  C   UNL     1      -1.556  12.149  22.386  0.00  0.00    +0.000 A 
ATOM      2  C   UNL     1      -1.181  10.981  23.052  0.00  0.00    +0.000 A 
ATOM      3  C   UNL     1      -0.370  10.051  22.413  0.00  0.00    +0.000 A 
ATOM      4  C   UNL     1       0.053  10.236  21.086  0.00  0.00    +0.000 A 
ATOM      5  C   UNL     1      -0.349  11.410  20.427  0.00  0.00    +0.000 A 
ATOM      6  C   UNL     1      -1.137  12.365  21.072  0.00  0.00    +0.000 A 
ENDROOT
BRANCH   4   7
ATOM      7  C   UNL     1       0.857   9.204  20.410  0.00  0.00    +0.000 A 
ATOM      8  C   UNL     1       1.164   8.003  21.069  0.00  0.00    +0.000 A 
ATOM      9  C   UNL     1       1.892   7.001  20.437  0.00  0.00    +0.000 A 
ATOM     10  C   UNL     1       2.302   7.167  19.113  0.00  0.00    +0.000 A 
ATOM     11  C   UNL     1       2.035   8.360  18.443  0.00  0.00    +0.000 A 
ATOM     12  C   UNL     1       1.325   9.375  19.099  0.00  0.00    +0.000 A 
BRANCH  10  13
ATOM     13  C   UNL     1       2.968   6.010  18.472  0.00  0.00    +0.000 C 
ATOM     14  O   UNL     1       4.196   5.962  18.462  0.00  0.00    +0.000 OA
BRANCH  13  15
ATOM     15  C   UNL     1       2.107   4.887  17.897  0.00  0.00    +0.000 C 
BRANCH  15  16
ATOM     16  N   UNL     1       2.419   3.471  18.497  0.00  0.00    +0.000 N 
ATOM     17  C   UNL     1       3.179   2.665  17.440  0.00  0.00    +0.000 C 
ATOM     18  C   UNL     1       1.120   2.742  18.837  0.00  0.00    +0.000 C 
ATOM     19  C   UNL     1       0.745   3.260  20.205  0.00  0.00    +0.000 C 
ATOM     20  C   UNL     1       2.067   3.374  20.932  0.00  0.00    +0.000 C 
ATOM     21  C   UNL     1       3.143   3.647  19.871  0.00  0.00    +0.000 C 
ATOM     22  C   UNL     1       4.346   2.732  20.050  0.00  0.00    +0.000 C 
ENDBRANCH  15  16
ENDBRANCH  13  15
ENDBRANCH  10  13
ENDBRANCH   4   7
BRANCH   1  23
ATOM     23  C   UNL     1      -2.384  13.183  23.050  0.00  0.00    +0.000 C 
ATOM     24  O   UNL     1      -1.858  14.211  23.470  0.00  0.00    +0.000 OA
BRANCH  23  25
ATOM     25  C   UNL     1      -3.876  12.896  23.179  0.00  0.00    +0.000 C 
BRANCH  25  31
ATOM     26  C   UNL     1      -6.745  12.624  23.631  0.00  0.00    +0.000 C 
ATOM     27  C   UNL     1      -6.281  13.275  22.335  0.00  0.00    +0.000 C 
ATOM     28  C   UNL     1      -6.271  12.299  21.171  0.00  0.00    +0.000 C 
ATOM     29  C   UNL     1      -5.418  12.981  20.127  0.00  0.00    +0.000 C 
ATOM     30  C   UNL     1      -4.401  13.828  20.879  0.00  0.00    +0.000 C 
ATOM     31  N   UNL     1      -4.832  13.810  22.369  0.00  0.00    +0.000 N 
ATOM     32  C   UNL     1      -4.788  15.221  22.953  0.00  0.00    +0.000 C 
ENDBRANCH  25  31
ENDBRANCH  23  25
ENDBRANCH   1  23
TORSDOF 7
ENDMDL
MODEL 7
REMARK VINA RESULT:      -8.5      2.261      3.274
REMARK  Name = 
REMARK  11 active torsions:
REMARK  status: ('A' for Active; 'I' for Inactive)
REMARK    1  A    between atoms: C_1  and  C_2
REMARK    2  A    between atoms: N_6  and  C_7
REMARK    3  A    between atoms: N_6  and  C_8
REMARK    4  A    between atoms: C_8  and  C_9
REMARK    5  A    between atoms: C_9  and  C_11
REMARK    6  A    between atoms: C_14  and  C_15
REMARK    7  A    between atoms: C_18  and  C_19
REMARK    8  A    between atoms: C_19  and  C_21
REMARK    9  A    between atoms: C_21  and  N_22
REMARK   10  A    between atoms: N_22  and  C_23
REMARK   11  A    between atoms: C_27  and  C_28
REMARK                            x       y       z     vdW  Elec       q    Type
REMARK                         _______ _______ _______ _____ _____    ______ ____
ROOT
ATOM      1  C   UNL     1       2.331   7.766  18.831  0.00  0.00    +0.000 A 
ATOM      2  C   UNL     1       1.855   8.627  17.839  0.00  0.00    +0.000 A 
ATOM      3  C   UNL     1       0.921   9.603  18.162  0.00  0.00    +0.000 A 
ATOM      4  C   UNL     1       0.404   9.723  19.462  0.00  0.00    +0.000 A 
ATOM      5  C   UNL     1       0.883   8.837  20.442  0.00  0.00    +0.000 A 
ATOM      6  C   UNL     1       1.845   7.874  20.135  0.00  0.00    +0.000 A 
ENDROOT
BRANCH   4   7
ATOM      7  C   UNL     1      -0.634  10.724  19.762  0.00  0.00    +0.000 A 
ATOM      8  C   UNL     1      -1.580  11.074  18.786  0.00  0.00    +0.000 A 
ATOM      9  C   UNL     1      -2.590  11.991  19.059  0.00  0.00    +0.000 A 
ATOM     10  C   UNL     1      -2.695  12.553  20.333  0.00  0.00    +0.000 A 
ATOM     11  C   UNL     1      -1.754  12.243  21.313  0.00  0.00    +0.000 A 
ATOM     12  C   UNL     1      -0.723  11.340  21.018  0.00  0.00    +0.000 A 
BRANCH  10  13
ATOM     13  C   UNL     1      -3.864  13.427  20.580  0.00  0.00    +0.000 C 
ATOM     14  O   UNL     1      -4.936  13.153  20.044  0.00  0.00    +0.000 OA
BRANCH  13  15
ATOM     15  C   UNL     1      -3.715  14.607  21.539  0.00  0.00    +0.000 C 
BRANCH  15  16
ATOM     16  N   UNL     1      -4.678  14.551  22.777  0.00  0.00    +0.000 N 
ATOM     17  C   UNL     1      -5.909  15.403  22.459  0.00  0.00    +0.000 C 
ATOM     18  C   UNL     1      -3.984  15.122  24.013  0.00  0.00    +0.000 C 
ATOM     19  C   UNL     1      -3.180  13.968  24.561  0.00  0.00    +0.000 C 
ATOM     20  C   UNL     1      -4.079  12.765  24.364  0.00  0.00    +0.000 C 
ATOM     21  C   UNL     1      -4.957  13.056  23.138  0.00  0.00    +0.000 C 
ATOM     22  C   UNL     1      -6.423  12.760  23.422  0.00  0.00    +0.000 C 
ENDBRANCH  15  16
ENDBRANCH  13  15
ENDBRANCH  10  13
ENDBRANCH   4   7
BRANCH   1  23
ATOM     23  C   UNL     1       3.358   6.742  18.534  0.00  0.00    +0.000 C 
ATOM     24  O   UNL     1       4.075   6.863  17.543  0.00  0.00    +0.000 OA
BRANCH  23  25
ATOM     25  C   UNL     1       3.461   5.565  19.498  0.00  0.00    +0.000 C 
BRANCH  25  31
ATOM     26  C   UNL     1       1.102   4.241  20.591  0.00  0.00    +0.000 C 
ATOM     27  C   UNL     1       2.140   3.385  19.875  0.00  0.00    +0.000 C 
ATOM     28  C   UNL     1       3.092   2.705  20.843  0.00  0.00    +0.000 C 
ATOM     29  C   UNL     1       4.250   2.271  19.974  0.00  0.00    +0.000 C 
ATOM     30  C   UNL     1       4.347   3.281  18.840  0.00  0.00    +0.000 C 
ATOM     31  N   UNL     1       3.080   4.171  18.935  0.00  0.00    +0.000 N 
ATOM     32  C   UNL     1       2.447   4.345  17.555  0.00  0.00    +0.000 C 
ENDBRANCH  25  31
ENDBRANCH  23  25
ENDBRANCH   1  23
TORSDOF 7
ENDMDL
MODEL 8
REMARK VINA RESULT:      -8.5      2.394     11.106
REMARK  Name = 
REMARK  11 active torsions:
REMARK  status: ('A' for Active; 'I' for Inactive)
REMARK    1  A    between atoms: C_1  and  C_2
REMARK    2  A    between atoms: N_6  and  C_7
REMARK    3  A    between atoms: N_6  and  C_8
REMARK    4  A    between atoms: C_8  and  C_9
REMARK    5  A    between atoms: C_9  and  C_11
REMARK    6  A    between atoms: C_14  and  C_15
REMARK    7  A    between atoms: C_18  and  C_19
REMARK    8  A    between atoms: C_19  and  C_21
REMARK    9  A    between atoms: C_21  and  N_22
REMARK   10  A    between atoms: N_22  and  C_23
REMARK   11  A    between atoms: C_27  and  C_28
REMARK                            x       y       z     vdW  Elec       q    Type
REMARK                         _______ _______ _______ _____ _____    ______ ____
ROOT
ATOM      1  C   UNL     1      -2.344  12.354  20.390  0.00  0.00    +0.000 A 
ATOM      2  C   UNL     1      -1.519  11.799  21.370  0.00  0.00    +0.000 A 
ATOM      3  C   UNL     1      -0.509  10.918  21.006  0.00  0.00    +0.000 A 
ATOM      4  C   UNL     1      -0.318  10.534  19.668  0.00  0.00    +0.000 A 
ATOM      5  C   UNL     1      -1.169  11.091  18.698  0.00  0.00    +0.000 A 
ATOM      6  C   UNL     1      -2.166  12.002  19.051  0.00  0.00    +0.000 A 
ENDROOT
BRANCH   4   7
ATOM      7  C   UNL     1       0.718   9.548  19.317  0.00  0.00    +0.000 A 
ATOM      8  C   UNL     1       1.145   8.604  20.264  0.00  0.00    +0.000 A 
ATOM      9  C   UNL     1       2.097   7.642  19.943  0.00  0.00    +0.000 A 
ATOM     10  C   UNL     1       2.618   7.583  18.649  0.00  0.00    +0.000 A 
ATOM     11  C   UNL     1       2.232   8.524  17.696  0.00  0.00    +0.000 A 
ATOM     12  C   UNL     1       1.293   9.508  18.039  0.00  0.00    +0.000 A 
BRANCH  10  13
ATOM     13  C   UNL     1       3.536   6.459  18.352  0.00  0.00    +0.000 C 
ATOM     14  O   UNL     1       4.266   6.532  17.365  0.00  0.00    +0.000 OA
BRANCH  13  15
ATOM     15  C   UNL     1       3.589   5.274  19.314  0.00  0.00    +0.000 C 
BRANCH  15  16
ATOM     16  N   UNL     1       2.803   4.011  18.816  0.00  0.00    +0.000 N 
ATOM     17  C   UNL     1       3.000   3.895  17.302  0.00  0.00    +0.000 C 
ATOM     18  C   UNL     1       1.311   4.165  19.112  0.00  0.00    +0.000 C 
ATOM     19  C   UNL     1       1.163   3.716  20.546  0.00  0.00    +0.000 C 
ATOM     20  C   UNL     1       2.107   2.538  20.664  0.00  0.00    +0.000 C 
ATOM     21  C   UNL     1       3.245   2.771  19.659  0.00  0.00    +0.000 C 
ATOM     22  C   UNL     1       3.510   1.528  18.822  0.00  0.00    +0.000 C 
ENDBRANCH  15  16
ENDBRANCH  13  15
ENDBRANCH  10  13
ENDBRANCH   4   7
BRANCH   1  23
ATOM     23  C   UNL     1      -3.404  13.330  20.737  0.00  0.00    +0.000 C 
ATOM     24  O   UNL     1      -3.166  14.535  20.690  0.00  0.00    +0.000 OA
BRANCH  23  25
ATOM     25  C   UNL     1      -4.758  12.763  21.148  0.00  0.00    +0.000 C 
BRANCH  25  31
ATOM     26  C   UNL     1      -7.455  12.133  22.065  0.00  0.00    +0.000 C 
ATOM     27  C   UNL     1      -7.206  12.212  20.564  0.00  0.00    +0.000 C 
ATOM     28  C   UNL     1      -6.992  10.843  19.943  0.00  0.00    +0.000 C 
ATOM     29  C   UNL     1      -6.366  11.144  18.600  0.00  0.00    +0.000 C 
ATOM     30  C   UNL     1      -5.568  12.429  18.768  0.00  0.00    +0.000 C 
ATOM     31  N   UNL     1      -5.935  12.993  20.165  0.00  0.00    +0.000 N 
ATOM     32  C   UNL     1      -6.224  14.491  20.074  0.00  0.00    +0.000 C 
ENDBRANCH  25  31
ENDBRANCH  23  25
ENDBRANCH   1  23
TORSDOF 7
ENDMDL
MODEL 9
REMARK VINA RESULT:      -8.5      2.413      3.714
REMARK  Name = 
REMARK  11 active torsions:
REMARK  status: ('A' for Active; 'I' for Inactive)
REMARK    1  A    between atoms: C_1  and  C_2
REMARK    2  A    between atoms: N_6  and  C_7
REMARK    3  A    between atoms: N_6  and  C_8
REMARK    4  A    between atoms: C_8  and  C_9
REMARK    5  A    between atoms: C_9  and  C_11
REMARK    6  A    between atoms: C_14  and  C_15
REMARK    7  A    between atoms: C_18  and  C_19
REMARK    8  A    between atoms: C_19  and  C_21
REMARK    9  A    between atoms: C_21  and  N_22
REMARK   10  A    between atoms: N_22  and  C_23
REMARK   11  A    between atoms: C_27  and  C_28
REMARK                            x       y       z     vdW  Elec       q    Type
REMARK                         _______ _______ _______ _____ _____    ______ ____
ROOT
ATOM      1  C   UNL     1       2.345   7.759  18.801  0.00  0.00    +0.000 A 
ATOM      2  C   UNL     1       1.863   8.655  17.845  0.00  0.00    +0.000 A 
ATOM      3  C   UNL     1       0.931   9.619  18.209  0.00  0.00    +0.000 A 
ATOM      4  C   UNL     1       0.423   9.691  19.516  0.00  0.00    +0.000 A 
ATOM      5  C   UNL     1       0.908   8.770  20.460  0.00  0.00    +0.000 A 
ATOM      6  C   UNL     1       1.868   7.819  20.112  0.00  0.00    +0.000 A 
ENDROOT
BRANCH   4   7
ATOM      7  C   UNL     1      -0.614  10.680  19.859  0.00  0.00    +0.000 A 
ATOM      8  C   UNL     1      -1.622  10.996  18.935  0.00  0.00    +0.000 A 
ATOM      9  C   UNL     1      -2.630  11.901  19.251  0.00  0.00    +0.000 A 
ATOM     10  C   UNL     1      -2.669  12.486  20.518  0.00  0.00    +0.000 A 
ATOM     11  C   UNL     1      -1.665  12.211  21.446  0.00  0.00    +0.000 A 
ATOM     12  C   UNL     1      -0.638  11.319  21.107  0.00  0.00    +0.000 A 
BRANCH  10  13
ATOM     13  C   UNL     1      -3.837  13.345  20.819  0.00  0.00    +0.000 C 
ATOM     14  O   UNL     1      -3.770  14.547  20.569  0.00  0.00    +0.000 OA
BRANCH  13  15
ATOM     15  C   UNL     1      -5.105  12.700  21.373  0.00  0.00    +0.000 C 
BRANCH  15  16
ATOM     16  N   UNL     1      -6.381  12.934  20.489  0.00  0.00    +0.000 N 
ATOM     17  C   UNL     1      -6.911  14.340  20.784  0.00  0.00    +0.000 C 
ATOM     18  C   UNL     1      -7.462  11.912  20.839  0.00  0.00    +0.000 C 
ATOM     19  C   UNL     1      -7.100  10.690  20.030  0.00  0.00    +0.000 C 
ATOM     20  C   UNL     1      -6.620  11.251  18.708  0.00  0.00    +0.000 C 
ATOM     21  C   UNL     1      -6.027  12.637  18.996  0.00  0.00    +0.000 C 
ATOM     22  C   UNL     1      -6.557  13.682  18.024  0.00  0.00    +0.000 C 
ENDBRANCH  15  16
ENDBRANCH  13  15
ENDBRANCH  10  13
ENDBRANCH   4   7
BRANCH   1  23
ATOM     23  C   UNL     1       3.370   6.746  18.460  0.00  0.00    +0.000 C 
ATOM     24  O   UNL     1       4.038   6.871  17.435  0.00  0.00    +0.000 OA
BRANCH  23  25
ATOM     25  C   UNL     1       3.534   5.575  19.424  0.00  0.00    +0.000 C 
BRANCH  25  31
ATOM     26  C   UNL     1       1.164   4.321  20.573  0.00  0.00    +0.000 C 
ATOM     27  C   UNL     1       2.176   3.431  19.863  0.00  0.00    +0.000 C 
ATOM     28  C   UNL     1       3.127   2.752  20.833  0.00  0.00    +0.000 C 
ATOM     29  C   UNL     1       4.265   2.278  19.960  0.00  0.00    +0.000 C 
ATOM     30  C   UNL     1       4.368   3.262  18.804  0.00  0.00    +0.000 C 
ATOM     31  N   UNL     1       3.120   4.178  18.895  0.00  0.00    +0.000 N 
ATOM     32  C   UNL     1       2.473   4.335  17.519  0.00  0.00    +0.000 C 
ENDBRANCH  25  31
ENDBRANCH  23  25
ENDBRANCH   1  23
TORSDOF 7
ENDMDL
