MODEL 1
REMARK VINA RESULT:      -8.7      0.000      0.000
REMARK  Name = 
REMARK  7 active torsions:
REMARK  status: ('A' for Active; 'I' for Inactive)
REMARK    1  A    between atoms: C_1  and  C_2
REMARK    2  A    between atoms: C_2  and  N_3
REMARK    3  A    between atoms: C_2  and  C_16
REMARK    4  A    between atoms: C_4  and  C_6
REMARK    5  A    between atoms: C_6  and  C_8
REMARK    6  A    between atoms: N_18  and  C_19
REMARK    7  A    between atoms: N_22  and  C_23
REMARK                            x       y       z     vdW  Elec       q    Type
REMARK                         _______ _______ _______ _____ _____    ______ ____
ROOT
ATOM      1  C   UNL     1       1.626   8.211  18.802  0.00  0.00    +0.000 C 
ATOM      2  O   UNL     1       1.297   8.576  17.678  0.00  0.00    +0.000 OA
ATOM      3  N   UNL     1       2.264   7.016  19.048  0.00  0.00    +0.000 N 
ATOM      4  H   UNL     1       2.735   6.918  19.946  0.00  0.00    +0.000 HD
ENDROOT
BRANCH   3   5
ATOM      5  C   UNL     1       2.641   6.050  17.993  0.00  0.00    +0.000 C 
ATOM      6  C   UNL     1       4.124   6.385  17.744  0.00  0.00    +0.000 C 
ATOM      7  O   UNL     1       4.498   7.554  17.598  0.00  0.00    +0.000 OA
ATOM      8  N   UNL     1       5.025   5.327  17.876  0.00  0.00    +0.000 N 
ATOM      9  C   UNL     1       6.380   5.683  18.269  0.00  0.00    +0.000 C 
ATOM     10  N   UNL     1       4.980   4.370  16.887  0.00  0.00    +0.000 NA
ATOM     11  C   UNL     1       3.981   3.548  16.901  0.00  0.00    +0.000 C 
ATOM     12  C   UNL     1       2.915   3.489  17.907  0.00  0.00    +0.000 A 
ATOM     13  C   UNL     1       2.562   2.196  18.325  0.00  0.00    +0.000 A 
ATOM     14  C   UNL     1       1.581   2.023  19.296  0.00  0.00    +0.000 A 
ATOM     15  C   UNL     1       0.922   3.132  19.810  0.00  0.00    +0.000 A 
ATOM     16  C   UNL     1       1.264   4.414  19.373  0.00  0.00    +0.000 A 
ATOM     17  C   UNL     1       2.304   4.633  18.443  0.00  0.00    +0.000 A 
ENDBRANCH   3   5
BRANCH   1  19
ATOM     18  C   UNL     1       1.587   8.237  21.328  0.00  0.00    +0.000 C 
ATOM     19  C   UNL     1       1.418   9.074  20.068  0.00  0.00    +0.000 C 
BRANCH  19  20
ATOM     20  N   UNL     1       0.091   9.675  20.037  0.00  0.00    +0.000 N 
ATOM     21  C   UNL     1      -0.109  10.916  19.492  0.00  0.00    +0.000 C 
ATOM     22  O   UNL     1       0.767  11.625  19.014  0.00  0.00    +0.000 OA
ATOM     23  H   UNL     1      -0.712   9.117  20.312  0.00  0.00    +0.000 HD
BRANCH  21  24
ATOM     24  C   UNL     1      -1.565  11.373  19.474  0.00  0.00    +0.000 C 
ATOM     25  O   UNL     1      -2.054  11.905  20.457  0.00  0.00    +0.000 OA
BRANCH  24  26
ATOM     26  C   UNL     1      -2.340  11.139  18.240  0.00  0.00    +0.000 A 
ATOM     27  C   UNL     1      -3.570  11.783  18.048  0.00  0.00    +0.000 A 
ATOM     28  C   UNL     1      -4.313  11.510  16.903  0.00  0.00    +0.000 A 
ATOM     29  F   UNL     1      -5.492  12.115  16.723  0.00  0.00    +0.000 F 
ATOM     30  C   UNL     1      -3.850  10.619  15.943  0.00  0.00    +0.000 A 
ATOM     31  C   UNL     1      -2.610  10.023  16.128  0.00  0.00    +0.000 A 
ATOM     32  F   UNL     1      -2.150   9.172  15.204  0.00  0.00    +0.000 F 
ATOM     33  C   UNL     1      -1.840  10.282  17.257  0.00  0.00    +0.000 A 
ENDBRANCH  24  26
ENDBRANCH  21  24
ENDBRANCH  19  20
ENDBRANCH   1  19
TORSDOF 5
ENDMDL
MODEL 2
REMARK VINA RESULT:      -8.5      1.009      1.752
REMARK  Name = 
REMARK  7 active torsions:
REMARK  status: ('A' for Active; 'I' for Inactive)
REMARK    1  A    between atoms: C_1  and  C_2
REMARK    2  A    between atoms: C_2  and  N_3
REMARK    3  A    between atoms: C_2  and  C_16
REMARK    4  A    between atoms: C_4  and  C_6
REMARK    5  A    between atoms: C_6  and  C_8
REMARK    6  A    between atoms: N_18  and  C_19
REMARK    7  A    between atoms: N_22  and  C_23
REMARK                            x       y       z     vdW  Elec       q    Type
REMARK                         _______ _______ _______ _____ _____    ______ ____
ROOT
ATOM      1  C   UNL     1       1.691   8.312  18.734  0.00  0.00    +0.000 C 
ATOM      2  O   UNL     1       1.321   8.515  17.582  0.00  0.00    +0.000 OA
ATOM      3  N   UNL     1       2.332   7.159  19.125  0.00  0.00    +0.000 N 
ATOM      4  H   UNL     1       2.837   7.186  20.010  0.00  0.00    +0.000 HD
ENDROOT
BRANCH   3   5
ATOM      5  C   UNL     1       2.664   6.047  18.208  0.00  0.00    +0.000 C 
ATOM      6  C   UNL     1       4.140   6.324  17.863  0.00  0.00    +0.000 C 
ATOM      7  O   UNL     1       4.518   7.455  17.539  0.00  0.00    +0.000 OA
ATOM      8  N   UNL     1       5.037   5.284  18.114  0.00  0.00    +0.000 N 
ATOM      9  C   UNL     1       6.407   5.674  18.406  0.00  0.00    +0.000 C 
ATOM     10  N   UNL     1       4.949   4.197  17.273  0.00  0.00    +0.000 NA
ATOM     11  C   UNL     1       3.945   3.398  17.439  0.00  0.00    +0.000 C 
ATOM     12  C   UNL     1       2.914   3.497  18.479  0.00  0.00    +0.000 A 
ATOM     13  C   UNL     1       2.566   2.281  19.088  0.00  0.00    +0.000 A 
ATOM     14  C   UNL     1       1.618   2.261  20.107  0.00  0.00    +0.000 A 
ATOM     15  C   UNL     1       0.987   3.440  20.479  0.00  0.00    +0.000 A 
ATOM     16  C   UNL     1       1.323   4.643  19.852  0.00  0.00    +0.000 A 
ATOM     17  C   UNL     1       2.332   4.713  18.867  0.00  0.00    +0.000 A 
ENDBRANCH   3   5
BRANCH   1  19
ATOM     18  C   UNL     1       1.196   8.666  21.186  0.00  0.00    +0.000 C 
ATOM     19  C   UNL     1       1.536   9.350  19.870  0.00  0.00    +0.000 C 
BRANCH  19  20
ATOM     20  N   UNL     1       0.496  10.308  19.518  0.00  0.00    +0.000 N 
ATOM     21  C   UNL     1       0.813  11.520  18.960  0.00  0.00    +0.000 C 
ATOM     22  O   UNL     1       1.949  11.913  18.730  0.00  0.00    +0.000 OA
ATOM     23  H   UNL     1      -0.477  10.025  19.573  0.00  0.00    +0.000 HD
BRANCH  21  24
ATOM     24  C   UNL     1      -0.391  12.378  18.586  0.00  0.00    +0.000 C 
ATOM     25  O   UNL     1      -0.308  13.595  18.606  0.00  0.00    +0.000 OA
BRANCH  24  26
ATOM     26  C   UNL     1      -1.637  11.683  18.211  0.00  0.00    +0.000 A 
ATOM     27  C   UNL     1      -1.641  10.761  17.156  0.00  0.00    +0.000 A 
ATOM     28  C   UNL     1      -2.837  10.155  16.781  0.00  0.00    +0.000 A 
ATOM     29  F   UNL     1      -2.844   9.282  15.767  0.00  0.00    +0.000 F 
ATOM     30  C   UNL     1      -4.024  10.441  17.443  0.00  0.00    +0.000 A 
ATOM     31  C   UNL     1      -3.995  11.324  18.514  0.00  0.00    +0.000 A 
ATOM     32  F   UNL     1      -5.132  11.597  19.165  0.00  0.00    +0.000 F 
ATOM     33  C   UNL     1      -2.815  11.939  18.918  0.00  0.00    +0.000 A 
ENDBRANCH  24  26
ENDBRANCH  21  24
ENDBRANCH  19  20
ENDBRANCH   1  19
TORSDOF 5
ENDMDL
MODEL 3
REMARK VINA RESULT:      -8.3      2.215      2.870
REMARK  Name = 
REMARK  7 active torsions:
REMARK  status: ('A' for Active; 'I' for Inactive)
REMARK    1  A    between atoms: C_1  and  C_2
REMARK    2  A    between atoms: C_2  and  N_3
REMARK    3  A    between atoms: C_2  and  C_16
REMARK    4  A    between atoms: C_4  and  C_6
REMARK    5  A    between atoms: C_6  and  C_8
REMARK    6  A    between atoms: N_18  and  C_19
REMARK    7  A    between atoms: N_22  and  C_23
REMARK                            x       y       z     vdW  Elec       q    Type
REMARK                         _______ _______ _______ _____ _____    ______ ____
ROOT
ATOM      1  C   UNL     1       1.853   8.143  18.762  0.00  0.00    +0.000 C 
ATOM      2  O   UNL     1       1.599   8.516  17.622  0.00  0.00    +0.000 OA
ATOM      3  N   UNL     1       2.469   6.944  19.042  0.00  0.00    +0.000 N 
ATOM      4  H   UNL     1       2.881   6.838  19.968  0.00  0.00    +0.000 HD
ENDROOT
BRANCH   3   5
ATOM      5  C   UNL     1       2.909   5.982  18.008  0.00  0.00    +0.000 C 
ATOM      6  C   UNL     1       4.415   6.284  17.886  0.00  0.00    +0.000 C 
ATOM      7  O   UNL     1       4.827   7.445  17.788  0.00  0.00    +0.000 OA
ATOM      8  N   UNL     1       5.277   5.203  18.076  0.00  0.00    +0.000 N 
ATOM      9  C   UNL     1       6.603   5.520  18.584  0.00  0.00    +0.000 C 
ATOM     10  N   UNL     1       5.292   4.260  17.072  0.00  0.00    +0.000 NA
ATOM     11  C   UNL     1       4.276   3.462  16.993  0.00  0.00    +0.000 C 
ATOM     12  C   UNL     1       3.130   3.417  17.907  0.00  0.00    +0.000 A 
ATOM     13  C   UNL     1       2.714   2.128  18.275  0.00  0.00    +0.000 A 
ATOM     14  C   UNL     1       1.652   1.966  19.160  0.00  0.00    +0.000 A 
ATOM     15  C   UNL     1       0.979   3.084  19.633  0.00  0.00    +0.000 A 
ATOM     16  C   UNL     1       1.385   4.363  19.245  0.00  0.00    +0.000 A 
ATOM     17  C   UNL     1       2.503   4.568  18.408  0.00  0.00    +0.000 A 
ENDBRANCH   3   5
BRANCH   1  19
ATOM     18  C   UNL     1       1.040   8.135  21.155  0.00  0.00    +0.000 C 
ATOM     19  C   UNL     1       1.567   8.999  20.018  0.00  0.00    +0.000 C 
BRANCH  19  20
ATOM     20  N   UNL     1       0.603  10.041  19.690  0.00  0.00    +0.000 N 
ATOM     21  C   UNL     1       0.642  11.261  20.316  0.00  0.00    +0.000 C 
ATOM     22  O   UNL     1       1.440  11.580  21.187  0.00  0.00    +0.000 OA
ATOM     23  H   UNL     1      -0.025   9.905  18.905  0.00  0.00    +0.000 HD
BRANCH  21  24
ATOM     24  C   UNL     1      -0.389  12.265  19.810  0.00  0.00    +0.000 C 
ATOM     25  O   UNL     1      -0.147  12.954  18.833  0.00  0.00    +0.000 OA
BRANCH  24  26
ATOM     26  C   UNL     1      -1.664  12.366  20.546  0.00  0.00    +0.000 A 
ATOM     27  C   UNL     1      -2.843  12.708  19.870  0.00  0.00    +0.000 A 
ATOM     28  C   UNL     1      -4.026  12.851  20.589  0.00  0.00    +0.000 A 
ATOM     29  F   UNL     1      -5.151  13.188  19.948  0.00  0.00    +0.000 F 
ATOM     30  C   UNL     1      -4.059  12.650  21.963  0.00  0.00    +0.000 A 
ATOM     31  C   UNL     1      -2.891  12.270  22.611  0.00  0.00    +0.000 A 
ATOM     32  F   UNL     1      -2.916  12.063  23.932  0.00  0.00    +0.000 F 
ATOM     33  C   UNL     1      -1.695  12.109  21.918  0.00  0.00    +0.000 A 
ENDBRANCH  24  26
ENDBRANCH  21  24
ENDBRANCH  19  20
ENDBRANCH   1  19
TORSDOF 5
ENDMDL
MODEL 4
REMARK VINA RESULT:      -8.2      3.031      8.453
REMARK  Name = 
REMARK  7 active torsions:
REMARK  status: ('A' for Active; 'I' for Inactive)
REMARK    1  A    between atoms: C_1  and  C_2
REMARK    2  A    between atoms: C_2  and  N_3
REMARK    3  A    between atoms: C_2  and  C_16
REMARK    4  A    between atoms: C_4  and  C_6
REMARK    5  A    between atoms: C_6  and  C_8
REMARK    6  A    between atoms: N_18  and  C_19
REMARK    7  A    between atoms: N_22  and  C_23
REMARK                            x       y       z     vdW  Elec       q    Type
REMARK                         _______ _______ _______ _____ _____    ______ ____
ROOT
ATOM      1  C   UNL     1       1.325   8.854  19.463  0.00  0.00    +0.000 C 
ATOM      2  O   UNL     1       1.043   8.234  20.483  0.00  0.00    +0.000 OA
ATOM      3  N   UNL     1       0.603   9.938  19.017  0.00  0.00    +0.000 N 
ATOM      4  H   UNL     1       1.052  10.547  18.335  0.00  0.00    +0.000 HD
ENDROOT
BRANCH   3   5
ATOM      5  C   UNL     1      -0.577  10.488  19.720  0.00  0.00    +0.000 C 
ATOM      6  C   UNL     1      -0.001  11.733  20.421  0.00  0.00    +0.000 C 
ATOM      7  O   UNL     1       1.058  11.675  21.056  0.00  0.00    +0.000 OA
ATOM      8  N   UNL     1      -0.636  12.945  20.145  0.00  0.00    +0.000 N 
ATOM      9  C   UNL     1       0.189  14.139  20.242  0.00  0.00    +0.000 C 
ATOM     10  N   UNL     1      -1.890  13.105  20.691  0.00  0.00    +0.000 NA
ATOM     11  C   UNL     1      -2.863  12.448  20.146  0.00  0.00    +0.000 C 
ATOM     12  C   UNL     1      -2.778  11.591  18.959  0.00  0.00    +0.000 A 
ATOM     13  C   UNL     1      -3.828  11.742  18.040  0.00  0.00    +0.000 A 
ATOM     14  C   UNL     1      -3.836  10.998  16.864  0.00  0.00    +0.000 A 
ATOM     15  C   UNL     1      -2.827  10.073  16.633  0.00  0.00    +0.000 A 
ATOM     16  C   UNL     1      -1.798   9.911  17.563  0.00  0.00    +0.000 A 
ATOM     17  C   UNL     1      -1.718  10.700  18.731  0.00  0.00    +0.000 A 
ENDBRANCH   3   5
BRANCH   1  19
ATOM     18  C   UNL     1       2.539   9.343  17.302  0.00  0.00    +0.000 C 
ATOM     19  C   UNL     1       2.559   8.531  18.588  0.00  0.00    +0.000 C 
BRANCH  19  20
ATOM     20  N   UNL     1       2.583   7.106  18.284  0.00  0.00    +0.000 N 
ATOM     21  C   UNL     1       3.743   6.487  17.898  0.00  0.00    +0.000 C 
ATOM     22  O   UNL     1       4.825   7.042  17.756  0.00  0.00    +0.000 OA
ATOM     23  H   UNL     1       1.760   6.545  18.478  0.00  0.00    +0.000 HD
BRANCH  21  24
ATOM     24  C   UNL     1       3.616   4.982  17.684  0.00  0.00    +0.000 C 
ATOM     25  O   UNL     1       4.191   4.443  16.753  0.00  0.00    +0.000 OA
BRANCH  24  26
ATOM     26  C   UNL     1       2.778   4.224  18.633  0.00  0.00    +0.000 A 
ATOM     27  C   UNL     1       1.760   3.384  18.161  0.00  0.00    +0.000 A 
ATOM     28  C   UNL     1       0.945   2.719  19.072  0.00  0.00    +0.000 A 
ATOM     29  F   UNL     1      -0.034   1.925  18.623  0.00  0.00    +0.000 F 
ATOM     30  C   UNL     1       1.131   2.865  20.441  0.00  0.00    +0.000 A 
ATOM     31  C   UNL     1       2.171   3.666  20.892  0.00  0.00    +0.000 A 
ATOM     32  F   UNL     1       2.365   3.804  22.208  0.00  0.00    +0.000 F 
ATOM     33  C   UNL     1       3.009   4.337  20.006  0.00  0.00    +0.000 A 
ENDBRANCH  24  26
ENDBRANCH  21  24
ENDBRANCH  19  20
ENDBRANCH   1  19
TORSDOF 5
ENDMDL
MODEL 5
REMARK VINA RESULT:      -8.2      1.273      2.097
REMARK  Name = 
REMARK  7 active torsions:
REMARK  status: ('A' for Active; 'I' for Inactive)
REMARK    1  A    between atoms: C_1  and  C_2
REMARK    2  A    between atoms: C_2  and  N_3
REMARK    3  A    between atoms: C_2  and  C_16
REMARK    4  A    between atoms: C_4  and  C_6
REMARK    5  A    between atoms: C_6  and  C_8
REMARK    6  A    between atoms: N_18  and  C_19
REMARK    7  A    between atoms: N_22  and  C_23
REMARK                            x       y       z     vdW  Elec       q    Type
REMARK                         _______ _______ _______ _____ _____    ______ ____
ROOT
ATOM      1  C   UNL     1       1.839   8.192  18.650  0.00  0.00    +0.000 C 
ATOM      2  O   UNL     1       1.562   8.487  17.492  0.00  0.00    +0.000 OA
ATOM      3  N   UNL     1       2.468   7.018  18.997  0.00  0.00    +0.000 N 
ATOM      4  H   UNL     1       2.897   6.976  19.921  0.00  0.00    +0.000 HD
ENDROOT
BRANCH   3   5
ATOM      5  C   UNL     1       2.897   5.992  18.021  0.00  0.00    +0.000 C 
ATOM      6  C   UNL     1       4.404   6.279  17.872  0.00  0.00    +0.000 C 
ATOM      7  O   UNL     1       4.820   7.429  17.700  0.00  0.00    +0.000 OA
ATOM      8  N   UNL     1       5.262   5.207  18.122  0.00  0.00    +0.000 N 
ATOM      9  C   UNL     1       6.593   5.548  18.602  0.00  0.00    +0.000 C 
ATOM     10  N   UNL     1       5.266   4.204  17.178  0.00  0.00    +0.000 NA
ATOM     11  C   UNL     1       4.246   3.408  17.155  0.00  0.00    +0.000 C 
ATOM     12  C   UNL     1       3.106   3.424  18.077  0.00  0.00    +0.000 A 
ATOM     13  C   UNL     1       2.686   2.162  18.526  0.00  0.00    +0.000 A 
ATOM     14  C   UNL     1       1.630   2.061  19.426  0.00  0.00    +0.000 A 
ATOM     15  C   UNL     1       0.965   3.209  19.835  0.00  0.00    +0.000 A 
ATOM     16  C   UNL     1       1.374   4.460  19.366  0.00  0.00    +0.000 A 
ATOM     17  C   UNL     1       2.487   4.607  18.510  0.00  0.00    +0.000 A 
ENDBRANCH   3   5
BRANCH   1  19
ATOM     18  C   UNL     1       0.855   8.383  20.969  0.00  0.00    +0.000 C 
ATOM     19  C   UNL     1       1.569   9.128  19.851  0.00  0.00    +0.000 C 
BRANCH  19  20
ATOM     20  N   UNL     1       0.771  10.265  19.414  0.00  0.00    +0.000 N 
ATOM     21  C   UNL     1       0.745  11.429  20.139  0.00  0.00    +0.000 C 
ATOM     22  O   UNL     1       1.345  11.619  21.188  0.00  0.00    +0.000 OA
ATOM     23  H   UNL     1       0.327  10.238  18.502  0.00  0.00    +0.000 HD
BRANCH  21  24
ATOM     24  C   UNL     1      -0.083  12.547  19.512  0.00  0.00    +0.000 C 
ATOM     25  O   UNL     1       0.444  13.606  19.212  0.00  0.00    +0.000 OA
BRANCH  24  26
ATOM     26  C   UNL     1      -1.520  12.295  19.294  0.00  0.00    +0.000 A 
ATOM     27  C   UNL     1      -1.967  11.767  18.075  0.00  0.00    +0.000 A 
ATOM     28  C   UNL     1      -3.332  11.586  17.868  0.00  0.00    +0.000 A 
ATOM     29  F   UNL     1      -3.761  11.092  16.701  0.00  0.00    +0.000 F 
ATOM     30  C   UNL     1      -4.256  11.911  18.853  0.00  0.00    +0.000 A 
ATOM     31  C   UNL     1      -3.794  12.393  20.070  0.00  0.00    +0.000 A 
ATOM     32  F   UNL     1      -4.676  12.699  21.028  0.00  0.00    +0.000 F 
ATOM     33  C   UNL     1      -2.436  12.576  20.311  0.00  0.00    +0.000 A 
ENDBRANCH  24  26
ENDBRANCH  21  24
ENDBRANCH  19  20
ENDBRANCH   1  19
TORSDOF 5
ENDMDL
MODEL 6
REMARK VINA RESULT:      -8.2      2.160      2.915
REMARK  Name = 
REMARK  7 active torsions:
REMARK  status: ('A' for Active; 'I' for Inactive)
REMARK    1  A    between atoms: C_1  and  C_2
REMARK    2  A    between atoms: C_2  and  N_3
REMARK    3  A    between atoms: C_2  and  C_16
REMARK    4  A    between atoms: C_4  and  C_6
REMARK    5  A    between atoms: C_6  and  C_8
REMARK    6  A    between atoms: N_18  and  C_19
REMARK    7  A    between atoms: N_22  and  C_23
REMARK                            x       y       z     vdW  Elec       q    Type
REMARK                         _______ _______ _______ _____ _____    ______ ____
ROOT
ATOM      1  C   UNL     1       1.824   8.143  18.797  0.00  0.00    +0.000 C 
ATOM      2  O   UNL     1       1.570   8.524  17.659  0.00  0.00    +0.000 OA
ATOM      3  N   UNL     1       2.422   6.934  19.069  0.00  0.00    +0.000 N 
ATOM      4  H   UNL     1       2.838   6.818  19.993  0.00  0.00    +0.000 HD
ENDROOT
BRANCH   3   5
ATOM      5  C   UNL     1       2.842   5.968  18.030  0.00  0.00    +0.000 C 
ATOM      6  C   UNL     1       4.345   6.268  17.878  0.00  0.00    +0.000 C 
ATOM      7  O   UNL     1       4.756   7.428  17.769  0.00  0.00    +0.000 OA
ATOM      8  N   UNL     1       5.210   5.186  18.055  0.00  0.00    +0.000 N 
ATOM      9  C   UNL     1       6.545   5.504  18.536  0.00  0.00    +0.000 C 
ATOM     10  N   UNL     1       5.204   4.241  17.054  0.00  0.00    +0.000 NA
ATOM     11  C   UNL     1       4.186   3.444  16.996  0.00  0.00    +0.000 C 
ATOM     12  C   UNL     1       3.058   3.402  17.933  0.00  0.00    +0.000 A 
ATOM     13  C   UNL     1       2.648   2.115  18.313  0.00  0.00    +0.000 A 
ATOM     14  C   UNL     1       1.603   1.957  19.218  0.00  0.00    +0.000 A 
ATOM     15  C   UNL     1       0.941   3.077  19.702  0.00  0.00    +0.000 A 
ATOM     16  C   UNL     1       1.340   4.354  19.301  0.00  0.00    +0.000 A 
ATOM     17  C   UNL     1       2.442   4.555  18.442  0.00  0.00    +0.000 A 
ENDBRANCH   3   5
BRANCH   1  19
ATOM     18  C   UNL     1       0.975   8.151  21.177  0.00  0.00    +0.000 C 
ATOM     19  C   UNL     1       1.559   9.000  20.057  0.00  0.00    +0.000 C 
BRANCH  19  20
ATOM     20  N   UNL     1       0.650  10.089  19.725  0.00  0.00    +0.000 N 
ATOM     21  C   UNL     1       0.660  11.259  20.439  0.00  0.00    +0.000 C 
ATOM     22  O   UNL     1       1.386  11.494  21.396  0.00  0.00    +0.000 OA
ATOM     23  H   UNL     1       0.089  10.026  18.881  0.00  0.00    +0.000 HD
BRANCH  21  24
ATOM     24  C   UNL     1      -0.302  12.324  19.922  0.00  0.00    +0.000 C 
ATOM     25  O   UNL     1       0.019  13.040  18.988  0.00  0.00    +0.000 OA
BRANCH  24  26
ATOM     26  C   UNL     1      -1.610  12.449  20.593  0.00  0.00    +0.000 A 
ATOM     27  C   UNL     1      -1.695  12.389  21.991  0.00  0.00    +0.000 A 
ATOM     28  C   UNL     1      -2.942  12.455  22.604  0.00  0.00    +0.000 A 
ATOM     29  F   UNL     1      -3.025  12.387  23.937  0.00  0.00    +0.000 F 
ATOM     30  C   UNL     1      -4.104  12.591  21.854  0.00  0.00    +0.000 A 
ATOM     31  C   UNL     1      -3.999  12.693  20.473  0.00  0.00    +0.000 A 
ATOM     32  F   UNL     1      -5.111  12.835  19.743  0.00  0.00    +0.000 F 
ATOM     33  C   UNL     1      -2.766  12.639  19.832  0.00  0.00    +0.000 A 
ENDBRANCH  24  26
ENDBRANCH  21  24
ENDBRANCH  19  20
ENDBRANCH   1  19
TORSDOF 5
ENDMDL
MODEL 7
REMARK VINA RESULT:      -8.0      3.015      8.433
REMARK  Name = 
REMARK  7 active torsions:
REMARK  status: ('A' for Active; 'I' for Inactive)
REMARK    1  A    between atoms: C_1  and  C_2
REMARK    2  A    between atoms: C_2  and  N_3
REMARK    3  A    between atoms: C_2  and  C_16
REMARK    4  A    between atoms: C_4  and  C_6
REMARK    5  A    between atoms: C_6  and  C_8
REMARK    6  A    between atoms: N_18  and  C_19
REMARK    7  A    between atoms: N_22  and  C_23
REMARK                            x       y       z     vdW  Elec       q    Type
REMARK                         _______ _______ _______ _____ _____    ______ ____
ROOT
ATOM      1  C   UNL     1       1.423   8.666  19.590  0.00  0.00    +0.000 C 
ATOM      2  O   UNL     1       1.158   8.049  20.617  0.00  0.00    +0.000 OA
ATOM      3  N   UNL     1       0.705   9.761  19.164  0.00  0.00    +0.000 N 
ATOM      4  H   UNL     1       1.146  10.365  18.472  0.00  0.00    +0.000 HD
ENDROOT
BRANCH   3   5
ATOM      5  C   UNL     1      -0.449  10.327  19.897  0.00  0.00    +0.000 C 
ATOM      6  C   UNL     1       0.176  11.525  20.636  0.00  0.00    +0.000 C 
ATOM      7  O   UNL     1       1.237  11.407  21.259  0.00  0.00    +0.000 OA
ATOM      8  N   UNL     1      -0.419  12.767  20.410  0.00  0.00    +0.000 N 
ATOM      9  C   UNL     1       0.448  13.928  20.541  0.00  0.00    +0.000 C 
ATOM     10  N   UNL     1      -1.662  12.952  20.972  0.00  0.00    +0.000 NA
ATOM     11  C   UNL     1      -2.661  12.349  20.414  0.00  0.00    +0.000 C 
ATOM     12  C   UNL     1      -2.616  11.531  19.196  0.00  0.00    +0.000 A 
ATOM     13  C   UNL     1      -3.668  11.752  18.293  0.00  0.00    +0.000 A 
ATOM     14  C   UNL     1      -3.711  11.051  17.092  0.00  0.00    +0.000 A 
ATOM     15  C   UNL     1      -2.738  10.100  16.819  0.00  0.00    +0.000 A 
ATOM     16  C   UNL     1      -1.707   9.870  17.733  0.00  0.00    +0.000 A 
ATOM     17  C   UNL     1      -1.590  10.613  18.927  0.00  0.00    +0.000 A 
ENDBRANCH   3   5
BRANCH   1  19
ATOM     18  C   UNL     1       2.435   8.896  17.287  0.00  0.00    +0.000 C 
ATOM     19  C   UNL     1       2.630   8.327  18.685  0.00  0.00    +0.000 C 
BRANCH  19  20
ATOM     20  N   UNL     1       2.802   6.882  18.621  0.00  0.00    +0.000 N 
ATOM     21  C   UNL     1       3.901   6.329  18.017  0.00  0.00    +0.000 C 
ATOM     22  O   UNL     1       4.801   6.959  17.478  0.00  0.00    +0.000 OA
ATOM     23  H   UNL     1       2.163   6.284  19.135  0.00  0.00    +0.000 HD
BRANCH  21  24
ATOM     24  C   UNL     1       3.967   4.806  18.096  0.00  0.00    +0.000 C 
ATOM     25  O   UNL     1       4.835   4.198  17.493  0.00  0.00    +0.000 OA
BRANCH  24  26
ATOM     26  C   UNL     1       2.950   4.118  18.913  0.00  0.00    +0.000 A 
ATOM     27  C   UNL     1       3.012   4.174  20.312  0.00  0.00    +0.000 A 
ATOM     28  C   UNL     1       2.075   3.475  21.067  0.00  0.00    +0.000 A 
ATOM     29  F   UNL     1       2.139   3.518  22.402  0.00  0.00    +0.000 F 
ATOM     30  C   UNL     1       1.072   2.732  20.456  0.00  0.00    +0.000 A 
ATOM     31  C   UNL     1       0.998   2.722  19.070  0.00  0.00    +0.000 A 
ATOM     32  F   UNL     1       0.030   2.018  18.473  0.00  0.00    +0.000 F 
ATOM     33  C   UNL     1       1.915   3.418  18.288  0.00  0.00    +0.000 A 
ENDBRANCH  24  26
ENDBRANCH  21  24
ENDBRANCH  19  20
ENDBRANCH   1  19
TORSDOF 5
ENDMDL
MODEL 8
REMARK VINA RESULT:      -8.0      3.461      4.141
REMARK  Name = 
REMARK  7 active torsions:
REMARK  status: ('A' for Active; 'I' for Inactive)
REMARK    1  A    between atoms: C_1  and  C_2
REMARK    2  A    between atoms: C_2  and  N_3
REMARK    3  A    between atoms: C_2  and  C_16
REMARK    4  A    between atoms: C_4  and  C_6
REMARK    5  A    between atoms: C_6  and  C_8
REMARK    6  A    between atoms: N_18  and  C_19
REMARK    7  A    between atoms: N_22  and  C_23
REMARK                            x       y       z     vdW  Elec       q    Type
REMARK                         _______ _______ _______ _____ _____    ______ ____
ROOT
ATOM      1  C   UNL     1       1.813   8.354  18.649  0.00  0.00    +0.000 C 
ATOM      2  O   UNL     1       1.464   8.496  17.482  0.00  0.00    +0.000 OA
ATOM      3  N   UNL     1       2.434   7.217  19.116  0.00  0.00    +0.000 N 
ATOM      4  H   UNL     1       2.925   7.288  20.005  0.00  0.00    +0.000 HD
ENDROOT
BRANCH   3   5
ATOM      5  C   UNL     1       2.765   6.051  18.268  0.00  0.00    +0.000 C 
ATOM      6  C   UNL     1       4.243   6.301  17.913  0.00  0.00    +0.000 C 
ATOM      7  O   UNL     1       4.627   7.409  17.523  0.00  0.00    +0.000 OA
ATOM      8  N   UNL     1       5.134   5.275  18.230  0.00  0.00    +0.000 N 
ATOM      9  C   UNL     1       6.505   5.677  18.504  0.00  0.00    +0.000 C 
ATOM     10  N   UNL     1       5.046   4.139  17.456  0.00  0.00    +0.000 NA
ATOM     11  C   UNL     1       4.037   3.356  17.666  0.00  0.00    +0.000 C 
ATOM     12  C   UNL     1       3.003   3.521  18.693  0.00  0.00    +0.000 A 
ATOM     13  C   UNL     1       2.648   2.346  19.373  0.00  0.00    +0.000 A 
ATOM     14  C   UNL     1       1.696   2.390  20.387  0.00  0.00    +0.000 A 
ATOM     15  C   UNL     1       1.068   3.592  20.685  0.00  0.00    +0.000 A 
ATOM     16  C   UNL     1       1.411   4.753  19.988  0.00  0.00    +0.000 A 
ATOM     17  C   UNL     1       2.424   4.760  19.004  0.00  0.00    +0.000 A 
ENDBRANCH   3   5
BRANCH   1  19
ATOM     18  C   UNL     1       0.728   8.998  20.838  0.00  0.00    +0.000 C 
ATOM     19  C   UNL     1       1.654   9.457  19.722  0.00  0.00    +0.000 C 
BRANCH  19  20
ATOM     20  N   UNL     1       1.134  10.669  19.103  0.00  0.00    +0.000 N 
ATOM     21  C   UNL     1       1.185  11.873  19.757  0.00  0.00    +0.000 C 
ATOM     22  O   UNL     1       1.634  12.044  20.883  0.00  0.00    +0.000 OA
ATOM     23  H   UNL     1       0.843  10.643  18.131  0.00  0.00    +0.000 HD
BRANCH  21  24
ATOM     24  C   UNL     1       0.665  13.056  18.947  0.00  0.00    +0.000 C 
ATOM     25  O   UNL     1      -0.485  13.061  18.537  0.00  0.00    +0.000 OA
BRANCH  24  26
ATOM     26  C   UNL     1       1.597  14.168  18.682  0.00  0.00    +0.000 A 
ATOM     27  C   UNL     1       1.189  15.494  18.881  0.00  0.00    +0.000 A 
ATOM     28  C   UNL     1       2.063  16.532  18.575  0.00  0.00    +0.000 A 
ATOM     29  F   UNL     1       1.671  17.799  18.754  0.00  0.00    +0.000 F 
ATOM     30  C   UNL     1       3.338  16.276  18.087  0.00  0.00    +0.000 A 
ATOM     31  C   UNL     1       3.743  14.956  17.936  0.00  0.00    +0.000 A 
ATOM     32  F   UNL     1       4.973  14.699  17.477  0.00  0.00    +0.000 F 
ATOM     33  C   UNL     1       2.895  13.896  18.242  0.00  0.00    +0.000 A 
ENDBRANCH  24  26
ENDBRANCH  21  24
ENDBRANCH  19  20
ENDBRANCH   1  19
TORSDOF 5
ENDMDL
MODEL 9
REMARK VINA RESULT:      -8.0      3.271      4.207
REMARK  Name = 
REMARK  7 active torsions:
REMARK  status: ('A' for Active; 'I' for Inactive)
REMARK    1  A    between atoms: C_1  and  C_2
REMARK    2  A    between atoms: C_2  and  N_3
REMARK    3  A    between atoms: C_2  and  C_16
REMARK    4  A    between atoms: C_4  and  C_6
REMARK    5  A    between atoms: C_6  and  C_8
REMARK    6  A    between atoms: N_18  and  C_19
REMARK    7  A    between atoms: N_22  and  C_23
REMARK                            x       y       z     vdW  Elec       q    Type
REMARK                         _______ _______ _______ _____ _____    ______ ____
ROOT
ATOM      1  C   UNL     1       1.799   8.268  18.718  0.00  0.00    +0.000 C 
ATOM      2  O   UNL     1       1.482   8.492  17.555  0.00  0.00    +0.000 OA
ATOM      3  N   UNL     1       2.411   7.103  19.121  0.00  0.00    +0.000 N 
ATOM      4  H   UNL     1       2.877   7.112  20.027  0.00  0.00    +0.000 HD
ENDROOT
BRANCH   3   5
ATOM      5  C   UNL     1       2.771   6.001  18.202  0.00  0.00    +0.000 C 
ATOM      6  C   UNL     1       4.265   6.260  17.933  0.00  0.00    +0.000 C 
ATOM      7  O   UNL     1       4.675   7.390  17.646  0.00  0.00    +0.000 OA
ATOM      8  N   UNL     1       5.134   5.203  18.211  0.00  0.00    +0.000 N 
ATOM      9  C   UNL     1       6.494   5.567  18.575  0.00  0.00    +0.000 C 
ATOM     10  N   UNL     1       5.071   4.130  17.349  0.00  0.00    +0.000 NA
ATOM     11  C   UNL     1       4.048   3.344  17.453  0.00  0.00    +0.000 C 
ATOM     12  C   UNL     1       2.971   3.443  18.443  0.00  0.00    +0.000 A 
ATOM     13  C   UNL     1       2.575   2.224  19.015  0.00  0.00    +0.000 A 
ATOM     14  C   UNL     1       1.579   2.202  19.986  0.00  0.00    +0.000 A 
ATOM     15  C   UNL     1       0.948   3.384  20.347  0.00  0.00    +0.000 A 
ATOM     16  C   UNL     1       1.331   4.591  19.756  0.00  0.00    +0.000 A 
ATOM     17  C   UNL     1       2.387   4.661  18.822  0.00  0.00    +0.000 A 
ENDBRANCH   3   5
BRANCH   1  19
ATOM     18  C   UNL     1       0.723   8.717  20.960  0.00  0.00    +0.000 C 
ATOM     19  C   UNL     1       1.605   9.292  19.862  0.00  0.00    +0.000 C 
BRANCH  19  20
ATOM     20  N   UNL     1       1.015  10.513  19.330  0.00  0.00    +0.000 N 
ATOM     21  C   UNL     1       1.013  11.673  20.061  0.00  0.00    +0.000 C 
ATOM     22  O   UNL     1       1.468  11.794  21.190  0.00  0.00    +0.000 OA
ATOM     23  H   UNL     1       0.711  10.535  18.362  0.00  0.00    +0.000 HD
BRANCH  21  24
ATOM     24  C   UNL     1       0.421  12.877  19.336  0.00  0.00    +0.000 C 
ATOM     25  O   UNL     1      -0.780  12.939  19.129  0.00  0.00    +0.000 OA
BRANCH  24  26
ATOM     26  C   UNL     1       1.348  13.938  18.899  0.00  0.00    +0.000 A 
ATOM     27  C   UNL     1       2.644  13.612  18.475  0.00  0.00    +0.000 A 
ATOM     28  C   UNL     1       3.522  14.631  18.118  0.00  0.00    +0.000 A 
ATOM     29  F   UNL     1       4.763  14.323  17.723  0.00  0.00    +0.000 F 
ATOM     30  C   UNL     1       3.133  15.963  18.164  0.00  0.00    +0.000 A 
ATOM     31  C   UNL     1       1.833  16.266  18.545  0.00  0.00    +0.000 A 
ATOM     32  F   UNL     1       1.445  17.546  18.582  0.00  0.00    +0.000 F 
ATOM     33  C   UNL     1       0.928  15.270  18.899  0.00  0.00    +0.000 A 
ENDBRANCH  24  26
ENDBRANCH  21  24
ENDBRANCH  19  20
ENDBRANCH   1  19
TORSDOF 5
ENDMDL
