MODEL 1
REMARK VINA RESULT:      -7.8      0.000      0.000
REMARK  Name = 
REMARK  7 active torsions:
REMARK  status: ('A' for Active; 'I' for Inactive)
REMARK    1  A    between atoms: C_1  and  C_2
REMARK    2  A    between atoms: C_2  and  C_3
REMARK    3  A    between atoms: C_3  and  C_4
REMARK    4  A    between atoms: N_6  and  C_7
REMARK    5  A    between atoms: N_14  and  N_15
REMARK    6  A    between atoms: C_16  and  C_18
REMARK    7  A    between atoms: N_20  and  C_21
REMARK                            x       y       z     vdW  Elec       q    Type
REMARK                         _______ _______ _______ _____ _____    ______ ____
ROOT
ATOM      1  C   UNL     1       2.027   8.867  18.197  0.00  0.00    +0.000 C 
ATOM      2  C   UNL     1       1.561   8.804  19.638  0.00  0.00    +0.000 C 
ATOM      3  N   UNL     1       1.789   7.797  20.437  0.00  0.00    +0.000 NA
ENDROOT
BRANCH   3   4
ATOM      4  N   UNL     1       2.537   6.754  19.942  0.00  0.00    +0.000 N 
ATOM      5  C   UNL     1       2.193   5.427  20.130  0.00  0.00    +0.000 C 
ATOM      6  O   UNL     1       1.259   4.936  20.742  0.00  0.00    +0.000 OA
ATOM      7  H   UNL     1       3.368   6.926  19.377  0.00  0.00    +0.000 HD
BRANCH   5   8
ATOM      8  C   UNL     1       3.234   4.518  19.418  0.00  0.00    +0.000 C 
ATOM      9  O   UNL     1       2.988   3.326  19.261  0.00  0.00    +0.000 OA
ATOM     10  N   UNL     1       4.387   5.155  18.999  0.00  0.00    +0.000 N 
ATOM     11  H   UNL     1       4.484   6.129  19.277  0.00  0.00    +0.000 HD
BRANCH  10  12
ATOM     12  C   UNL     1       5.462   4.458  18.304  0.00  0.00    +0.000 C 
ATOM     13  C   UNL     1       5.329   4.603  16.785  0.00  0.00    +0.000 C 
ATOM     14  C   UNL     1       5.616   6.023  16.303  0.00  0.00    +0.000 C 
ATOM     15  C   UNL     1       6.952   6.559  16.808  0.00  0.00    +0.000 C 
ATOM     16  C   UNL     1       7.166   6.349  18.307  0.00  0.00    +0.000 C 
ATOM     17  C   UNL     1       6.849   4.929  18.760  0.00  0.00    +0.000 C 
ENDBRANCH  10  12
ENDBRANCH   5   8
ENDBRANCH   3   4
BRANCH   2  18
ATOM     18  C   UNL     1       0.692   9.937  20.149  0.00  0.00    +0.000 C 
BRANCH  18  19
ATOM     19  C   UNL     1      -0.186  10.605  19.106  0.00  0.00    +0.000 C 
ATOM     20  O   UNL     1       0.144  11.662  18.572  0.00  0.00    +0.000 OA
ATOM     21  N   UNL     1      -1.346   9.904  18.822  0.00  0.00    +0.000 N 
ATOM     22  H   UNL     1      -1.709   9.314  19.558  0.00  0.00    +0.000 HD
BRANCH  21  23
ATOM     23  C   UNL     1      -2.260  10.301  17.824  0.00  0.00    +0.000 A 
ATOM     24  C   UNL     1      -2.067   9.820  16.525  0.00  0.00    +0.000 A 
ATOM     25  C   UNL     1      -2.964  10.151  15.504  0.00  0.00    +0.000 A 
ATOM     26  C   UNL     1      -4.024  11.014  15.765  0.00  0.00    +0.000 A 
ATOM     27  C   UNL     1      -4.184  11.530  17.046  0.00  0.00    +0.000 A 
ATOM     28  F   UNL     1      -5.181  12.396  17.283  0.00  0.00    +0.000 F 
ATOM     29  C   UNL     1      -3.324  11.170  18.083  0.00  0.00    +0.000 A 
ENDBRANCH  21  23
ENDBRANCH  18  19
ENDBRANCH   2  18
TORSDOF 6
ENDMDL
MODEL 2
REMARK VINA RESULT:      -7.8      1.756      2.315
REMARK  Name = 
REMARK  7 active torsions:
REMARK  status: ('A' for Active; 'I' for Inactive)
REMARK    1  A    between atoms: C_1  and  C_2
REMARK    2  A    between atoms: C_2  and  C_3
REMARK    3  A    between atoms: C_3  and  C_4
REMARK    4  A    between atoms: N_6  and  C_7
REMARK    5  A    between atoms: N_14  and  N_15
REMARK    6  A    between atoms: C_16  and  C_18
REMARK    7  A    between atoms: N_20  and  C_21
REMARK                            x       y       z     vdW  Elec       q    Type
REMARK                         _______ _______ _______ _____ _____    ______ ____
ROOT
ATOM      1  C   UNL     1      -0.064   8.588  21.644  0.00  0.00    +0.000 C 
ATOM      2  C   UNL     1       0.274   9.666  20.634  0.00  0.00    +0.000 C 
ATOM      3  N   UNL     1       1.163   9.528  19.688  0.00  0.00    +0.000 NA
ENDROOT
BRANCH   3   4
ATOM      4  N   UNL     1       1.793   8.310  19.585  0.00  0.00    +0.000 N 
ATOM      5  C   UNL     1       2.396   7.872  18.418  0.00  0.00    +0.000 C 
ATOM      6  O   UNL     1       2.468   8.405  17.324  0.00  0.00    +0.000 OA
ATOM      7  H   UNL     1       1.871   7.689  20.389  0.00  0.00    +0.000 HD
BRANCH   5   8
ATOM      8  C   UNL     1       3.033   6.475  18.660  0.00  0.00    +0.000 C 
ATOM      9  O   UNL     1       2.600   5.762  19.560  0.00  0.00    +0.000 OA
ATOM     10  N   UNL     1       4.064   6.138  17.804  0.00  0.00    +0.000 N 
ATOM     11  H   UNL     1       4.367   6.868  17.162  0.00  0.00    +0.000 HD
BRANCH  10  12
ATOM     12  C   UNL     1       4.764   4.862  17.880  0.00  0.00    +0.000 C 
ATOM     13  C   UNL     1       4.651   4.084  16.565  0.00  0.00    +0.000 C 
ATOM     14  C   UNL     1       5.448   4.726  15.432  0.00  0.00    +0.000 C 
ATOM     15  C   UNL     1       6.902   4.990  15.809  0.00  0.00    +0.000 C 
ATOM     16  C   UNL     1       7.066   5.682  17.163  0.00  0.00    +0.000 C 
ATOM     17  C   UNL     1       6.240   5.032  18.267  0.00  0.00    +0.000 C 
ENDBRANCH  10  12
ENDBRANCH   5   8
ENDBRANCH   3   4
BRANCH   2  18
ATOM     18  C   UNL     1      -0.391  11.020  20.797  0.00  0.00    +0.000 C 
BRANCH  18  19
ATOM     19  C   UNL     1      -1.253  11.465  19.629  0.00  0.00    +0.000 C 
ATOM     20  O   UNL     1      -1.399  12.655  19.357  0.00  0.00    +0.000 OA
ATOM     21  N   UNL     1      -1.818  10.418  18.921  0.00  0.00    +0.000 N 
ATOM     22  H   UNL     1      -1.976   9.560  19.433  0.00  0.00    +0.000 HD
BRANCH  21  23
ATOM     23  C   UNL     1      -2.583  10.603  17.752  0.00  0.00    +0.000 A 
ATOM     24  C   UNL     1      -3.863  11.154  17.882  0.00  0.00    +0.000 A 
ATOM     25  C   UNL     1      -4.652  11.394  16.753  0.00  0.00    +0.000 A 
ATOM     26  C   UNL     1      -4.189  11.026  15.492  0.00  0.00    +0.000 A 
ATOM     27  C   UNL     1      -2.938  10.433  15.372  0.00  0.00    +0.000 A 
ATOM     28  F   UNL     1      -2.515  10.040  14.161  0.00  0.00    +0.000 F 
ATOM     29  C   UNL     1      -2.123  10.232  16.485  0.00  0.00    +0.000 A 
ENDBRANCH  21  23
ENDBRANCH  18  19
ENDBRANCH   2  18
TORSDOF 6
ENDMDL
MODEL 3
REMARK VINA RESULT:      -7.7      4.316      8.740
REMARK  Name = 
REMARK  7 active torsions:
REMARK  status: ('A' for Active; 'I' for Inactive)
REMARK    1  A    between atoms: C_1  and  C_2
REMARK    2  A    between atoms: C_2  and  C_3
REMARK    3  A    between atoms: C_3  and  C_4
REMARK    4  A    between atoms: N_6  and  C_7
REMARK    5  A    between atoms: N_14  and  N_15
REMARK    6  A    between atoms: C_16  and  C_18
REMARK    7  A    between atoms: N_20  and  C_21
REMARK                            x       y       z     vdW  Elec       q    Type
REMARK                         _______ _______ _______ _____ _____    ______ ____
ROOT
ATOM      1  C   UNL     1       1.666  10.475  18.483  0.00  0.00    +0.000 C 
ATOM      2  C   UNL     1       1.877   9.003  18.775  0.00  0.00    +0.000 C 
ATOM      3  N   UNL     1       1.633   8.444  19.930  0.00  0.00    +0.000 NA
ENDROOT
BRANCH   3   4
ATOM      4  N   UNL     1       1.112   9.243  20.921  0.00  0.00    +0.000 N 
ATOM      5  C   UNL     1       0.000   8.887  21.665  0.00  0.00    +0.000 C 
ATOM      6  O   UNL     1      -0.710   7.899  21.593  0.00  0.00    +0.000 OA
ATOM      7  H   UNL     1       1.554  10.126  21.171  0.00  0.00    +0.000 HD
BRANCH   5   8
ATOM      8  C   UNL     1      -0.298   9.999  22.710  0.00  0.00    +0.000 C 
ATOM      9  O   UNL     1       0.122   9.878  23.857  0.00  0.00    +0.000 OA
ATOM     10  N   UNL     1      -1.030  11.073  22.239  0.00  0.00    +0.000 N 
ATOM     11  H   UNL     1      -1.380  10.990  21.287  0.00  0.00    +0.000 HD
BRANCH  10  12
ATOM     12  C   UNL     1      -1.388  12.209  23.080  0.00  0.00    +0.000 C 
ATOM     13  C   UNL     1      -0.866  13.524  22.492  0.00  0.00    +0.000 C 
ATOM     14  C   UNL     1      -1.599  13.930  21.217  0.00  0.00    +0.000 C 
ATOM     15  C   UNL     1      -3.115  13.950  21.389  0.00  0.00    +0.000 C 
ATOM     16  C   UNL     1      -3.670  12.694  22.060  0.00  0.00    +0.000 C 
ATOM     17  C   UNL     1      -2.902  12.301  23.316  0.00  0.00    +0.000 C 
ENDBRANCH  10  12
ENDBRANCH   5   8
ENDBRANCH   3   4
BRANCH   2  18
ATOM     18  C   UNL     1       2.503   8.150  17.689  0.00  0.00    +0.000 C 
BRANCH  18  19
ATOM     19  C   UNL     1       2.848   6.728  18.096  0.00  0.00    +0.000 C 
ATOM     20  O   UNL     1       3.984   6.420  18.450  0.00  0.00    +0.000 OA
ATOM     21  N   UNL     1       1.774   5.857  18.043  0.00  0.00    +0.000 N 
ATOM     22  H   UNL     1       1.040   6.084  17.385  0.00  0.00    +0.000 HD
BRANCH  21  23
ATOM     23  C   UNL     1       1.852   4.512  18.459  0.00  0.00    +0.000 A 
ATOM     24  C   UNL     1       2.261   3.555  17.523  0.00  0.00    +0.000 A 
ATOM     25  C   UNL     1       2.392   2.212  17.890  0.00  0.00    +0.000 A 
ATOM     26  C   UNL     1       2.054   1.809  19.179  0.00  0.00    +0.000 A 
ATOM     27  C   UNL     1       1.600   2.755  20.091  0.00  0.00    +0.000 A 
ATOM     28  F   UNL     1       1.234   2.355  21.319  0.00  0.00    +0.000 F 
ATOM     29  C   UNL     1       1.511   4.104  19.751  0.00  0.00    +0.000 A 
ENDBRANCH  21  23
ENDBRANCH  18  19
ENDBRANCH   2  18
TORSDOF 6
ENDMDL
MODEL 4
REMARK VINA RESULT:      -7.7      1.487      1.849
REMARK  Name = 
REMARK  7 active torsions:
REMARK  status: ('A' for Active; 'I' for Inactive)
REMARK    1  A    between atoms: C_1  and  C_2
REMARK    2  A    between atoms: C_2  and  C_3
REMARK    3  A    between atoms: C_3  and  C_4
REMARK    4  A    between atoms: N_6  and  C_7
REMARK    5  A    between atoms: N_14  and  N_15
REMARK    6  A    between atoms: C_16  and  C_18
REMARK    7  A    between atoms: N_20  and  C_21
REMARK                            x       y       z     vdW  Elec       q    Type
REMARK                         _______ _______ _______ _____ _____    ______ ____
ROOT
ATOM      1  C   UNL     1       0.560   8.602  21.751  0.00  0.00    +0.000 C 
ATOM      2  C   UNL     1       0.659   9.565  20.585  0.00  0.00    +0.000 C 
ATOM      3  N   UNL     1       1.333   9.324  19.493  0.00  0.00    +0.000 NA
ENDROOT
BRANCH   3   4
ATOM      4  N   UNL     1       1.951   8.100  19.389  0.00  0.00    +0.000 N 
ATOM      5  C   UNL     1       2.587   7.675  18.235  0.00  0.00    +0.000 C 
ATOM      6  O   UNL     1       2.700   8.225  17.153  0.00  0.00    +0.000 OA
ATOM      7  H   UNL     1       1.996   7.465  20.185  0.00  0.00    +0.000 HD
BRANCH   5   8
ATOM      8  C   UNL     1       3.198   6.266  18.472  0.00  0.00    +0.000 C 
ATOM      9  O   UNL     1       2.622   5.474  19.212  0.00  0.00    +0.000 OA
ATOM     10  N   UNL     1       4.378   6.011  17.799  0.00  0.00    +0.000 N 
ATOM     11  H   UNL     1       4.778   6.796  17.290  0.00  0.00    +0.000 HD
BRANCH  10  12
ATOM     12  C   UNL     1       5.080   4.737  17.897  0.00  0.00    +0.000 C 
ATOM     13  C   UNL     1       4.769   3.835  16.699  0.00  0.00    +0.000 C 
ATOM     14  C   UNL     1       5.386   4.348  15.400  0.00  0.00    +0.000 C 
ATOM     15  C   UNL     1       6.881   4.625  15.526  0.00  0.00    +0.000 C 
ATOM     16  C   UNL     1       7.248   5.444  16.764  0.00  0.00    +0.000 C 
ATOM     17  C   UNL     1       6.597   4.921  18.039  0.00  0.00    +0.000 C 
ENDBRANCH  10  12
ENDBRANCH   5   8
ENDBRANCH   3   4
BRANCH   2  18
ATOM     18  C   UNL     1       0.017  10.930  20.740  0.00  0.00    +0.000 C 
BRANCH  18  19
ATOM     19  C   UNL     1      -0.834  11.386  19.568  0.00  0.00    +0.000 C 
ATOM     20  O   UNL     1      -0.781  12.539  19.148  0.00  0.00    +0.000 OA
ATOM     21  N   UNL     1      -1.629  10.386  19.034  0.00  0.00    +0.000 N 
ATOM     22  H   UNL     1      -1.902   9.642  19.663  0.00  0.00    +0.000 HD
BRANCH  21  23
ATOM     23  C   UNL     1      -2.433  10.569  17.890  0.00  0.00    +0.000 A 
ATOM     24  C   UNL     1      -2.031   9.956  16.698  0.00  0.00    +0.000 A 
ATOM     25  C   UNL     1      -2.809  10.073  15.542  0.00  0.00    +0.000 A 
ATOM     26  C   UNL     1      -3.960  10.856  15.556  0.00  0.00    +0.000 A 
ATOM     27  C   UNL     1      -4.328  11.505  16.729  0.00  0.00    +0.000 A 
ATOM     28  F   UNL     1      -5.413  12.294  16.726  0.00  0.00    +0.000 F 
ATOM     29  C   UNL     1      -3.587  11.357  17.900  0.00  0.00    +0.000 A 
ENDBRANCH  21  23
ENDBRANCH  18  19
ENDBRANCH   2  18
TORSDOF 6
ENDMDL
MODEL 5
REMARK VINA RESULT:      -7.6      2.068      3.469
REMARK  Name = 
REMARK  7 active torsions:
REMARK  status: ('A' for Active; 'I' for Inactive)
REMARK    1  A    between atoms: C_1  and  C_2
REMARK    2  A    between atoms: C_2  and  C_3
REMARK    3  A    between atoms: C_3  and  C_4
REMARK    4  A    between atoms: N_6  and  C_7
REMARK    5  A    between atoms: N_14  and  N_15
REMARK    6  A    between atoms: C_16  and  C_18
REMARK    7  A    between atoms: N_20  and  C_21
REMARK                            x       y       z     vdW  Elec       q    Type
REMARK                         _______ _______ _______ _____ _____    ______ ____
ROOT
ATOM      1  C   UNL     1       1.811   7.909  20.197  0.00  0.00    +0.000 C 
ATOM      2  C   UNL     1       1.894   8.622  18.862  0.00  0.00    +0.000 C 
ATOM      3  N   UNL     1       2.440   8.110  17.792  0.00  0.00    +0.000 NA
ENDROOT
BRANCH   3   4
ATOM      4  N   UNL     1       2.926   6.826  17.883  0.00  0.00    +0.000 N 
ATOM      5  C   UNL     1       4.234   6.495  17.578  0.00  0.00    +0.000 C 
ATOM      6  O   UNL     1       5.147   7.194  17.171  0.00  0.00    +0.000 OA
ATOM      7  H   UNL     1       2.338   6.065  18.220  0.00  0.00    +0.000 HD
BRANCH   5   8
ATOM      8  C   UNL     1       4.451   4.975  17.817  0.00  0.00    +0.000 C 
ATOM      9  O   UNL     1       5.483   4.442  17.422  0.00  0.00    +0.000 OA
ATOM     10  N   UNL     1       3.428   4.329  18.486  0.00  0.00    +0.000 N 
ATOM     11  H   UNL     1       2.597   4.887  18.674  0.00  0.00    +0.000 HD
BRANCH  10  12
ATOM     12  C   UNL     1       3.471   2.907  18.805  0.00  0.00    +0.000 C 
ATOM     13  C   UNL     1       3.732   2.678  20.297  0.00  0.00    +0.000 C 
ATOM     14  C   UNL     1       2.546   3.082  21.170  0.00  0.00    +0.000 C 
ATOM     15  C   UNL     1       1.236   2.442  20.719  0.00  0.00    +0.000 C 
ATOM     16  C   UNL     1       0.982   2.564  19.217  0.00  0.00    +0.000 C 
ATOM     17  C   UNL     1       2.192   2.177  18.375  0.00  0.00    +0.000 C 
ENDBRANCH  10  12
ENDBRANCH   5   8
ENDBRANCH   3   4
BRANCH   2  18
ATOM     18  C   UNL     1       1.402  10.055  18.795  0.00  0.00    +0.000 C 
BRANCH  18  19
ATOM     19  C   UNL     1      -0.106  10.226  18.796  0.00  0.00    +0.000 C 
ATOM     20  O   UNL     1      -0.765  10.099  19.825  0.00  0.00    +0.000 OA
ATOM     21  N   UNL     1      -0.632  10.547  17.556  0.00  0.00    +0.000 N 
ATOM     22  H   UNL     1      -0.108  10.235  16.749  0.00  0.00    +0.000 HD
BRANCH  21  23
ATOM     23  C   UNL     1      -1.997  10.833  17.348  0.00  0.00    +0.000 A 
ATOM     24  C   UNL     1      -2.556  10.509  16.107  0.00  0.00    +0.000 A 
ATOM     25  C   UNL     1      -3.914  10.736  15.859  0.00  0.00    +0.000 A 
ATOM     26  C   UNL     1      -4.704  11.345  16.830  0.00  0.00    +0.000 A 
ATOM     27  C   UNL     1      -4.133  11.710  18.043  0.00  0.00    +0.000 A 
ATOM     28  F   UNL     1      -4.888  12.337  18.958  0.00  0.00    +0.000 F 
ATOM     29  C   UNL     1      -2.792  11.447  18.320  0.00  0.00    +0.000 A 
ENDBRANCH  21  23
ENDBRANCH  18  19
ENDBRANCH   2  18
TORSDOF 6
ENDMDL
MODEL 6
REMARK VINA RESULT:      -7.5      6.275      8.792
REMARK  Name = 
REMARK  7 active torsions:
REMARK  status: ('A' for Active; 'I' for Inactive)
REMARK    1  A    between atoms: C_1  and  C_2
REMARK    2  A    between atoms: C_2  and  C_3
REMARK    3  A    between atoms: C_3  and  C_4
REMARK    4  A    between atoms: N_6  and  C_7
REMARK    5  A    between atoms: N_14  and  N_15
REMARK    6  A    between atoms: C_16  and  C_18
REMARK    7  A    between atoms: N_20  and  C_21
REMARK                            x       y       z     vdW  Elec       q    Type
REMARK                         _______ _______ _______ _____ _____    ______ ____
ROOT
ATOM      1  C   UNL     1       7.859   5.835  19.281  0.00  0.00    +0.000 C 
ATOM      2  C   UNL     1       7.329   6.183  17.905  0.00  0.00    +0.000 C 
ATOM      3  N   UNL     1       7.544   7.322  17.305  0.00  0.00    +0.000 NA
ENDROOT
BRANCH   3   4
ATOM      4  N   UNL     1       8.340   8.238  17.953  0.00  0.00    +0.000 N 
ATOM      5  C   UNL     1       8.094   9.600  17.924  0.00  0.00    +0.000 C 
ATOM      6  O   UNL     1       7.223  10.229  17.349  0.00  0.00    +0.000 OA
ATOM      7  H   UNL     1       9.132   7.937  18.519  0.00  0.00    +0.000 HD
BRANCH   5   8
ATOM      8  C   UNL     1       9.163  10.334  18.781  0.00  0.00    +0.000 C 
ATOM      9  O   UNL     1       9.326  10.008  19.953  0.00  0.00    +0.000 OA
ATOM     10  N   UNL     1       9.872  11.322  18.124  0.00  0.00    +0.000 N 
ATOM     11  H   UNL     1       9.565  11.536  17.177  0.00  0.00    +0.000 HD
BRANCH  10  12
ATOM     12  C   UNL     1      10.920  12.102  18.772  0.00  0.00    +0.000 C 
ATOM     13  C   UNL     1      12.079  12.384  17.812  0.00  0.00    +0.000 C 
ATOM     14  C   UNL     1      11.702  13.365  16.706  0.00  0.00    +0.000 C 
ATOM     15  C   UNL     1      11.088  14.654  17.245  0.00  0.00    +0.000 C 
ATOM     16  C   UNL     1       9.988  14.420  18.280  0.00  0.00    +0.000 C 
ATOM     17  C   UNL     1      10.387  13.417  19.356  0.00  0.00    +0.000 C 
ENDBRANCH  10  12
ENDBRANCH   5   8
ENDBRANCH   3   4
BRANCH   2  18
ATOM     18  C   UNL     1       6.410   5.183  17.229  0.00  0.00    +0.000 C 
BRANCH  18  19
ATOM     19  C   UNL     1       5.009   5.093  17.807  0.00  0.00    +0.000 C 
ATOM     20  O   UNL     1       4.227   6.039  17.742  0.00  0.00    +0.000 OA
ATOM     21  N   UNL     1       4.718   3.865  18.376  0.00  0.00    +0.000 N 
ATOM     22  H   UNL     1       5.502   3.336  18.734  0.00  0.00    +0.000 HD
BRANCH  21  23
ATOM     23  C   UNL     1       3.449   3.537  18.895  0.00  0.00    +0.000 A 
ATOM     24  C   UNL     1       2.410   3.293  17.989  0.00  0.00    +0.000 A 
ATOM     25  C   UNL     1       1.140   2.928  18.447  0.00  0.00    +0.000 A 
ATOM     26  C   UNL     1       0.886   2.867  19.814  0.00  0.00    +0.000 A 
ATOM     27  C   UNL     1       1.908   3.159  20.710  0.00  0.00    +0.000 A 
ATOM     28  F   UNL     1       1.647   3.142  22.027  0.00  0.00    +0.000 F 
ATOM     29  C   UNL     1       3.190   3.478  20.267  0.00  0.00    +0.000 A 
ENDBRANCH  21  23
ENDBRANCH  18  19
ENDBRANCH   2  18
TORSDOF 6
ENDMDL
MODEL 7
REMARK VINA RESULT:      -7.5      6.015      8.778
REMARK  Name = 
REMARK  7 active torsions:
REMARK  status: ('A' for Active; 'I' for Inactive)
REMARK    1  A    between atoms: C_1  and  C_2
REMARK    2  A    between atoms: C_2  and  C_3
REMARK    3  A    between atoms: C_3  and  C_4
REMARK    4  A    between atoms: N_6  and  C_7
REMARK    5  A    between atoms: N_14  and  N_15
REMARK    6  A    between atoms: C_16  and  C_18
REMARK    7  A    between atoms: N_20  and  C_21
REMARK                            x       y       z     vdW  Elec       q    Type
REMARK                         _______ _______ _______ _____ _____    ______ ____
ROOT
ATOM      1  C   UNL     1       7.846   6.189  18.879  0.00  0.00    +0.000 C 
ATOM      2  C   UNL     1       7.207   6.819  17.657  0.00  0.00    +0.000 C 
ATOM      3  N   UNL     1       7.378   8.065  17.304  0.00  0.00    +0.000 NA
ENDROOT
BRANCH   3   4
ATOM      4  N   UNL     1       8.226   8.829  18.071  0.00  0.00    +0.000 N 
ATOM      5  C   UNL     1       8.291  10.208  17.972  0.00  0.00    +0.000 C 
ATOM      6  O   UNL     1       7.693  10.972  17.234  0.00  0.00    +0.000 OA
ATOM      7  H   UNL     1       8.822   8.402  18.779  0.00  0.00    +0.000 HD
BRANCH   5   8
ATOM      8  C   UNL     1       9.326  10.750  18.997  0.00  0.00    +0.000 C 
ATOM      9  O   UNL     1       9.738  10.012  19.887  0.00  0.00    +0.000 OA
ATOM     10  N   UNL     1       9.716  12.062  18.808  0.00  0.00    +0.000 N 
ATOM     11  H   UNL     1       9.223  12.572  18.078  0.00  0.00    +0.000 HD
BRANCH  10  12
ATOM     12  C   UNL     1      10.688  12.726  19.668  0.00  0.00    +0.000 C 
ATOM     13  C   UNL     1      12.110  12.580  19.120  0.00  0.00    +0.000 C 
ATOM     14  C   UNL     1      12.333  13.386  17.843  0.00  0.00    +0.000 C 
ATOM     15  C   UNL     1      11.931  14.851  17.992  0.00  0.00    +0.000 C 
ATOM     16  C   UNL     1      10.554  15.045  18.625  0.00  0.00    +0.000 C 
ATOM     17  C   UNL     1      10.354  14.209  19.884  0.00  0.00    +0.000 C 
ENDBRANCH  10  12
ENDBRANCH   5   8
ENDBRANCH   3   4
BRANCH   2  18
ATOM     18  C   UNL     1       6.234   5.978  16.855  0.00  0.00    +0.000 C 
BRANCH  18  19
ATOM     19  C   UNL     1       4.835   5.870  17.436  0.00  0.00    +0.000 C 
ATOM     20  O   UNL     1       3.962   6.690  17.162  0.00  0.00    +0.000 OA
ATOM     21  N   UNL     1       4.657   4.772  18.261  0.00  0.00    +0.000 N 
ATOM     22  H   UNL     1       5.482   4.420  18.729  0.00  0.00    +0.000 HD
BRANCH  21  23
ATOM     23  C   UNL     1       3.415   4.435  18.837  0.00  0.00    +0.000 A 
ATOM     24  C   UNL     1       3.051   5.063  20.033  0.00  0.00    +0.000 A 
ATOM     25  C   UNL     1       1.815   4.794  20.629  0.00  0.00    +0.000 A 
ATOM     26  C   UNL     1       0.963   3.850  20.064  0.00  0.00    +0.000 A 
ATOM     27  C   UNL     1       1.350   3.192  18.902  0.00  0.00    +0.000 A 
ATOM     28  F   UNL     1       0.545   2.250  18.385  0.00  0.00    +0.000 F 
ATOM     29  C   UNL     1       2.559   3.485  18.273  0.00  0.00    +0.000 A 
ENDBRANCH  21  23
ENDBRANCH  18  19
ENDBRANCH   2  18
TORSDOF 6
ENDMDL
MODEL 8
REMARK VINA RESULT:      -7.4      3.736      8.755
REMARK  Name = 
REMARK  7 active torsions:
REMARK  status: ('A' for Active; 'I' for Inactive)
REMARK    1  A    between atoms: C_1  and  C_2
REMARK    2  A    between atoms: C_2  and  C_3
REMARK    3  A    between atoms: C_3  and  C_4
REMARK    4  A    between atoms: N_6  and  C_7
REMARK    5  A    between atoms: N_14  and  N_15
REMARK    6  A    between atoms: C_16  and  C_18
REMARK    7  A    between atoms: N_20  and  C_21
REMARK                            x       y       z     vdW  Elec       q    Type
REMARK                         _______ _______ _______ _____ _____    ______ ____
ROOT
ATOM      1  C   UNL     1       0.724   4.209  20.481  0.00  0.00    +0.000 C 
ATOM      2  C   UNL     1       2.209   4.377  20.230  0.00  0.00    +0.000 C 
ATOM      3  N   UNL     1       2.840   5.517  20.313  0.00  0.00    +0.000 NA
ENDROOT
BRANCH   3   4
ATOM      4  N   UNL     1       2.110   6.617  20.696  0.00  0.00    +0.000 N 
ATOM      5  C   UNL     1       1.930   7.721  19.880  0.00  0.00    +0.000 C 
ATOM      6  O   UNL     1       2.364   7.951  18.763  0.00  0.00    +0.000 OA
ATOM      7  H   UNL     1       1.635   6.645  21.597  0.00  0.00    +0.000 HD
BRANCH   5   8
ATOM      8  C   UNL     1       1.034   8.761  20.608  0.00  0.00    +0.000 C 
ATOM      9  O   UNL     1       0.395   8.419  21.599  0.00  0.00    +0.000 OA
ATOM     10  N   UNL     1       1.039  10.031  20.064  0.00  0.00    +0.000 N 
ATOM     11  H   UNL     1       1.552  10.140  19.192  0.00  0.00    +0.000 HD
BRANCH  10  12
ATOM     12  C   UNL     1       0.267  11.132  20.628  0.00  0.00    +0.000 C 
ATOM     13  C   UNL     1       0.995  12.468  20.459  0.00  0.00    +0.000 C 
ATOM     14  C   UNL     1       1.043  12.932  19.006  0.00  0.00    +0.000 C 
ATOM     15  C   UNL     1      -0.333  12.950  18.346  0.00  0.00    +0.000 C 
ATOM     16  C   UNL     1      -1.134  11.668  18.571  0.00  0.00    +0.000 C 
ATOM     17  C   UNL     1      -1.143  11.219  20.027  0.00  0.00    +0.000 C 
ENDBRANCH  10  12
ENDBRANCH   5   8
ENDBRANCH   3   4
BRANCH   2  18
ATOM     18  C   UNL     1       2.987   3.164  19.757  0.00  0.00    +0.000 C 
BRANCH  18  19
ATOM     19  C   UNL     1       4.270   3.467  19.003  0.00  0.00    +0.000 C 
ATOM     20  O   UNL     1       5.363   3.094  19.421  0.00  0.00    +0.000 OA
ATOM     21  N   UNL     1       4.071   4.168  17.825  0.00  0.00    +0.000 N 
ATOM     22  H   UNL     1       3.249   4.754  17.781  0.00  0.00    +0.000 HD
BRANCH  21  23
ATOM     23  C   UNL     1       5.115   4.479  16.929  0.00  0.00    +0.000 A 
ATOM     24  C   UNL     1       5.949   5.558  17.240  0.00  0.00    +0.000 A 
ATOM     25  C   UNL     1       7.023   5.890  16.406  0.00  0.00    +0.000 A 
ATOM     26  C   UNL     1       7.229   5.181  15.226  0.00  0.00    +0.000 A 
ATOM     27  C   UNL     1       6.367   4.141  14.896  0.00  0.00    +0.000 A 
ATOM     28  F   UNL     1       6.543   3.490  13.736  0.00  0.00    +0.000 F 
ATOM     29  C   UNL     1       5.322   3.771  15.742  0.00  0.00    +0.000 A 
ENDBRANCH  21  23
ENDBRANCH  18  19
ENDBRANCH   2  18
TORSDOF 6
ENDMDL
MODEL 9
REMARK VINA RESULT:      -7.4      4.075      8.681
REMARK  Name = 
REMARK  7 active torsions:
REMARK  status: ('A' for Active; 'I' for Inactive)
REMARK    1  A    between atoms: C_1  and  C_2
REMARK    2  A    between atoms: C_2  and  C_3
REMARK    3  A    between atoms: C_3  and  C_4
REMARK    4  A    between atoms: N_6  and  C_7
REMARK    5  A    between atoms: N_14  and  N_15
REMARK    6  A    between atoms: C_16  and  C_18
REMARK    7  A    between atoms: N_20  and  C_21
REMARK                            x       y       z     vdW  Elec       q    Type
REMARK                         _______ _______ _______ _____ _____    ______ ____
ROOT
ATOM      1  C   UNL     1       1.068   9.917  17.955  0.00  0.00    +0.000 C 
ATOM      2  C   UNL     1       1.835   8.799  18.632  0.00  0.00    +0.000 C 
ATOM      3  N   UNL     1       1.678   8.457  19.882  0.00  0.00    +0.000 NA
ENDROOT
BRANCH   3   4
ATOM      4  N   UNL     1       0.723   9.131  20.606  0.00  0.00    +0.000 N 
ATOM      5  C   UNL     1       0.936   9.577  21.899  0.00  0.00    +0.000 C 
ATOM      6  O   UNL     1       1.911   9.454  22.622  0.00  0.00    +0.000 OA
ATOM      7  H   UNL     1      -0.181   9.364  20.196  0.00  0.00    +0.000 HD
BRANCH   5   8
ATOM      8  C   UNL     1      -0.332  10.320  22.404  0.00  0.00    +0.000 C 
ATOM      9  O   UNL     1      -0.974   9.851  23.340  0.00  0.00    +0.000 OA
ATOM     10  N   UNL     1      -0.636  11.492  21.739  0.00  0.00    +0.000 N 
ATOM     11  H   UNL     1      -0.058  11.707  20.929  0.00  0.00    +0.000 HD
BRANCH  10  12
ATOM     12  C   UNL     1      -1.782  12.322  22.090  0.00  0.00    +0.000 C 
ATOM     13  C   UNL     1      -1.426  13.329  23.188  0.00  0.00    +0.000 C 
ATOM     14  C   UNL     1      -0.482  14.423  22.698  0.00  0.00    +0.000 C 
ATOM     15  C   UNL     1      -0.987  15.117  21.436  0.00  0.00    +0.000 C 
ATOM     16  C   UNL     1      -1.443  14.146  20.347  0.00  0.00    +0.000 C 
ATOM     17  C   UNL     1      -2.364  13.052  20.873  0.00  0.00    +0.000 C 
ENDBRANCH  10  12
ENDBRANCH   5   8
ENDBRANCH   3   4
BRANCH   2  18
ATOM     18  C   UNL     1       2.921   8.103  17.833  0.00  0.00    +0.000 C 
BRANCH  18  19
ATOM     19  C   UNL     1       3.126   6.634  18.157  0.00  0.00    +0.000 C 
ATOM     20  O   UNL     1       4.249   6.166  18.327  0.00  0.00    +0.000 OA
ATOM     21  N   UNL     1       1.947   5.914  18.253  0.00  0.00    +0.000 N 
ATOM     22  H   UNL     1       1.161   6.262  17.720  0.00  0.00    +0.000 HD
BRANCH  21  23
ATOM     23  C   UNL     1       1.902   4.556  18.628  0.00  0.00    +0.000 A 
ATOM     24  C   UNL     1       2.195   3.594  17.654  0.00  0.00    +0.000 A 
ATOM     25  C   UNL     1       2.202   2.234  17.979  0.00  0.00    +0.000 A 
ATOM     26  C   UNL     1       1.856   1.825  19.264  0.00  0.00    +0.000 A 
ATOM     27  C   UNL     1       1.516   2.781  20.214  0.00  0.00    +0.000 A 
ATOM     28  F   UNL     1       1.140   2.380  21.439  0.00  0.00    +0.000 F 
ATOM     29  C   UNL     1       1.552   4.142  19.916  0.00  0.00    +0.000 A 
ENDBRANCH  21  23
ENDBRANCH  18  19
ENDBRANCH   2  18
TORSDOF 6
ENDMDL
