MODEL 1
REMARK VINA RESULT:      -7.5      0.000      0.000
REMARK  Name = 
REMARK  11 active torsions:
REMARK  status: ('A' for Active; 'I' for Inactive)
REMARK    1  A    between atoms: C_1  and  C_2
REMARK    2  A    between atoms: C_2  and  C_3
REMARK    3  A    between atoms: C_2  and  N_27
REMARK    4  A    between atoms: C_6  and  S_7
REMARK    5  A    between atoms: S_7  and  C_8
REMARK    6  A    between atoms: C_8  and  C_9
REMARK    7  A    between atoms: N_11  and  C_12
REMARK    8  A    between atoms: C_16  and  C_17
REMARK    9  A    between atoms: N_19  and  C_20
REMARK   10  A    between atoms: N_27  and  C_28
REMARK   11  A    between atoms: N_27  and  C_29
REMARK                            x       y       z     vdW  Elec       q    Type
REMARK                         _______ _______ _______ _____ _____    ______ ____
ROOT
ATOM      1  C   UNL     1       2.210   5.167  19.504  0.00  0.00    +0.000 A 
ATOM      2  N   UNL     1       1.573   5.882  20.419  0.00  0.00    +0.000 NA
ATOM      3  N   UNL     1       1.731   7.206  20.140  0.00  0.00    +0.000 NA
ATOM      4  C   UNL     1       2.398   7.300  19.014  0.00  0.00    +0.000 A 
ATOM      5  N   UNL     1       2.787   6.039  18.563  0.00  0.00    +0.000 N 
ENDROOT
BRANCH   5   6
ATOM      6  C   UNL     1       3.669   5.713  17.480  0.00  0.00    +0.000 A 
ATOM      7  C   UNL     1       4.446   6.707  16.864  0.00  0.00    +0.000 A 
ATOM      8  C   UNL     1       5.390   6.376  15.884  0.00  0.00    +0.000 A 
ATOM      9  C   UNL     1       5.595   5.047  15.535  0.00  0.00    +0.000 A 
ATOM     10 CL   UNL     1       6.818   4.630  14.404  0.00  0.00    +0.000 Cl
ATOM     11  C   UNL     1       4.817   4.053  16.111  0.00  0.00    +0.000 A 
ATOM     12  C   UNL     1       3.839   4.391  17.051  0.00  0.00    +0.000 A 
ENDBRANCH   5   6
BRANCH   1  14
ATOM     13  C   UNL     1       0.996   3.000  19.659  0.00  0.00    +0.000 C 
ATOM     14  C   UNL     1       2.391   3.652  19.565  0.00  0.00    +0.000 C 
BRANCH  14  15
ATOM     15  N   UNL     1       3.251   3.177  20.690  0.00  0.00    +0.000 NA
ATOM     16  C   UNL     1       2.465   2.501  21.734  0.00  0.00    +0.000 C 
ATOM     17  C   UNL     1       4.287   2.246  20.237  0.00  0.00    +0.000 C 
ENDBRANCH  14  15
ENDBRANCH   1  14
BRANCH   4  18
ATOM     18  S   UNL     1       2.611   8.806  18.180  0.00  0.00    +0.000 S 
BRANCH  18  19
ATOM     19  C   UNL     1       0.912   9.441  18.090  0.00  0.00    +0.000 C 
BRANCH  19  20
ATOM     20  C   UNL     1       0.626  10.467  19.179  0.00  0.00    +0.000 C 
ATOM     21  O   UNL     1       1.476  11.275  19.550  0.00  0.00    +0.000 OA
ATOM     22  N   UNL     1      -0.643  10.360  19.720  0.00  0.00    +0.000 N 
ATOM     23  H   UNL     1      -1.077   9.438  19.743  0.00  0.00    +0.000 HD
BRANCH  22  24
ATOM     24  C   UNL     1      -1.104  11.287  20.634  0.00  0.00    +0.000 A 
ATOM     25  S   UNL     1      -1.805  12.657  19.921  0.00  0.00    +0.000 S 
ATOM     26  C   UNL     1      -2.185  13.339  21.439  0.00  0.00    +0.000 A 
ATOM     27  C   UNL     1      -1.703  12.567  22.474  0.00  0.00    +0.000 A 
ATOM     28  C   UNL     1      -1.086  11.360  22.009  0.00  0.00    +0.000 A 
BRANCH  28  29
ATOM     29  C   UNL     1      -0.426  10.427  22.874  0.00  0.00    +0.000 C 
ATOM     30  N   UNL     1       0.170   9.711  23.562  0.00  0.00    +0.000 NA
ENDBRANCH  28  29
ENDBRANCH  22  24
ENDBRANCH  19  20
ENDBRANCH  18  19
ENDBRANCH   4  18
TORSDOF 8
ENDMDL
MODEL 2
REMARK VINA RESULT:      -7.2      0.565      1.000
REMARK  Name = 
REMARK  11 active torsions:
REMARK  status: ('A' for Active; 'I' for Inactive)
REMARK    1  A    between atoms: C_1  and  C_2
REMARK    2  A    between atoms: C_2  and  C_3
REMARK    3  A    between atoms: C_2  and  N_27
REMARK    4  A    between atoms: C_6  and  S_7
REMARK    5  A    between atoms: S_7  and  C_8
REMARK    6  A    between atoms: C_8  and  C_9
REMARK    7  A    between atoms: N_11  and  C_12
REMARK    8  A    between atoms: C_16  and  C_17
REMARK    9  A    between atoms: N_19  and  C_20
REMARK   10  A    between atoms: N_27  and  C_28
REMARK   11  A    between atoms: N_27  and  C_29
REMARK                            x       y       z     vdW  Elec       q    Type
REMARK                         _______ _______ _______ _____ _____    ______ ____
ROOT
ATOM      1  C   UNL     1       2.499   4.980  19.552  0.00  0.00    +0.000 A 
ATOM      2  N   UNL     1       1.675   5.665  20.331  0.00  0.00    +0.000 NA
ATOM      3  N   UNL     1       1.732   6.982  19.990  0.00  0.00    +0.000 NA
ATOM      4  C   UNL     1       2.529   7.093  18.954  0.00  0.00    +0.000 A 
ATOM      5  N   UNL     1       3.102   5.862  18.637  0.00  0.00    +0.000 N 
ENDROOT
BRANCH   5   6
ATOM      6  C   UNL     1       4.149   5.582  17.699  0.00  0.00    +0.000 A 
ATOM      7  C   UNL     1       4.030   4.523  16.784  0.00  0.00    +0.000 A 
ATOM      8  C   UNL     1       4.997   4.317  15.794  0.00  0.00    +0.000 A 
ATOM      9  C   UNL     1       6.076   5.185  15.682  0.00  0.00    +0.000 A 
ATOM     10 CL   UNL     1       7.212   4.991  14.409  0.00  0.00    +0.000 Cl
ATOM     11  C   UNL     1       6.228   6.220  16.594  0.00  0.00    +0.000 A 
ATOM     12  C   UNL     1       5.288   6.394  17.613  0.00  0.00    +0.000 A 
ENDBRANCH   5   6
BRANCH   1  14
ATOM     13  C   UNL     1       1.774   2.673  18.965  0.00  0.00    +0.000 C 
ATOM     14  C   UNL     1       2.826   3.499  19.733  0.00  0.00    +0.000 C 
BRANCH  14  15
ATOM     15  N   UNL     1       2.887   3.049  21.155  0.00  0.00    +0.000 NA
ATOM     16  C   UNL     1       1.576   2.597  21.644  0.00  0.00    +0.000 C 
ATOM     17  C   UNL     1       3.838   1.951  21.344  0.00  0.00    +0.000 C 
ENDBRANCH  14  15
ENDBRANCH   1  14
BRANCH   4  18
ATOM     18  S   UNL     1       2.693   8.570  18.059  0.00  0.00    +0.000 S 
BRANCH  18  19
ATOM     19  C   UNL     1       0.980   9.168  17.981  0.00  0.00    +0.000 C 
BRANCH  19  20
ATOM     20  C   UNL     1       0.715  10.275  18.994  0.00  0.00    +0.000 C 
ATOM     21  O   UNL     1       1.533  11.167  19.211  0.00  0.00    +0.000 OA
ATOM     22  N   UNL     1      -0.492  10.140  19.657  0.00  0.00    +0.000 N 
ATOM     23  H   UNL     1      -0.855   9.199  19.803  0.00  0.00    +0.000 HD
BRANCH  22  24
ATOM     24  C   UNL     1      -0.939  11.120  20.521  0.00  0.00    +0.000 A 
ATOM     25  S   UNL     1      -1.613  12.465  19.736  0.00  0.00    +0.000 S 
ATOM     26  C   UNL     1      -1.985  13.230  21.216  0.00  0.00    +0.000 A 
ATOM     27  C   UNL     1      -1.522  12.503  22.292  0.00  0.00    +0.000 A 
ATOM     28  C   UNL     1      -0.926  11.262  21.891  0.00  0.00    +0.000 A 
BRANCH  28  29
ATOM     29  C   UNL     1      -0.286  10.362  22.804  0.00  0.00    +0.000 C 
ATOM     30  N   UNL     1       0.255   9.693  23.579  0.00  0.00    +0.000 NA
ENDBRANCH  28  29
ENDBRANCH  22  24
ENDBRANCH  19  20
ENDBRANCH  18  19
ENDBRANCH   4  18
TORSDOF 8
ENDMDL
MODEL 3
REMARK VINA RESULT:      -7.2      4.247      9.520
REMARK  Name = 
REMARK  11 active torsions:
REMARK  status: ('A' for Active; 'I' for Inactive)
REMARK    1  A    between atoms: C_1  and  C_2
REMARK    2  A    between atoms: C_2  and  C_3
REMARK    3  A    between atoms: C_2  and  N_27
REMARK    4  A    between atoms: C_6  and  S_7
REMARK    5  A    between atoms: S_7  and  C_8
REMARK    6  A    between atoms: C_8  and  C_9
REMARK    7  A    between atoms: N_11  and  C_12
REMARK    8  A    between atoms: C_16  and  C_17
REMARK    9  A    between atoms: N_19  and  C_20
REMARK   10  A    between atoms: N_27  and  C_28
REMARK   11  A    between atoms: N_27  and  C_29
REMARK                            x       y       z     vdW  Elec       q    Type
REMARK                         _______ _______ _______ _____ _____    ______ ____
ROOT
ATOM      1  C   UNL     1       1.685  13.332  19.105  0.00  0.00    +0.000 A 
ATOM      2  N   UNL     1       2.627  12.991  18.238  0.00  0.00    +0.000 NA
ATOM      3  N   UNL     1       2.535  11.656  17.983  0.00  0.00    +0.000 NA
ATOM      4  C   UNL     1       1.491  11.196  18.632  0.00  0.00    +0.000 A 
ATOM      5  N   UNL     1       0.916  12.196  19.415  0.00  0.00    +0.000 N 
ENDROOT
BRANCH   5   6
ATOM      6  C   UNL     1      -0.120  12.071  20.399  0.00  0.00    +0.000 A 
ATOM      7  C   UNL     1       0.129  11.442  21.629  0.00  0.00    +0.000 A 
ATOM      8  C   UNL     1      -0.845  11.418  22.634  0.00  0.00    +0.000 A 
ATOM      9  C   UNL     1      -2.065  12.051  22.437  0.00  0.00    +0.000 A 
ATOM     10 CL   UNL     1      -3.224  12.105  23.702  0.00  0.00    +0.000 Cl
ATOM     11  C   UNL     1      -2.343  12.653  21.217  0.00  0.00    +0.000 A 
ATOM     12  C   UNL     1      -1.388  12.632  20.197  0.00  0.00    +0.000 A 
ENDBRANCH   5   6
BRANCH   1  14
ATOM     13  C   UNL     1       0.861  15.655  18.755  0.00  0.00    +0.000 C 
ATOM     14  C   UNL     1       1.566  14.711  19.752  0.00  0.00    +0.000 C 
BRANCH  14  15
ATOM     15  N   UNL     1       2.866  15.305  20.183  0.00  0.00    +0.000 NA
ATOM     16  C   UNL     1       2.741  16.740  20.481  0.00  0.00    +0.000 C 
ATOM     17  C   UNL     1       3.404  14.646  21.375  0.00  0.00    +0.000 C 
ENDBRANCH  14  15
ENDBRANCH   1  14
BRANCH   4  18
ATOM     18  S   UNL     1       0.879   9.590  18.393  0.00  0.00    +0.000 S 
BRANCH  18  19
ATOM     19  C   UNL     1       2.350   8.699  17.809  0.00  0.00    +0.000 C 
BRANCH  19  20
ATOM     20  C   UNL     1       2.525   7.362  18.516  0.00  0.00    +0.000 C 
ATOM     21  O   UNL     1       2.222   7.206  19.698  0.00  0.00    +0.000 OA
ATOM     22  N   UNL     1       3.092   6.383  17.717  0.00  0.00    +0.000 N 
ATOM     23  H   UNL     1       3.738   6.678  16.987  0.00  0.00    +0.000 HD
BRANCH  22  24
ATOM     24  C   UNL     1       3.211   5.083  18.167  0.00  0.00    +0.000 A 
ATOM     25  S   UNL     1       1.815   4.149  17.930  0.00  0.00    +0.000 S 
ATOM     26  C   UNL     1       2.549   2.757  18.591  0.00  0.00    +0.000 A 
ATOM     27  C   UNL     1       3.815   3.030  19.065  0.00  0.00    +0.000 A 
ATOM     28  C   UNL     1       4.211   4.382  18.803  0.00  0.00    +0.000 A 
BRANCH  28  29
ATOM     29  C   UNL     1       5.442   4.949  19.270  0.00  0.00    +0.000 C 
ATOM     30  N   UNL     1       6.473   5.359  19.604  0.00  0.00    +0.000 NA
ENDBRANCH  28  29
ENDBRANCH  22  24
ENDBRANCH  19  20
ENDBRANCH  18  19
ENDBRANCH   4  18
TORSDOF 8
ENDMDL
MODEL 4
REMARK VINA RESULT:      -7.1      3.629      8.802
REMARK  Name = 
REMARK  11 active torsions:
REMARK  status: ('A' for Active; 'I' for Inactive)
REMARK    1  A    between atoms: C_1  and  C_2
REMARK    2  A    between atoms: C_2  and  C_3
REMARK    3  A    between atoms: C_2  and  N_27
REMARK    4  A    between atoms: C_6  and  S_7
REMARK    5  A    between atoms: S_7  and  C_8
REMARK    6  A    between atoms: C_8  and  C_9
REMARK    7  A    between atoms: N_11  and  C_12
REMARK    8  A    between atoms: C_16  and  C_17
REMARK    9  A    between atoms: N_19  and  C_20
REMARK   10  A    between atoms: N_27  and  C_28
REMARK   11  A    between atoms: N_27  and  C_29
REMARK                            x       y       z     vdW  Elec       q    Type
REMARK                         _______ _______ _______ _____ _____    ______ ____
ROOT
ATOM      1  C   UNL     1       0.092  13.587  20.696  0.00  0.00    +0.000 A 
ATOM      2  N   UNL     1       0.454  13.918  21.926  0.00  0.00    +0.000 NA
ATOM      3  N   UNL     1       0.062  12.938  22.786  0.00  0.00    +0.000 NA
ATOM      4  C   UNL     1      -0.470  11.972  22.075  0.00  0.00    +0.000 A 
ATOM      5  N   UNL     1      -0.534  12.327  20.728  0.00  0.00    +0.000 N 
ENDROOT
BRANCH   5   6
ATOM      6  C   UNL     1      -1.195  11.640  19.656  0.00  0.00    +0.000 A 
ATOM      7  C   UNL     1      -2.487  12.013  19.254  0.00  0.00    +0.000 A 
ATOM      8  C   UNL     1      -3.090  11.422  18.137  0.00  0.00    +0.000 A 
ATOM      9  C   UNL     1      -2.397  10.479  17.389  0.00  0.00    +0.000 A 
ATOM     10 CL   UNL     1      -3.097   9.823  15.964  0.00  0.00    +0.000 Cl
ATOM     11  C   UNL     1      -1.130  10.075  17.786  0.00  0.00    +0.000 A 
ATOM     12  C   UNL     1      -0.550  10.629  18.931  0.00  0.00    +0.000 A 
ENDBRANCH   5   6
BRANCH   1  14
ATOM     13  C   UNL     1       1.719  14.673  19.157  0.00  0.00    +0.000 C 
ATOM     14  C   UNL     1       0.220  14.504  19.481  0.00  0.00    +0.000 C 
BRANCH  14  15
ATOM     15  N   UNL     1      -0.419  15.843  19.649  0.00  0.00    +0.000 NA
ATOM     16  C   UNL     1       0.325  16.691  20.593  0.00  0.00    +0.000 C 
ATOM     17  C   UNL     1      -0.518  16.568  18.380  0.00  0.00    +0.000 C 
ENDBRANCH  14  15
ENDBRANCH   1  14
BRANCH   4  18
ATOM     18  S   UNL     1      -0.886  10.432  22.758  0.00  0.00    +0.000 S 
BRANCH  18  19
ATOM     19  C   UNL     1       0.680   9.521  22.639  0.00  0.00    +0.000 C 
BRANCH  19  20
ATOM     20  C   UNL     1       0.625   8.427  21.580  0.00  0.00    +0.000 C 
ATOM     21  O   UNL     1      -0.442   7.984  21.157  0.00  0.00    +0.000 OA
ATOM     22  N   UNL     1       1.872   7.967  21.195  0.00  0.00    +0.000 N 
ATOM     23  H   UNL     1       2.624   7.993  21.882  0.00  0.00    +0.000 HD
BRANCH  22  24
ATOM     24  C   UNL     1       2.005   7.060  20.161  0.00  0.00    +0.000 A 
ATOM     25  S   UNL     1       2.053   5.444  20.675  0.00  0.00    +0.000 S 
ATOM     26  C   UNL     1       2.169   4.866  19.073  0.00  0.00    +0.000 A 
ATOM     27  C   UNL     1       2.257   5.901  18.167  0.00  0.00    +0.000 A 
ATOM     28  C   UNL     1       2.144   7.183  18.797  0.00  0.00    +0.000 A 
BRANCH  28  29
ATOM     29  C   UNL     1       2.293   8.424  18.095  0.00  0.00    +0.000 C 
ATOM     30  N   UNL     1       2.457   9.391  17.480  0.00  0.00    +0.000 NA
ENDBRANCH  28  29
ENDBRANCH  22  24
ENDBRANCH  19  20
ENDBRANCH  18  19
ENDBRANCH   4  18
TORSDOF 8
ENDMDL
MODEL 5
REMARK VINA RESULT:      -7.1      1.366      1.985
REMARK  Name = 
REMARK  11 active torsions:
REMARK  status: ('A' for Active; 'I' for Inactive)
REMARK    1  A    between atoms: C_1  and  C_2
REMARK    2  A    between atoms: C_2  and  C_3
REMARK    3  A    between atoms: C_2  and  N_27
REMARK    4  A    between atoms: C_6  and  S_7
REMARK    5  A    between atoms: S_7  and  C_8
REMARK    6  A    between atoms: C_8  and  C_9
REMARK    7  A    between atoms: N_11  and  C_12
REMARK    8  A    between atoms: C_16  and  C_17
REMARK    9  A    between atoms: N_19  and  C_20
REMARK   10  A    between atoms: N_27  and  C_28
REMARK   11  A    between atoms: N_27  and  C_29
REMARK                            x       y       z     vdW  Elec       q    Type
REMARK                         _______ _______ _______ _____ _____    ______ ____
ROOT
ATOM      1  C   UNL     1       2.206   5.124  19.592  0.00  0.00    +0.000 A 
ATOM      2  N   UNL     1       1.520   5.837  20.472  0.00  0.00    +0.000 NA
ATOM      3  N   UNL     1       1.704   7.161  20.213  0.00  0.00    +0.000 NA
ATOM      4  C   UNL     1       2.439   7.259  19.130  0.00  0.00    +0.000 A 
ATOM      5  N   UNL     1       2.845   5.999  18.693  0.00  0.00    +0.000 N 
ENDROOT
BRANCH   5   6
ATOM      6  C   UNL     1       3.789   5.674  17.664  0.00  0.00    +0.000 A 
ATOM      7  C   UNL     1       3.957   4.348  17.236  0.00  0.00    +0.000 A 
ATOM      8  C   UNL     1       4.794   4.042  16.156  0.00  0.00    +0.000 A 
ATOM      9  C   UNL     1       5.445   5.059  15.469  0.00  0.00    +0.000 A 
ATOM     10 CL   UNL     1       6.395   4.696  14.086  0.00  0.00    +0.000 Cl
ATOM     11  C   UNL     1       5.316   6.374  15.895  0.00  0.00    +0.000 A 
ATOM     12  C   UNL     1       4.520   6.671  17.005  0.00  0.00    +0.000 A 
ENDBRANCH   5   6
BRANCH   1  14
ATOM     13  C   UNL     1       0.987   2.958  19.456  0.00  0.00    +0.000 C 
ATOM     14  C   UNL     1       2.374   3.607  19.652  0.00  0.00    +0.000 C 
BRANCH  14  15
ATOM     15  N   UNL     1       2.997   3.104  20.912  0.00  0.00    +0.000 NA
ATOM     16  C   UNL     1       2.016   2.434  21.780  0.00  0.00    +0.000 C 
ATOM     17  C   UNL     1       4.082   2.156  20.649  0.00  0.00    +0.000 C 
ENDBRANCH  14  15
ENDBRANCH   1  14
BRANCH   4  18
ATOM     18  S   UNL     1       2.712   8.770  18.322  0.00  0.00    +0.000 S 
BRANCH  18  19
ATOM     19  C   UNL     1       1.061   9.167  17.677  0.00  0.00    +0.000 C 
BRANCH  19  20
ATOM     20  C   UNL     1       0.203   9.887  18.709  0.00  0.00    +0.000 C 
ATOM     21  O   UNL     1      -0.960  10.214  18.475  0.00  0.00    +0.000 OA
ATOM     22  N   UNL     1       0.872  10.166  19.888  0.00  0.00    +0.000 N 
ATOM     23  H   UNL     1       1.878  10.326  19.840  0.00  0.00    +0.000 HD
BRANCH  22  24
ATOM     24  C   UNL     1       0.207  10.709  20.969  0.00  0.00    +0.000 A 
ATOM     25  S   UNL     1      -0.344   9.552  22.081  0.00  0.00    +0.000 S 
ATOM     26  C   UNL     1      -0.983  10.749  23.116  0.00  0.00    +0.000 A 
ATOM     27  C   UNL     1      -0.850  12.010  22.574  0.00  0.00    +0.000 A 
ATOM     28  C   UNL     1      -0.141  11.992  21.329  0.00  0.00    +0.000 A 
BRANCH  28  29
ATOM     29  C   UNL     1       0.054  13.155  20.515  0.00  0.00    +0.000 C 
ATOM     30  N   UNL     1       0.276  14.106  19.892  0.00  0.00    +0.000 NA
ENDBRANCH  28  29
ENDBRANCH  22  24
ENDBRANCH  19  20
ENDBRANCH  18  19
ENDBRANCH   4  18
TORSDOF 8
ENDMDL
MODEL 6
REMARK VINA RESULT:      -7.0      4.348      8.437
REMARK  Name = 
REMARK  11 active torsions:
REMARK  status: ('A' for Active; 'I' for Inactive)
REMARK    1  A    between atoms: C_1  and  C_2
REMARK    2  A    between atoms: C_2  and  C_3
REMARK    3  A    between atoms: C_2  and  N_27
REMARK    4  A    between atoms: C_6  and  S_7
REMARK    5  A    between atoms: S_7  and  C_8
REMARK    6  A    between atoms: C_8  and  C_9
REMARK    7  A    between atoms: N_11  and  C_12
REMARK    8  A    between atoms: C_16  and  C_17
REMARK    9  A    between atoms: N_19  and  C_20
REMARK   10  A    between atoms: N_27  and  C_28
REMARK   11  A    between atoms: N_27  and  C_29
REMARK                            x       y       z     vdW  Elec       q    Type
REMARK                         _______ _______ _______ _____ _____    ______ ____
ROOT
ATOM      1  C   UNL     1       3.125   4.079  19.850  0.00  0.00    +0.000 A 
ATOM      2  N   UNL     1       4.097   3.180  19.826  0.00  0.00    +0.000 NA
ATOM      3  N   UNL     1       5.240   3.771  19.379  0.00  0.00    +0.000 NA
ATOM      4  C   UNL     1       4.988   5.046  19.202  0.00  0.00    +0.000 A 
ATOM      5  N   UNL     1       3.641   5.321  19.436  0.00  0.00    +0.000 N 
ENDROOT
BRANCH   5   6
ATOM      6  C   UNL     1       2.924   6.538  19.188  0.00  0.00    +0.000 A 
ATOM      7  C   UNL     1       2.197   7.165  20.213  0.00  0.00    +0.000 A 
ATOM      8  C   UNL     1       1.590   8.409  20.006  0.00  0.00    +0.000 A 
ATOM      9  C   UNL     1       1.731   9.058  18.786  0.00  0.00    +0.000 A 
ATOM     10 CL   UNL     1       1.068  10.626  18.561  0.00  0.00    +0.000 Cl
ATOM     11  C   UNL     1       2.420   8.443  17.750  0.00  0.00    +0.000 A 
ATOM     12  C   UNL     1       2.982   7.178  17.943  0.00  0.00    +0.000 A 
ENDBRANCH   5   6
BRANCH   1  14
ATOM     13  C   UNL     1       1.612   2.727  21.291  0.00  0.00    +0.000 C 
ATOM     14  C   UNL     1       1.661   3.760  20.146  0.00  0.00    +0.000 C 
BRANCH  14  15
ATOM     15  N   UNL     1       0.889   3.255  18.972  0.00  0.00    +0.000 NA
ATOM     16  C   UNL     1       1.379   3.822  17.707  0.00  0.00    +0.000 C 
ATOM     17  C   UNL     1       0.950   1.795  18.861  0.00  0.00    +0.000 C 
ENDBRANCH  14  15
ENDBRANCH   1  14
BRANCH   4  18
ATOM     18  S   UNL     1       6.235   6.204  18.864  0.00  0.00    +0.000 S 
BRANCH  18  19
ATOM     19  C   UNL     1       7.291   5.303  17.693  0.00  0.00    +0.000 C 
BRANCH  19  20
ATOM     20  C   UNL     1       6.759   5.379  16.268  0.00  0.00    +0.000 C 
ATOM     21  O   UNL     1       6.132   6.355  15.859  0.00  0.00    +0.000 OA
ATOM     22  N   UNL     1       7.011   4.241  15.522  0.00  0.00    +0.000 N 
ATOM     23  H   UNL     1       7.066   3.350  16.014  0.00  0.00    +0.000 HD
BRANCH  22  24
ATOM     24  C   UNL     1       6.700   4.191  14.178  0.00  0.00    +0.000 A 
ATOM     25  S   UNL     1       5.409   3.152  13.815  0.00  0.00    +0.000 S 
ATOM     26  C   UNL     1       5.477   3.533  12.153  0.00  0.00    +0.000 A 
ATOM     27  C   UNL     1       6.529   4.378  11.871  0.00  0.00    +0.000 A 
ATOM     28  C   UNL     1       7.235   4.777  13.053  0.00  0.00    +0.000 A 
BRANCH  28  29
ATOM     29  C   UNL     1       8.423   5.580  13.030  0.00  0.00    +0.000 C 
ATOM     30  N   UNL     1       9.407   6.188  13.069  0.00  0.00    +0.000 NA
ENDBRANCH  28  29
ENDBRANCH  22  24
ENDBRANCH  19  20
ENDBRANCH  18  19
ENDBRANCH   4  18
TORSDOF 8
ENDMDL
MODEL 7
REMARK VINA RESULT:      -6.9      1.977      2.613
REMARK  Name = 
REMARK  11 active torsions:
REMARK  status: ('A' for Active; 'I' for Inactive)
REMARK    1  A    between atoms: C_1  and  C_2
REMARK    2  A    between atoms: C_2  and  C_3
REMARK    3  A    between atoms: C_2  and  N_27
REMARK    4  A    between atoms: C_6  and  S_7
REMARK    5  A    between atoms: S_7  and  C_8
REMARK    6  A    between atoms: C_8  and  C_9
REMARK    7  A    between atoms: N_11  and  C_12
REMARK    8  A    between atoms: C_16  and  C_17
REMARK    9  A    between atoms: N_19  and  C_20
REMARK   10  A    between atoms: N_27  and  C_28
REMARK   11  A    between atoms: N_27  and  C_29
REMARK                            x       y       z     vdW  Elec       q    Type
REMARK                         _______ _______ _______ _____ _____    ______ ____
ROOT
ATOM      1  C   UNL     1       2.748   5.274  19.722  0.00  0.00    +0.000 A 
ATOM      2  N   UNL     1       1.959   5.935  20.556  0.00  0.00    +0.000 NA
ATOM      3  N   UNL     1       1.786   7.204  20.094  0.00  0.00    +0.000 NA
ATOM      4  C   UNL     1       2.405   7.298  18.941  0.00  0.00    +0.000 A 
ATOM      5  N   UNL     1       3.089   6.118  18.649  0.00  0.00    +0.000 N 
ENDROOT
BRANCH   5   6
ATOM      6  C   UNL     1       4.019   5.867  17.587  0.00  0.00    +0.000 A 
ATOM      7  C   UNL     1       5.163   6.665  17.431  0.00  0.00    +0.000 A 
ATOM      8  C   UNL     1       6.130   6.355  16.467  0.00  0.00    +0.000 A 
ATOM      9  C   UNL     1       5.983   5.225  15.673  0.00  0.00    +0.000 A 
ATOM     10 CL   UNL     1       7.213   4.790  14.557  0.00  0.00    +0.000 Cl
ATOM     11  C   UNL     1       4.846   4.439  15.791  0.00  0.00    +0.000 A 
ATOM     12  C   UNL     1       3.857   4.779  16.719  0.00  0.00    +0.000 A 
ENDBRANCH   5   6
BRANCH   1  14
ATOM     13  C   UNL     1       4.824   3.901  19.758  0.00  0.00    +0.000 C 
ATOM     14  C   UNL     1       3.297   3.872  19.981  0.00  0.00    +0.000 C 
BRANCH  14  15
ATOM     15  N   UNL     1       2.681   2.802  19.141  0.00  0.00    +0.000 NA
ATOM     16  C   UNL     1       3.633   1.723  18.842  0.00  0.00    +0.000 C 
ATOM     17  C   UNL     1       1.511   2.202  19.787  0.00  0.00    +0.000 C 
ENDBRANCH  14  15
ENDBRANCH   1  14
BRANCH   4  18
ATOM     18  S   UNL     1       2.236   8.677  17.902  0.00  0.00    +0.000 S 
BRANCH  18  19
ATOM     19  C   UNL     1       1.621   9.948  19.045  0.00  0.00    +0.000 C 
BRANCH  19  20
ATOM     20  C   UNL     1       0.100  10.031  19.042  0.00  0.00    +0.000 C 
ATOM     21  O   UNL     1      -0.579   9.564  19.956  0.00  0.00    +0.000 OA
ATOM     22  N   UNL     1      -0.419  10.629  17.907  0.00  0.00    +0.000 N 
ATOM     23  H   UNL     1       0.102  10.534  17.036  0.00  0.00    +0.000 HD
BRANCH  22  24
ATOM     24  C   UNL     1      -1.771  10.888  17.798  0.00  0.00    +0.000 A 
ATOM     25  S   UNL     1      -2.502  10.144  16.459  0.00  0.00    +0.000 S 
ATOM     26  C   UNL     1      -4.041  10.756  16.871  0.00  0.00    +0.000 A 
ATOM     27  C   UNL     1      -3.977  11.588  17.969  0.00  0.00    +0.000 A 
ATOM     28  C   UNL     1      -2.657  11.654  18.523  0.00  0.00    +0.000 A 
BRANCH  28  29
ATOM     29  C   UNL     1      -2.299  12.515  19.611  0.00  0.00    +0.000 C 
ATOM     30  N   UNL     1      -2.008  13.151  20.534  0.00  0.00    +0.000 NA
ENDBRANCH  28  29
ENDBRANCH  22  24
ENDBRANCH  19  20
ENDBRANCH  18  19
ENDBRANCH   4  18
TORSDOF 8
ENDMDL
MODEL 8
REMARK VINA RESULT:      -6.9      8.229     11.206
REMARK  Name = 
REMARK  11 active torsions:
REMARK  status: ('A' for Active; 'I' for Inactive)
REMARK    1  A    between atoms: C_1  and  C_2
REMARK    2  A    between atoms: C_2  and  C_3
REMARK    3  A    between atoms: C_2  and  N_27
REMARK    4  A    between atoms: C_6  and  S_7
REMARK    5  A    between atoms: S_7  and  C_8
REMARK    6  A    between atoms: C_8  and  C_9
REMARK    7  A    between atoms: N_11  and  C_12
REMARK    8  A    between atoms: C_16  and  C_17
REMARK    9  A    between atoms: N_19  and  C_20
REMARK   10  A    between atoms: N_27  and  C_28
REMARK   11  A    between atoms: N_27  and  C_29
REMARK                            x       y       z     vdW  Elec       q    Type
REMARK                         _______ _______ _______ _____ _____    ______ ____
ROOT
ATOM      1  C   UNL     1      10.157  13.724  18.384  0.00  0.00    +0.000 A 
ATOM      2  N   UNL     1      10.711  13.057  17.382  0.00  0.00    +0.000 NA
ATOM      3  N   UNL     1      10.537  11.722  17.586  0.00  0.00    +0.000 NA
ATOM      4  C   UNL     1       9.812  11.573  18.669  0.00  0.00    +0.000 A 
ATOM      5  N   UNL     1       9.565  12.806  19.271  0.00  0.00    +0.000 N 
ENDROOT
BRANCH   5   6
ATOM      6  C   UNL     1       8.969  13.070  20.549  0.00  0.00    +0.000 A 
ATOM      7  C   UNL     1       7.863  13.927  20.662  0.00  0.00    +0.000 A 
ATOM      8  C   UNL     1       7.210  14.099  21.888  0.00  0.00    +0.000 A 
ATOM      9  C   UNL     1       7.631  13.392  23.007  0.00  0.00    +0.000 A 
ATOM     10 CL   UNL     1       6.774  13.528  24.488  0.00  0.00    +0.000 Cl
ATOM     11  C   UNL     1       8.741  12.562  22.923  0.00  0.00    +0.000 A 
ATOM     12  C   UNL     1       9.423  12.431  21.710  0.00  0.00    +0.000 A 
ENDBRANCH   5   6
BRANCH   1  14
ATOM     13  C   UNL     1       9.190  15.926  17.748  0.00  0.00    +0.000 C 
ATOM     14  C   UNL     1      10.280  15.232  18.590  0.00  0.00    +0.000 C 
BRANCH  14  15
ATOM     15  N   UNL     1      11.621  15.794  18.250  0.00  0.00    +0.000 NA
ATOM     16  C   UNL     1      11.522  16.913  17.300  0.00  0.00    +0.000 C 
ATOM     17  C   UNL     1      12.332  16.276  19.436  0.00  0.00    +0.000 C 
ENDBRANCH  14  15
ENDBRANCH   1  14
BRANCH   4  18
ATOM     18  S   UNL     1       9.163  10.038  19.153  0.00  0.00    +0.000 S 
BRANCH  18  19
ATOM     19  C   UNL     1       8.265   9.512  17.665  0.00  0.00    +0.000 C 
BRANCH  19  20
ATOM     20  C   UNL     1       7.753   8.082  17.783  0.00  0.00    +0.000 C 
ATOM     21  O   UNL     1       8.186   7.304  18.631  0.00  0.00    +0.000 OA
ATOM     22  N   UNL     1       6.807   7.753  16.827  0.00  0.00    +0.000 N 
ATOM     23  H   UNL     1       6.862   8.216  15.921  0.00  0.00    +0.000 HD
BRANCH  22  24
ATOM     24  C   UNL     1       6.155   6.537  16.865  0.00  0.00    +0.000 A 
ATOM     25  S   UNL     1       7.071   5.253  16.240  0.00  0.00    +0.000 S 
ATOM     26  C   UNL     1       5.842   4.118  16.581  0.00  0.00    +0.000 A 
ATOM     27  C   UNL     1       4.715   4.730  17.086  0.00  0.00    +0.000 A 
ATOM     28  C   UNL     1       4.900   6.139  17.269  0.00  0.00    +0.000 A 
BRANCH  28  29
ATOM     29  C   UNL     1       3.856   7.024  17.696  0.00  0.00    +0.000 C 
ATOM     30  N   UNL     1       2.964   7.689  18.017  0.00  0.00    +0.000 NA
ENDBRANCH  28  29
ENDBRANCH  22  24
ENDBRANCH  19  20
ENDBRANCH  18  19
ENDBRANCH   4  18
TORSDOF 8
ENDMDL
MODEL 9
REMARK VINA RESULT:      -6.9      4.358      6.779
REMARK  Name = 
REMARK  11 active torsions:
REMARK  status: ('A' for Active; 'I' for Inactive)
REMARK    1  A    between atoms: C_1  and  C_2
REMARK    2  A    between atoms: C_2  and  C_3
REMARK    3  A    between atoms: C_2  and  N_27
REMARK    4  A    between atoms: C_6  and  S_7
REMARK    5  A    between atoms: S_7  and  C_8
REMARK    6  A    between atoms: C_8  and  C_9
REMARK    7  A    between atoms: N_11  and  C_12
REMARK    8  A    between atoms: C_16  and  C_17
REMARK    9  A    between atoms: N_19  and  C_20
REMARK   10  A    between atoms: N_27  and  C_28
REMARK   11  A    between atoms: N_27  and  C_29
REMARK                            x       y       z     vdW  Elec       q    Type
REMARK                         _______ _______ _______ _____ _____    ______ ____
ROOT
ATOM      1  C   UNL     1       0.273  12.386  19.567  0.00  0.00    +0.000 A 
ATOM      2  N   UNL     1      -0.675  13.215  19.154  0.00  0.00    +0.000 NA
ATOM      3  N   UNL     1      -1.508  12.552  18.305  0.00  0.00    +0.000 NA
ATOM      4  C   UNL     1      -1.118  11.300  18.259  0.00  0.00    +0.000 A 
ATOM      5  N   UNL     1       0.047  11.117  19.003  0.00  0.00    +0.000 N 
ENDROOT
BRANCH   5   6
ATOM      6  C   UNL     1       0.888   9.958  19.071  0.00  0.00    +0.000 A 
ATOM      7  C   UNL     1       0.920   9.161  20.227  0.00  0.00    +0.000 A 
ATOM      8  C   UNL     1       1.652   7.968  20.257  0.00  0.00    +0.000 A 
ATOM      9  C   UNL     1       2.331   7.539  19.124  0.00  0.00    +0.000 A 
ATOM     10 CL   UNL     1       3.150   6.030  19.129  0.00  0.00    +0.000 Cl
ATOM     11  C   UNL     1       2.336   8.326  17.981  0.00  0.00    +0.000 A 
ATOM     12  C   UNL     1       1.647   9.542  17.969  0.00  0.00    +0.000 A 
ENDBRANCH   5   6
BRANCH   1  14
ATOM     13  C   UNL     1       1.056  13.978  21.312  0.00  0.00    +0.000 C 
ATOM     14  C   UNL     1       1.479  12.804  20.405  0.00  0.00    +0.000 C 
BRANCH  14  15
ATOM     15  N   UNL     1       2.683  13.185  19.609  0.00  0.00    +0.000 NA
ATOM     16  C   UNL     1       2.359  13.394  18.190  0.00  0.00    +0.000 C 
ATOM     17  C   UNL     1       3.309  14.411  20.110  0.00  0.00    +0.000 C 
ENDBRANCH  14  15
ENDBRANCH   1  14
BRANCH   4  18
ATOM     18  S   UNL     1      -2.049  10.062  17.478  0.00  0.00    +0.000 S 
BRANCH  18  19
ATOM     19  C   UNL     1      -3.502  10.982  16.893  0.00  0.00    +0.000 C 
BRANCH  19  20
ATOM     20  C   UNL     1      -4.525  11.198  18.001  0.00  0.00    +0.000 C 
ATOM     21  O   UNL     1      -5.274  10.299  18.380  0.00  0.00    +0.000 OA
ATOM     22  N   UNL     1      -4.549  12.494  18.486  0.00  0.00    +0.000 N 
ATOM     23  H   UNL     1      -4.303  13.248  17.846  0.00  0.00    +0.000 HD
BRANCH  22  24
ATOM     24  C   UNL     1      -5.335  12.831  19.570  0.00  0.00    +0.000 A 
ATOM     25  S   UNL     1      -6.898  13.340  19.148  0.00  0.00    +0.000 S 
ATOM     26  C   UNL     1      -7.346  13.549  20.781  0.00  0.00    +0.000 A 
ATOM     27  C   UNL     1      -6.286  13.314  21.631  0.00  0.00    +0.000 A 
ATOM     28  C   UNL     1      -5.115  12.879  20.929  0.00  0.00    +0.000 A 
BRANCH  28  29
ATOM     29  C   UNL     1      -3.851  12.654  21.565  0.00  0.00    +0.000 C 
ATOM     30  N   UNL     1      -2.839  12.535  22.116  0.00  0.00    +0.000 NA
ENDBRANCH  28  29
ENDBRANCH  22  24
ENDBRANCH  19  20
ENDBRANCH  18  19
ENDBRANCH   4  18
TORSDOF 8
ENDMDL
