MODEL 1
REMARK VINA RESULT:      -7.5      0.000      0.000
REMARK  Name = 
REMARK  9 active torsions:
REMARK  status: ('A' for Active; 'I' for Inactive)
REMARK    1  A    between atoms: C_1  and  C_2
REMARK    2  A    between atoms: C_2  and  O_3
REMARK    3  A    between atoms: O_3  and  C_4
REMARK    4  A    between atoms: C_4  and  C_6
REMARK    5  A    between atoms: C_14  and  C_16
REMARK    6  A    between atoms: C_16  and  C_17
REMARK    7  A    between atoms: C_17  and  N_18
REMARK    8  A    between atoms: C_17  and  C_19
REMARK    9  A    between atoms: C_19  and  C_20
REMARK                            x       y       z     vdW  Elec       q    Type
REMARK                         _______ _______ _______ _____ _____    ______ ____
ROOT
ATOM      1  C   UNL     1       7.077   4.768  16.198  0.00  0.00    +0.000 A 
ATOM      2  N   UNL     1       7.919   4.234  17.066  0.00  0.00    +0.000 NA
ATOM      3  N   UNL     1       7.394   4.387  18.334  0.00  0.00    +0.000 NA
ATOM      4  C   UNL     1       6.241   5.009  18.223  0.00  0.00    +0.000 A 
ATOM      5  N   UNL     1       6.033   5.299  16.903  0.00  0.00    +0.000 N 
ATOM      6  C   UNL     1       4.856   5.977  16.415  0.00  0.00    +0.000 C 
ATOM      7  C   UNL     1       4.211   6.802  17.529  0.00  0.00    +0.000 C 
ATOM      8  N   UNL     1       4.059   6.016  18.762  0.00  0.00    +0.000 N 
ATOM      9  C   UNL     1       2.954   6.079  19.619  0.00  0.00    +0.000 C 
ATOM     10  O   UNL     1       2.901   5.400  20.639  0.00  0.00    +0.000 OA
ATOM     11  C   UNL     1       5.287   5.400  19.301  0.00  0.00    +0.000 C 
ENDROOT
BRANCH   1  12
ATOM     12  C   UNL     1       7.207   4.724  14.761  0.00  0.00    +0.000 C 
ATOM     13  O   UNL     1       7.794   5.567  14.090  0.00  0.00    +0.000 OA
BRANCH  12  14
ATOM     14  O   UNL     1       6.514   3.671  14.243  0.00  0.00    +0.000 OA
BRANCH  14  16
ATOM     15  C   UNL     1       5.818   3.062  12.036  0.00  0.00    +0.000 C 
ATOM     16  C   UNL     1       5.580   4.000  13.207  0.00  0.00    +0.000 C 
ENDBRANCH  14  16
ENDBRANCH  12  14
ENDBRANCH   1  12
BRANCH   9  17
ATOM     17  C   UNL     1       1.816   7.013  19.219  0.00  0.00    +0.000 C 
BRANCH  17  18
ATOM     18  C   UNL     1       1.748   8.346  19.997  0.00  0.00    +0.000 C 
BRANCH  18  19
ATOM     19  N   UNL     1       1.660   8.064  21.448  0.00  0.00    +0.000 NA
ATOM     20  H   UNL     1       1.713   7.070  21.649  0.00  0.00    +0.000 HD
ATOM     21  H   UNL     1       2.430   8.515  21.937  0.00  0.00    +0.000 HD
ENDBRANCH  18  19
BRANCH  18  22
ATOM     22  C   UNL     1       0.597   9.312  19.606  0.00  0.00    +0.000 C 
BRANCH  22  23
ATOM     23  C   UNL     1       0.965  10.774  19.670  0.00  0.00    +0.000 A 
ATOM     24  C   UNL     1       1.633  11.395  18.599  0.00  0.00    +0.000 A 
ATOM     25  C   UNL     1       2.060  12.713  18.715  0.00  0.00    +0.000 A 
ATOM     26  F   UNL     1       2.734  13.280  17.708  0.00  0.00    +0.000 F 
ATOM     27  C   UNL     1       1.820  13.445  19.872  0.00  0.00    +0.000 A 
ATOM     28  C   UNL     1       1.123  12.851  20.924  0.00  0.00    +0.000 A 
ATOM     29  C   UNL     1       0.700  11.531  20.814  0.00  0.00    +0.000 A 
ATOM     30  F   UNL     1       0.067  10.972  21.855  0.00  0.00    +0.000 F 
ENDBRANCH  22  23
ENDBRANCH  18  22
ENDBRANCH  17  18
ENDBRANCH   9  17
TORSDOF 8
ENDMDL
MODEL 2
REMARK VINA RESULT:      -7.3      3.822      8.311
REMARK  Name = 
REMARK  9 active torsions:
REMARK  status: ('A' for Active; 'I' for Inactive)
REMARK    1  A    between atoms: C_1  and  C_2
REMARK    2  A    between atoms: C_2  and  O_3
REMARK    3  A    between atoms: O_3  and  C_4
REMARK    4  A    between atoms: C_4  and  C_6
REMARK    5  A    between atoms: C_14  and  C_16
REMARK    6  A    between atoms: C_16  and  C_17
REMARK    7  A    between atoms: C_17  and  N_18
REMARK    8  A    between atoms: C_17  and  C_19
REMARK    9  A    between atoms: C_19  and  C_20
REMARK                            x       y       z     vdW  Elec       q    Type
REMARK                         _______ _______ _______ _____ _____    ______ ____
ROOT
ATOM      1  C   UNL     1       0.585   9.867  19.583  0.00  0.00    +0.000 A 
ATOM      2  N   UNL     1       0.338   9.685  20.869  0.00  0.00    +0.000 NA
ATOM      3  N   UNL     1       1.026   8.565  21.292  0.00  0.00    +0.000 NA
ATOM      4  C   UNL     1       1.685   8.081  20.261  0.00  0.00    +0.000 A 
ATOM      5  N   UNL     1       1.398   8.849  19.167  0.00  0.00    +0.000 N 
ATOM      6  C   UNL     1       1.956   8.606  17.858  0.00  0.00    +0.000 C 
ATOM      7  C   UNL     1       2.394   7.147  17.723  0.00  0.00    +0.000 C 
ATOM      8  N   UNL     1       3.197   6.718  18.877  0.00  0.00    +0.000 N 
ATOM      9  C   UNL     1       4.317   5.882  18.803  0.00  0.00    +0.000 C 
ATOM     10  O   UNL     1       4.934   5.555  19.812  0.00  0.00    +0.000 OA
ATOM     11  C   UNL     1       2.578   6.888  20.205  0.00  0.00    +0.000 C 
ENDROOT
BRANCH   1  12
ATOM     12  C   UNL     1       0.138  10.987  18.789  0.00  0.00    +0.000 C 
ATOM     13  O   UNL     1       0.660  12.097  18.797  0.00  0.00    +0.000 OA
BRANCH  12  14
ATOM     14  O   UNL     1      -0.993  10.671  18.099  0.00  0.00    +0.000 OA
BRANCH  14  16
ATOM     15  C   UNL     1      -3.160  11.606  18.499  0.00  0.00    +0.000 C 
ATOM     16  C   UNL     1      -1.840  11.779  17.767  0.00  0.00    +0.000 C 
ENDBRANCH  14  16
ENDBRANCH  12  14
ENDBRANCH   1  12
BRANCH   9  17
ATOM     17  C   UNL     1       4.746   5.413  17.416  0.00  0.00    +0.000 C 
BRANCH  17  18
ATOM     18  C   UNL     1       4.891   3.884  17.249  0.00  0.00    +0.000 C 
BRANCH  18  19
ATOM     19  N   UNL     1       5.646   3.596  16.008  0.00  0.00    +0.000 NA
ATOM     20  H   UNL     1       5.824   4.435  15.464  0.00  0.00    +0.000 HD
ATOM     21  H   UNL     1       6.550   3.186  16.238  0.00  0.00    +0.000 HD
ENDBRANCH  18  19
BRANCH  18  22
ATOM     22  C   UNL     1       3.572   3.065  17.230  0.00  0.00    +0.000 C 
BRANCH  22  23
ATOM     23  C   UNL     1       2.788   3.121  18.518  0.00  0.00    +0.000 A 
ATOM     24  C   UNL     1       3.328   2.606  19.711  0.00  0.00    +0.000 A 
ATOM     25  C   UNL     1       2.554   2.568  20.865  0.00  0.00    +0.000 A 
ATOM     26  F   UNL     1       3.062   2.034  21.983  0.00  0.00    +0.000 F 
ATOM     27  C   UNL     1       1.251   3.052  20.871  0.00  0.00    +0.000 A 
ATOM     28  C   UNL     1       0.721   3.601  19.704  0.00  0.00    +0.000 A 
ATOM     29  C   UNL     1       1.490   3.636  18.546  0.00  0.00    +0.000 A 
ATOM     30  F   UNL     1       0.942   4.134  17.428  0.00  0.00    +0.000 F 
ENDBRANCH  22  23
ENDBRANCH  18  22
ENDBRANCH  17  18
ENDBRANCH   9  17
TORSDOF 8
ENDMDL
MODEL 3
REMARK VINA RESULT:      -7.1      4.038      8.647
REMARK  Name = 
REMARK  9 active torsions:
REMARK  status: ('A' for Active; 'I' for Inactive)
REMARK    1  A    between atoms: C_1  and  C_2
REMARK    2  A    between atoms: C_2  and  O_3
REMARK    3  A    between atoms: O_3  and  C_4
REMARK    4  A    between atoms: C_4  and  C_6
REMARK    5  A    between atoms: C_14  and  C_16
REMARK    6  A    between atoms: C_16  and  C_17
REMARK    7  A    between atoms: C_17  and  N_18
REMARK    8  A    between atoms: C_17  and  C_19
REMARK    9  A    between atoms: C_19  and  C_20
REMARK                            x       y       z     vdW  Elec       q    Type
REMARK                         _______ _______ _______ _____ _____    ______ ____
ROOT
ATOM      1  C   UNL     1       0.798  11.576  20.656  0.00  0.00    +0.000 A 
ATOM      2  N   UNL     1       0.453  11.388  21.918  0.00  0.00    +0.000 NA
ATOM      3  N   UNL     1       0.604  10.049  22.217  0.00  0.00    +0.000 NA
ATOM      4  C   UNL     1       1.041   9.439  21.137  0.00  0.00    +0.000 A 
ATOM      5  N   UNL     1       1.133  10.359  20.130  0.00  0.00    +0.000 N 
ATOM      6  C   UNL     1       1.588  10.037  18.799  0.00  0.00    +0.000 C 
ATOM      7  C   UNL     1       1.391   8.548  18.509  0.00  0.00    +0.000 C 
ATOM      8  N   UNL     1       1.905   7.715  19.606  0.00  0.00    +0.000 N 
ATOM      9  C   UNL     1       2.584   6.502  19.437  0.00  0.00    +0.000 C 
ATOM     10  O   UNL     1       2.976   5.853  20.401  0.00  0.00    +0.000 OA
ATOM     11  C   UNL     1       1.366   7.995  20.950  0.00  0.00    +0.000 C 
ENDROOT
BRANCH   1  12
ATOM     12  C   UNL     1       0.880  12.852  19.985  0.00  0.00    +0.000 C 
ATOM     13  O   UNL     1       1.899  13.529  19.900  0.00  0.00    +0.000 OA
BRANCH  12  14
ATOM     14  O   UNL     1      -0.346  13.245  19.540  0.00  0.00    +0.000 OA
BRANCH  14  16
ATOM     15  C   UNL     1      -1.695  11.955  18.040  0.00  0.00    +0.000 C 
ATOM     16  C   UNL     1      -0.601  13.004  18.149  0.00  0.00    +0.000 C 
ENDBRANCH  14  16
ENDBRANCH  12  14
ENDBRANCH   1  12
BRANCH   9  17
ATOM     17  C   UNL     1       2.830   6.036  18.005  0.00  0.00    +0.000 C 
BRANCH  17  18
ATOM     18  C   UNL     1       2.365   4.598  17.687  0.00  0.00    +0.000 C 
BRANCH  18  19
ATOM     19  N   UNL     1       1.354   4.178  18.685  0.00  0.00    +0.000 NA
ATOM     20  H   UNL     1       1.494   3.220  18.992  0.00  0.00    +0.000 HD
ATOM     21  H   UNL     1       1.411   4.773  19.509  0.00  0.00    +0.000 HD
ENDBRANCH  18  19
BRANCH  18  22
ATOM     22  C   UNL     1       3.476   3.516  17.617  0.00  0.00    +0.000 C 
BRANCH  22  23
ATOM     23  C   UNL     1       4.830   4.042  17.209  0.00  0.00    +0.000 A 
ATOM     24  C   UNL     1       5.174   4.164  15.850  0.00  0.00    +0.000 A 
ATOM     25  C   UNL     1       6.460   4.549  15.490  0.00  0.00    +0.000 A 
ATOM     26  F   UNL     1       6.790   4.619  14.195  0.00  0.00    +0.000 F 
ATOM     27  C   UNL     1       7.418   4.838  16.454  0.00  0.00    +0.000 A 
ATOM     28  C   UNL     1       7.075   4.758  17.803  0.00  0.00    +0.000 A 
ATOM     29  C   UNL     1       5.791   4.368  18.168  0.00  0.00    +0.000 A 
ATOM     30  F   UNL     1       5.500   4.262  19.473  0.00  0.00    +0.000 F 
ENDBRANCH  22  23
ENDBRANCH  18  22
ENDBRANCH  17  18
ENDBRANCH   9  17
TORSDOF 8
ENDMDL
MODEL 4
REMARK VINA RESULT:      -7.1      3.687      8.276
REMARK  Name = 
REMARK  9 active torsions:
REMARK  status: ('A' for Active; 'I' for Inactive)
REMARK    1  A    between atoms: C_1  and  C_2
REMARK    2  A    between atoms: C_2  and  O_3
REMARK    3  A    between atoms: O_3  and  C_4
REMARK    4  A    between atoms: C_4  and  C_6
REMARK    5  A    between atoms: C_14  and  C_16
REMARK    6  A    between atoms: C_16  and  C_17
REMARK    7  A    between atoms: C_17  and  N_18
REMARK    8  A    between atoms: C_17  and  C_19
REMARK    9  A    between atoms: C_19  and  C_20
REMARK                            x       y       z     vdW  Elec       q    Type
REMARK                         _______ _______ _______ _____ _____    ______ ____
ROOT
ATOM      1  C   UNL     1       0.424  10.051  19.776  0.00  0.00    +0.000 A 
ATOM      2  N   UNL     1       0.209   9.821  21.061  0.00  0.00    +0.000 NA
ATOM      3  N   UNL     1       0.900   8.682  21.422  0.00  0.00    +0.000 NA
ATOM      4  C   UNL     1       1.528   8.233  20.357  0.00  0.00    +0.000 A 
ATOM      5  N   UNL     1       1.218   9.044  19.300  0.00  0.00    +0.000 N 
ATOM      6  C   UNL     1       1.741   8.848  17.969  0.00  0.00    +0.000 C 
ATOM      7  C   UNL     1       2.163   7.393  17.767  0.00  0.00    +0.000 C 
ATOM      8  N   UNL     1       2.993   6.914  18.882  0.00  0.00    +0.000 N 
ATOM      9  C   UNL     1       4.105   6.074  18.747  0.00  0.00    +0.000 C 
ATOM     10  O   UNL     1       4.745   5.704  19.725  0.00  0.00    +0.000 OA
ATOM     11  C   UNL     1       2.411   7.038  20.232  0.00  0.00    +0.000 C 
ENDROOT
BRANCH   1  12
ATOM     12  C   UNL     1      -0.035  11.203  19.037  0.00  0.00    +0.000 C 
ATOM     13  O   UNL     1      -0.767  11.152  18.055  0.00  0.00    +0.000 OA
BRANCH  12  14
ATOM     14  O   UNL     1       0.528  12.345  19.522  0.00  0.00    +0.000 OA
BRANCH  14  16
ATOM     15  C   UNL     1       2.194  13.260  18.068  0.00  0.00    +0.000 C 
ATOM     16  C   UNL     1       1.945  12.461  19.335  0.00  0.00    +0.000 C 
ENDBRANCH  14  16
ENDBRANCH  12  14
ENDBRANCH   1  12
BRANCH   9  17
ATOM     17  C   UNL     1       4.493   5.656  17.332  0.00  0.00    +0.000 C 
BRANCH  17  18
ATOM     18  C   UNL     1       4.779   4.150  17.141  0.00  0.00    +0.000 C 
BRANCH  18  19
ATOM     19  N   UNL     1       5.505   3.947  15.865  0.00  0.00    +0.000 NA
ATOM     20  H   UNL     1       5.165   4.559  15.130  0.00  0.00    +0.000 HD
ATOM     21  H   UNL     1       6.495   4.146  15.994  0.00  0.00    +0.000 HD
ENDBRANCH  18  19
BRANCH  18  22
ATOM     22  C   UNL     1       3.547   3.206  17.168  0.00  0.00    +0.000 C 
BRANCH  22  23
ATOM     23  C   UNL     1       2.785   3.218  18.471  0.00  0.00    +0.000 A 
ATOM     24  C   UNL     1       3.354   2.681  19.641  0.00  0.00    +0.000 A 
ATOM     25  C   UNL     1       2.602   2.603  20.807  0.00  0.00    +0.000 A 
ATOM     26  F   UNL     1       3.137   2.049  21.902  0.00  0.00    +0.000 F 
ATOM     27  C   UNL     1       1.292   3.066  20.848  0.00  0.00    +0.000 A 
ATOM     28  C   UNL     1       0.733   3.637  19.705  0.00  0.00    +0.000 A 
ATOM     29  C   UNL     1       1.481   3.712  18.535  0.00  0.00    +0.000 A 
ATOM     30  F   UNL     1       0.905   4.230  17.440  0.00  0.00    +0.000 F 
ENDBRANCH  22  23
ENDBRANCH  18  22
ENDBRANCH  17  18
ENDBRANCH   9  17
TORSDOF 8
ENDMDL
MODEL 5
REMARK VINA RESULT:      -7.1      1.713      2.201
REMARK  Name = 
REMARK  9 active torsions:
REMARK  status: ('A' for Active; 'I' for Inactive)
REMARK    1  A    between atoms: C_1  and  C_2
REMARK    2  A    between atoms: C_2  and  O_3
REMARK    3  A    between atoms: O_3  and  C_4
REMARK    4  A    between atoms: C_4  and  C_6
REMARK    5  A    between atoms: C_14  and  C_16
REMARK    6  A    between atoms: C_16  and  C_17
REMARK    7  A    between atoms: C_17  and  N_18
REMARK    8  A    between atoms: C_17  and  C_19
REMARK    9  A    between atoms: C_19  and  C_20
REMARK                            x       y       z     vdW  Elec       q    Type
REMARK                         _______ _______ _______ _____ _____    ______ ____
ROOT
ATOM      1  C   UNL     1       7.067   4.843  16.061  0.00  0.00    +0.000 A 
ATOM      2  N   UNL     1       7.833   4.276  16.977  0.00  0.00    +0.000 NA
ATOM      3  N   UNL     1       7.252   4.469  18.213  0.00  0.00    +0.000 NA
ATOM      4  C   UNL     1       6.139   5.148  18.036  0.00  0.00    +0.000 A 
ATOM      5  N   UNL     1       6.015   5.434  16.705  0.00  0.00    +0.000 N 
ATOM      6  C   UNL     1       4.902   6.166  16.150  0.00  0.00    +0.000 C 
ATOM      7  C   UNL     1       4.242   7.035  17.221  0.00  0.00    +0.000 C 
ATOM      8  N   UNL     1       3.986   6.270  18.450  0.00  0.00    +0.000 N 
ATOM      9  C   UNL     1       2.842   6.398  19.247  0.00  0.00    +0.000 C 
ATOM     10  O   UNL     1       2.700   5.733  20.268  0.00  0.00    +0.000 OA
ATOM     11  C   UNL     1       5.151   5.598  19.059  0.00  0.00    +0.000 C 
ENDROOT
BRANCH   1  12
ATOM     12  C   UNL     1       7.270   4.777  14.633  0.00  0.00    +0.000 C 
ATOM     13  O   UNL     1       8.038   5.500  14.006  0.00  0.00    +0.000 OA
BRANCH  12  14
ATOM     14  O   UNL     1       6.429   3.868  14.065  0.00  0.00    +0.000 OA
BRANCH  14  16
ATOM     15  C   UNL     1       5.273   3.370  12.029  0.00  0.00    +0.000 C 
ATOM     16  C   UNL     1       6.627   3.639  12.663  0.00  0.00    +0.000 C 
ENDBRANCH  14  16
ENDBRANCH  12  14
ENDBRANCH   1  12
BRANCH   9  17
ATOM     17  C   UNL     1       1.776   7.384  18.780  0.00  0.00    +0.000 C 
BRANCH  17  18
ATOM     18  C   UNL     1       1.812   8.771  19.460  0.00  0.00    +0.000 C 
BRANCH  18  19
ATOM     19  N   UNL     1       0.804   8.811  20.545  0.00  0.00    +0.000 NA
ATOM     20  H   UNL     1       0.489   9.756  20.741  0.00  0.00    +0.000 HD
ATOM     21  H   UNL     1      -0.014   8.266  20.279  0.00  0.00    +0.000 HD
ENDBRANCH  18  19
BRANCH  18  22
ATOM     22  C   UNL     1       1.594   9.997  18.533  0.00  0.00    +0.000 C 
BRANCH  22  23
ATOM     23  C   UNL     1       0.229  10.629  18.649  0.00  0.00    +0.000 A 
ATOM     24  C   UNL     1       0.016  11.730  19.499  0.00  0.00    +0.000 A 
ATOM     25  C   UNL     1      -1.267  12.234  19.677  0.00  0.00    +0.000 A 
ATOM     26  F   UNL     1      -1.465  13.252  20.522  0.00  0.00    +0.000 F 
ATOM     27  C   UNL     1      -2.354  11.680  19.010  0.00  0.00    +0.000 A 
ATOM     28  C   UNL     1      -2.147  10.614  18.135  0.00  0.00    +0.000 A 
ATOM     29  C   UNL     1      -0.866  10.103  17.959  0.00  0.00    +0.000 A 
ATOM     30  F   UNL     1      -0.701   9.053  17.142  0.00  0.00    +0.000 F 
ENDBRANCH  22  23
ENDBRANCH  18  22
ENDBRANCH  17  18
ENDBRANCH   9  17
TORSDOF 8
ENDMDL
MODEL 6
REMARK VINA RESULT:      -7.0      4.022      8.582
REMARK  Name = 
REMARK  9 active torsions:
REMARK  status: ('A' for Active; 'I' for Inactive)
REMARK    1  A    between atoms: C_1  and  C_2
REMARK    2  A    between atoms: C_2  and  O_3
REMARK    3  A    between atoms: O_3  and  C_4
REMARK    4  A    between atoms: C_4  and  C_6
REMARK    5  A    between atoms: C_14  and  C_16
REMARK    6  A    between atoms: C_16  and  C_17
REMARK    7  A    between atoms: C_17  and  N_18
REMARK    8  A    between atoms: C_17  and  C_19
REMARK    9  A    between atoms: C_19  and  C_20
REMARK                            x       y       z     vdW  Elec       q    Type
REMARK                         _______ _______ _______ _____ _____    ______ ____
ROOT
ATOM      1  C   UNL     1       0.859  11.877  20.145  0.00  0.00    +0.000 A 
ATOM      2  N   UNL     1       0.509  11.791  21.417  0.00  0.00    +0.000 NA
ATOM      3  N   UNL     1       0.651  10.479  21.822  0.00  0.00    +0.000 NA
ATOM      4  C   UNL     1       1.087   9.783  20.795  0.00  0.00    +0.000 A 
ATOM      5  N   UNL     1       1.188  10.620  19.718  0.00  0.00    +0.000 N 
ATOM      6  C   UNL     1       1.644  10.190  18.418  0.00  0.00    +0.000 C 
ATOM      7  C   UNL     1       1.438   8.684  18.247  0.00  0.00    +0.000 C 
ATOM      8  N   UNL     1       1.944   7.937  19.408  0.00  0.00    +0.000 N 
ATOM      9  C   UNL     1       2.616   6.711  19.338  0.00  0.00    +0.000 C 
ATOM     10  O   UNL     1       3.001   6.138  20.352  0.00  0.00    +0.000 OA
ATOM     11  C   UNL     1       1.403   8.327  20.724  0.00  0.00    +0.000 C 
ENDROOT
BRANCH   1  12
ATOM     12  C   UNL     1       0.951  13.095  19.376  0.00  0.00    +0.000 C 
ATOM     13  O   UNL     1       0.035  13.568  18.711  0.00  0.00    +0.000 OA
BRANCH  12  14
ATOM     14  O   UNL     1       2.216  13.599  19.414  0.00  0.00    +0.000 OA
BRANCH  14  16
ATOM     15  C   UNL     1       3.817  14.891  18.192  0.00  0.00    +0.000 C 
ATOM     16  C   UNL     1       2.877  13.699  18.146  0.00  0.00    +0.000 C 
ENDBRANCH  14  16
ENDBRANCH  12  14
ENDBRANCH   1  12
BRANCH   9  17
ATOM     17  C   UNL     1       2.862   6.131  17.949  0.00  0.00    +0.000 C 
BRANCH  17  18
ATOM     18  C   UNL     1       2.263   4.729  17.699  0.00  0.00    +0.000 C 
BRANCH  18  19
ATOM     19  N   UNL     1       1.442   4.333  18.866  0.00  0.00    +0.000 NA
ATOM     20  H   UNL     1       0.563   4.839  18.907  0.00  0.00    +0.000 HD
ATOM     21  H   UNL     1       1.219   3.340  18.813  0.00  0.00    +0.000 HD
ENDBRANCH  18  19
BRANCH  18  22
ATOM     22  C   UNL     1       3.276   3.593  17.393  0.00  0.00    +0.000 C 
BRANCH  22  23
ATOM     23  C   UNL     1       4.683   4.070  17.133  0.00  0.00    +0.000 A 
ATOM     24  C   UNL     1       5.157   4.229  15.817  0.00  0.00    +0.000 A 
ATOM     25  C   UNL     1       6.486   4.566  15.592  0.00  0.00    +0.000 A 
ATOM     26  F   UNL     1       6.937   4.670  14.336  0.00  0.00    +0.000 F 
ATOM     27  C   UNL     1       7.363   4.772  16.651  0.00  0.00    +0.000 A 
ATOM     28  C   UNL     1       6.893   4.656  17.958  0.00  0.00    +0.000 A 
ATOM     29  C   UNL     1       5.565   4.314  18.188  0.00  0.00    +0.000 A 
ATOM     30  F   UNL     1       5.150   4.171  19.455  0.00  0.00    +0.000 F 
ENDBRANCH  22  23
ENDBRANCH  18  22
ENDBRANCH  17  18
ENDBRANCH   9  17
TORSDOF 8
ENDMDL
MODEL 7
REMARK VINA RESULT:      -6.9      2.782      3.699
REMARK  Name = 
REMARK  9 active torsions:
REMARK  status: ('A' for Active; 'I' for Inactive)
REMARK    1  A    between atoms: C_1  and  C_2
REMARK    2  A    between atoms: C_2  and  O_3
REMARK    3  A    between atoms: O_3  and  C_4
REMARK    4  A    between atoms: C_4  and  C_6
REMARK    5  A    between atoms: C_14  and  C_16
REMARK    6  A    between atoms: C_16  and  C_17
REMARK    7  A    between atoms: C_17  and  N_18
REMARK    8  A    between atoms: C_17  and  C_19
REMARK    9  A    between atoms: C_19  and  C_20
REMARK                            x       y       z     vdW  Elec       q    Type
REMARK                         _______ _______ _______ _____ _____    ______ ____
ROOT
ATOM      1  C   UNL     1       6.563   4.463  13.982  0.00  0.00    +0.000 A 
ATOM      2  N   UNL     1       7.540   5.344  14.118  0.00  0.00    +0.000 NA
ATOM      3  N   UNL     1       7.573   5.761  15.433  0.00  0.00    +0.000 NA
ATOM      4  C   UNL     1       6.619   5.129  16.083  0.00  0.00    +0.000 A 
ATOM      5  N   UNL     1       5.942   4.340  15.194  0.00  0.00    +0.000 N 
ATOM      6  C   UNL     1       4.830   3.498  15.567  0.00  0.00    +0.000 C 
ATOM      7  C   UNL     1       4.171   4.013  16.847  0.00  0.00    +0.000 C 
ATOM      8  N   UNL     1       5.169   4.295  17.889  0.00  0.00    +0.000 N 
ATOM      9  C   UNL     1       4.997   4.026  19.253  0.00  0.00    +0.000 C 
ATOM     10  O   UNL     1       5.870   4.298  20.070  0.00  0.00    +0.000 OA
ATOM     11  C   UNL     1       6.252   5.228  17.525  0.00  0.00    +0.000 C 
ENDROOT
BRANCH   1  12
ATOM     12  C   UNL     1       6.264   3.713  12.786  0.00  0.00    +0.000 C 
ATOM     13  O   UNL     1       7.103   3.148  12.092  0.00  0.00    +0.000 OA
BRANCH  12  14
ATOM     14  O   UNL     1       4.939   3.793  12.481  0.00  0.00    +0.000 OA
BRANCH  14  16
ATOM     15  C   UNL     1       3.437   3.732  10.619  0.00  0.00    +0.000 C 
ATOM     16  C   UNL     1       4.509   2.976  11.384  0.00  0.00    +0.000 C 
ENDBRANCH  14  16
ENDBRANCH  12  14
ENDBRANCH   1  12
BRANCH   9  17
ATOM     17  C   UNL     1       3.687   3.366  19.672  0.00  0.00    +0.000 C 
BRANCH  17  18
ATOM     18  C   UNL     1       2.918   4.079  20.806  0.00  0.00    +0.000 C 
BRANCH  18  19
ATOM     19  N   UNL     1       2.621   3.108  21.884  0.00  0.00    +0.000 NA
ATOM     20  H   UNL     1       2.697   2.146  21.565  0.00  0.00    +0.000 HD
ATOM     21  H   UNL     1       3.281   3.227  22.650  0.00  0.00    +0.000 HD
ENDBRANCH  18  19
BRANCH  18  22
ATOM     22  C   UNL     1       1.599   4.791  20.400  0.00  0.00    +0.000 C 
BRANCH  22  23
ATOM     23  C   UNL     1       1.794   6.152  19.779  0.00  0.00    +0.000 A 
ATOM     24  C   UNL     1       2.444   6.290  18.539  0.00  0.00    +0.000 A 
ATOM     25  C   UNL     1       2.710   7.556  18.030  0.00  0.00    +0.000 A 
ATOM     26  F   UNL     1       3.370   7.676  16.872  0.00  0.00    +0.000 F 
ATOM     27  C   UNL     1       2.326   8.701  18.718  0.00  0.00    +0.000 A 
ATOM     28  C   UNL     1       1.646   8.574  19.929  0.00  0.00    +0.000 A 
ATOM     29  C   UNL     1       1.382   7.309  20.444  0.00  0.00    +0.000 A 
ATOM     30  F   UNL     1       0.761   7.217  21.629  0.00  0.00    +0.000 F 
ENDBRANCH  22  23
ENDBRANCH  18  22
ENDBRANCH  17  18
ENDBRANCH   9  17
TORSDOF 8
ENDMDL
MODEL 8
REMARK VINA RESULT:      -6.9      4.270      6.047
REMARK  Name = 
REMARK  9 active torsions:
REMARK  status: ('A' for Active; 'I' for Inactive)
REMARK    1  A    between atoms: C_1  and  C_2
REMARK    2  A    between atoms: C_2  and  O_3
REMARK    3  A    between atoms: O_3  and  C_4
REMARK    4  A    between atoms: C_4  and  C_6
REMARK    5  A    between atoms: C_14  and  C_16
REMARK    6  A    between atoms: C_16  and  C_17
REMARK    7  A    between atoms: C_17  and  N_18
REMARK    8  A    between atoms: C_17  and  C_19
REMARK    9  A    between atoms: C_19  and  C_20
REMARK                            x       y       z     vdW  Elec       q    Type
REMARK                         _______ _______ _______ _____ _____    ______ ____
ROOT
ATOM      1  C   UNL     1       6.166   3.803  12.601  0.00  0.00    +0.000 A 
ATOM      2  N   UNL     1       7.331   4.286  12.203  0.00  0.00    +0.000 NA
ATOM      3  N   UNL     1       7.934   4.911  13.276  0.00  0.00    +0.000 NA
ATOM      4  C   UNL     1       7.132   4.800  14.313  0.00  0.00    +0.000 A 
ATOM      5  N   UNL     1       5.998   4.148  13.913  0.00  0.00    +0.000 N 
ATOM      6  C   UNL     1       4.901   3.847  14.801  0.00  0.00    +0.000 C 
ATOM      7  C   UNL     1       4.898   4.802  15.995  0.00  0.00    +0.000 C 
ATOM      8  N   UNL     1       6.232   4.906  16.603  0.00  0.00    +0.000 N 
ATOM      9  C   UNL     1       6.480   4.987  17.978  0.00  0.00    +0.000 C 
ATOM     10  O   UNL     1       7.622   5.084  18.415  0.00  0.00    +0.000 OA
ATOM     11  C   UNL     1       7.333   5.301  15.703  0.00  0.00    +0.000 C 
ENDROOT
BRANCH   1  12
ATOM     12  C   UNL     1       5.275   2.991  11.807  0.00  0.00    +0.000 C 
ATOM     13  O   UNL     1       5.512   1.840  11.453  0.00  0.00    +0.000 OA
BRANCH  12  14
ATOM     14  O   UNL     1       4.178   3.703  11.427  0.00  0.00    +0.000 OA
BRANCH  14  16
ATOM     15  C   UNL     1       2.817   4.214   9.525  0.00  0.00    +0.000 C 
ATOM     16  C   UNL     1       3.381   3.104  10.396  0.00  0.00    +0.000 C 
ENDBRANCH  14  16
ENDBRANCH  12  14
ENDBRANCH   1  12
BRANCH   9  17
ATOM     17  C   UNL     1       5.270   4.932  18.907  0.00  0.00    +0.000 C 
BRANCH  17  18
ATOM     18  C   UNL     1       4.100   5.867  18.528  0.00  0.00    +0.000 C 
BRANCH  18  19
ATOM     19  N   UNL     1       4.626   7.223  18.249  0.00  0.00    +0.000 NA
ATOM     20  H   UNL     1       4.875   7.720  19.099  0.00  0.00    +0.000 HD
ATOM     21  H   UNL     1       5.467   7.159  17.677  0.00  0.00    +0.000 HD
ENDBRANCH  18  19
BRANCH  18  22
ATOM     22  C   UNL     1       2.949   5.982  19.563  0.00  0.00    +0.000 C 
BRANCH  22  23
ATOM     23  C   UNL     1       2.133   4.723  19.727  0.00  0.00    +0.000 A 
ATOM     24  C   UNL     1       2.012   4.104  20.984  0.00  0.00    +0.000 A 
ATOM     25  C   UNL     1       1.347   2.889  21.100  0.00  0.00    +0.000 A 
ATOM     26  F   UNL     1       1.276   2.285  22.292  0.00  0.00    +0.000 F 
ATOM     27  C   UNL     1       0.775   2.276  19.991  0.00  0.00    +0.000 A 
ATOM     28  C   UNL     1       0.855   2.902  18.748  0.00  0.00    +0.000 A 
ATOM     29  C   UNL     1       1.524   4.115  18.627  0.00  0.00    +0.000 A 
ATOM     30  F   UNL     1       1.620   4.676  17.412  0.00  0.00    +0.000 F 
ENDBRANCH  22  23
ENDBRANCH  18  22
ENDBRANCH  17  18
ENDBRANCH   9  17
TORSDOF 8
ENDMDL
MODEL 9
REMARK VINA RESULT:      -6.9      4.130      9.006
REMARK  Name = 
REMARK  9 active torsions:
REMARK  status: ('A' for Active; 'I' for Inactive)
REMARK    1  A    between atoms: C_1  and  C_2
REMARK    2  A    between atoms: C_2  and  O_3
REMARK    3  A    between atoms: O_3  and  C_4
REMARK    4  A    between atoms: C_4  and  C_6
REMARK    5  A    between atoms: C_14  and  C_16
REMARK    6  A    between atoms: C_16  and  C_17
REMARK    7  A    between atoms: C_17  and  N_18
REMARK    8  A    between atoms: C_17  and  C_19
REMARK    9  A    between atoms: C_19  and  C_20
REMARK                            x       y       z     vdW  Elec       q    Type
REMARK                         _______ _______ _______ _____ _____    ______ ____
ROOT
ATOM      1  C   UNL     1       0.380  12.702  20.279  0.00  0.00    +0.000 A 
ATOM      2  N   UNL     1      -0.068  12.532  21.511  0.00  0.00    +0.000 NA
ATOM      3  N   UNL     1       0.050  11.197  21.838  0.00  0.00    +0.000 NA
ATOM      4  C   UNL     1       0.569  10.570  20.804  0.00  0.00    +0.000 A 
ATOM      5  N   UNL     1       0.749  11.477  19.797  0.00  0.00    +0.000 N 
ATOM      6  C   UNL     1       1.308  11.134  18.511  0.00  0.00    +0.000 C 
ATOM      7  C   UNL     1       1.125   9.643  18.226  0.00  0.00    +0.000 C 
ATOM      8  N   UNL     1       1.543   8.821  19.370  0.00  0.00    +0.000 N 
ATOM      9  C   UNL     1       2.225   7.603  19.273  0.00  0.00    +0.000 C 
ATOM     10  O   UNL     1       2.534   6.964  20.273  0.00  0.00    +0.000 OA
ATOM     11  C   UNL     1       0.898   9.122  20.663  0.00  0.00    +0.000 C 
ENDROOT
BRANCH   1  12
ATOM     12  C   UNL     1       0.524  13.969  19.601  0.00  0.00    +0.000 C 
ATOM     13  O   UNL     1      -0.186  14.346  18.674  0.00  0.00    +0.000 OA
BRANCH  12  14
ATOM     14  O   UNL     1       1.608  14.648  20.068  0.00  0.00    +0.000 OA
BRANCH  14  16
ATOM     15  C   UNL     1       3.372  14.242  18.503  0.00  0.00    +0.000 C 
ATOM     16  C   UNL     1       2.417  15.279  19.066  0.00  0.00    +0.000 C 
ENDBRANCH  14  16
ENDBRANCH  12  14
ENDBRANCH   1  12
BRANCH   9  17
ATOM     17  C   UNL     1       2.583   7.117  17.871  0.00  0.00    +0.000 C 
BRANCH  17  18
ATOM     18  C   UNL     1       3.877   6.279  17.770  0.00  0.00    +0.000 C 
BRANCH  18  19
ATOM     19  N   UNL     1       4.724   6.815  16.680  0.00  0.00    +0.000 NA
ATOM     20  H   UNL     1       4.933   6.113  15.976  0.00  0.00    +0.000 HD
ATOM     21  H   UNL     1       4.244   7.582  16.213  0.00  0.00    +0.000 HD
ENDBRANCH  18  19
BRANCH  18  22
ATOM     22  C   UNL     1       3.692   4.752  17.553  0.00  0.00    +0.000 C 
BRANCH  22  23
ATOM     23  C   UNL     1       2.859   4.071  18.611  0.00  0.00    +0.000 A 
ATOM     24  C   UNL     1       3.457   3.551  19.773  0.00  0.00    +0.000 A 
ATOM     25  C   UNL     1       2.694   2.834  20.688  0.00  0.00    +0.000 A 
ATOM     26  F   UNL     1       3.282   2.305  21.767  0.00  0.00    +0.000 F 
ATOM     27  C   UNL     1       1.334   2.635  20.486  0.00  0.00    +0.000 A 
ATOM     28  C   UNL     1       0.724   3.180  19.356  0.00  0.00    +0.000 A 
ATOM     29  C   UNL     1       1.484   3.893  18.437  0.00  0.00    +0.000 A 
ATOM     30  F   UNL     1       0.880   4.373  17.340  0.00  0.00    +0.000 F 
ENDBRANCH  22  23
ENDBRANCH  18  22
ENDBRANCH  17  18
ENDBRANCH   9  17
TORSDOF 8
ENDMDL
