MODEL 1
REMARK VINA RESULT:      -8.1      0.000      0.000
REMARK  Name = 
REMARK  4 active torsions:
REMARK  status: ('A' for Active; 'I' for Inactive)
REMARK    1  A    between atoms: N_11  and  C_12
REMARK    2  A    between atoms: C_12  and  C_13
REMARK    3  A    between atoms: C_12  and  C_19
REMARK    4  A    between atoms: C_12  and  C_25
REMARK                            x       y       z     vdW  Elec       q    Type
REMARK                         _______ _______ _______ _____ _____    ______ ____
ROOT
ATOM      1  C   UNL     1      -0.562  11.667  20.378  0.00  0.00    +0.000 C 
ENDROOT
BRANCH   1  12
ATOM      2  O   UNL     1       0.109  10.438  23.035  0.00  0.00    +0.000 OA
ATOM      3  C   UNL     1       0.377   9.896  21.972  0.00  0.00    +0.000 A 
ATOM      4  O   UNL     1       1.000   8.640  21.964  0.00  0.00    +0.000 OA
ATOM      5  C   UNL     1       1.329   8.492  20.634  0.00  0.00    +0.000 A 
ATOM      6  C   UNL     1       2.056   7.417  20.154  0.00  0.00    +0.000 A 
ATOM      7  C   UNL     1       2.411   7.437  18.812  0.00  0.00    +0.000 A 
ATOM      8 CL   UNL     1       3.299   6.127  18.140  0.00  0.00    +0.000 Cl
ATOM      9  C   UNL     1       2.065   8.527  18.004  0.00  0.00    +0.000 A 
ATOM     10  C   UNL     1       1.309   9.592  18.523  0.00  0.00    +0.000 A 
ATOM     11  C   UNL     1       0.909   9.546  19.840  0.00  0.00    +0.000 A 
ATOM     12  N   UNL     1       0.169  10.383  20.677  0.00  0.00    +0.000 N 
ENDBRANCH   1  12
BRANCH   1  13
ATOM     13  C   UNL     1      -1.183  12.307  21.713  0.00  0.00    +0.000 A 
ATOM     14  C   UNL     1      -2.373  11.849  22.316  0.00  0.00    +0.000 A 
ATOM     15  C   UNL     1      -2.947  12.481  23.430  0.00  0.00    +0.000 A 
ATOM     16  C   UNL     1      -2.351  13.603  23.986  0.00  0.00    +0.000 A 
ATOM     17  C   UNL     1      -1.162  14.071  23.445  0.00  0.00    +0.000 A 
ATOM     18  C   UNL     1      -0.581  13.426  22.343  0.00  0.00    +0.000 A 
ENDBRANCH   1  13
BRANCH   1  19
ATOM     19  C   UNL     1       0.515  12.675  19.733  0.00  0.00    +0.000 A 
ATOM     20  C   UNL     1       1.845  12.791  20.195  0.00  0.00    +0.000 A 
ATOM     21  C   UNL     1       2.746  13.714  19.652  0.00  0.00    +0.000 A 
ATOM     22  C   UNL     1       2.344  14.571  18.638  0.00  0.00    +0.000 A 
ATOM     23  C   UNL     1       1.030  14.532  18.194  0.00  0.00    +0.000 A 
ATOM     24  C   UNL     1       0.126  13.620  18.753  0.00  0.00    +0.000 A 
ENDBRANCH   1  19
BRANCH   1  25
ATOM     25  C   UNL     1      -1.735  11.406  19.345  0.00  0.00    +0.000 A 
ATOM     26  C   UNL     1      -2.914  12.172  19.310  0.00  0.00    +0.000 A 
ATOM     27  C   UNL     1      -3.971  11.836  18.457  0.00  0.00    +0.000 A 
ATOM     28  C   UNL     1      -3.877  10.730  17.618  0.00  0.00    +0.000 A 
ATOM     29  C   UNL     1      -2.707   9.982  17.591  0.00  0.00    +0.000 A 
ATOM     30  C   UNL     1      -1.641  10.330  18.424  0.00  0.00    +0.000 A 
ENDBRANCH   1  25
TORSDOF 4
ENDMDL
MODEL 2
REMARK VINA RESULT:      -8.0      0.178      4.185
REMARK  Name = 
REMARK  4 active torsions:
REMARK  status: ('A' for Active; 'I' for Inactive)
REMARK    1  A    between atoms: N_11  and  C_12
REMARK    2  A    between atoms: C_12  and  C_13
REMARK    3  A    between atoms: C_12  and  C_19
REMARK    4  A    between atoms: C_12  and  C_25
REMARK                            x       y       z     vdW  Elec       q    Type
REMARK                         _______ _______ _______ _____ _____    ______ ____
ROOT
ATOM      1  C   UNL     1      -0.558  11.771  20.404  0.00  0.00    +0.000 C 
ENDROOT
BRANCH   1  12
ATOM      2  O   UNL     1       0.088  10.497  23.046  0.00  0.00    +0.000 OA
ATOM      3  C   UNL     1       0.354   9.967  21.977  0.00  0.00    +0.000 A 
ATOM      4  O   UNL     1       0.962   8.705  21.954  0.00  0.00    +0.000 OA
ATOM      5  C   UNL     1       1.295   8.571  20.623  0.00  0.00    +0.000 A 
ATOM      6  C   UNL     1       2.011   7.494  20.131  0.00  0.00    +0.000 A 
ATOM      7  C   UNL     1       2.371   7.528  18.791  0.00  0.00    +0.000 A 
ATOM      8 CL   UNL     1       3.247   6.218  18.105  0.00  0.00    +0.000 Cl
ATOM      9  C   UNL     1       2.042   8.633  17.997  0.00  0.00    +0.000 A 
ATOM     10  C   UNL     1       1.296   9.699  18.528  0.00  0.00    +0.000 A 
ATOM     11  C   UNL     1       0.890   9.640  19.843  0.00  0.00    +0.000 A 
ATOM     12  N   UNL     1       0.157  10.475  20.688  0.00  0.00    +0.000 N 
ENDBRANCH   1  12
BRANCH   1  13
ATOM     13  C   UNL     1       0.444  12.867  19.794  0.00  0.00    +0.000 A 
ATOM     14  C   UNL     1       1.824  12.909  20.087  0.00  0.00    +0.000 A 
ATOM     15  C   UNL     1       2.664  13.930  19.616  0.00  0.00    +0.000 A 
ATOM     16  C   UNL     1       2.155  14.953  18.831  0.00  0.00    +0.000 A 
ATOM     17  C   UNL     1       0.810  14.936  18.492  0.00  0.00    +0.000 A 
ATOM     18  C   UNL     1      -0.024  13.905  18.949  0.00  0.00    +0.000 A 
ENDBRANCH   1  13
BRANCH   1  19
ATOM     19  C   UNL     1      -1.721  11.436  19.341  0.00  0.00    +0.000 A 
ATOM     20  C   UNL     1      -2.948  12.132  19.286  0.00  0.00    +0.000 A 
ATOM     21  C   UNL     1      -3.963  11.785  18.387  0.00  0.00    +0.000 A 
ATOM     22  C   UNL     1      -3.796  10.714  17.522  0.00  0.00    +0.000 A 
ATOM     23  C   UNL     1      -2.629   9.965  17.582  0.00  0.00    +0.000 A 
ATOM     24  C   UNL     1      -1.623  10.304  18.496  0.00  0.00    +0.000 A 
ENDBRANCH   1  19
BRANCH   1  25
ATOM     25  C   UNL     1      -1.199  12.350  21.732  0.00  0.00    +0.000 A 
ATOM     26  C   UNL     1      -2.396  11.861  22.285  0.00  0.00    +0.000 A 
ATOM     27  C   UNL     1      -2.984  12.475  23.396  0.00  0.00    +0.000 A 
ATOM     28  C   UNL     1      -2.393  13.591  23.983  0.00  0.00    +0.000 A 
ATOM     29  C   UNL     1      -1.184  14.067  23.492  0.00  0.00    +0.000 A 
ATOM     30  C   UNL     1      -0.582  13.441  22.398  0.00  0.00    +0.000 A 
ENDBRANCH   1  25
TORSDOF 4
ENDMDL
MODEL 3
REMARK VINA RESULT:      -7.8      0.299      4.091
REMARK  Name = 
REMARK  4 active torsions:
REMARK  status: ('A' for Active; 'I' for Inactive)
REMARK    1  A    between atoms: N_11  and  C_12
REMARK    2  A    between atoms: C_12  and  C_13
REMARK    3  A    between atoms: C_12  and  C_19
REMARK    4  A    between atoms: C_12  and  C_25
REMARK                            x       y       z     vdW  Elec       q    Type
REMARK                         _______ _______ _______ _____ _____    ______ ____
ROOT
ATOM      1  C   UNL     1      -0.569  11.858  20.490  0.00  0.00    +0.000 C 
ENDROOT
BRANCH   1  12
ATOM      2  O   UNL     1       0.031  10.528  23.116  0.00  0.00    +0.000 OA
ATOM      3  C   UNL     1       0.302  10.014  22.041  0.00  0.00    +0.000 A 
ATOM      4  O   UNL     1       0.893   8.744  22.001  0.00  0.00    +0.000 OA
ATOM      5  C   UNL     1       1.239   8.630  20.672  0.00  0.00    +0.000 A 
ATOM      6  C   UNL     1       1.946   7.552  20.169  0.00  0.00    +0.000 A 
ATOM      7  C   UNL     1       2.322   7.605  18.833  0.00  0.00    +0.000 A 
ATOM      8 CL   UNL     1       3.187   6.295  18.133  0.00  0.00    +0.000 Cl
ATOM      9  C   UNL     1       2.015   8.729  18.055  0.00  0.00    +0.000 A 
ATOM     10  C   UNL     1       1.279   9.795  18.598  0.00  0.00    +0.000 A 
ATOM     11  C   UNL     1       0.857   9.718  19.907  0.00  0.00    +0.000 A 
ATOM     12  N   UNL     1       0.125  10.547  20.759  0.00  0.00    +0.000 N 
ENDBRANCH   1  12
BRANCH   1  13
ATOM     13  C   UNL     1       0.461  12.960  19.942  0.00  0.00    +0.000 A 
ATOM     14  C   UNL     1       0.094  13.999  19.061  0.00  0.00    +0.000 A 
ATOM     15  C   UNL     1       1.028  14.897  18.522  0.00  0.00    +0.000 A 
ATOM     16  C   UNL     1       2.372  14.789  18.843  0.00  0.00    +0.000 A 
ATOM     17  C   UNL     1       2.775  13.802  19.730  0.00  0.00    +0.000 A 
ATOM     18  C   UNL     1       1.836  12.917  20.282  0.00  0.00    +0.000 A 
ENDBRANCH   1  13
BRANCH   1  19
ATOM     19  C   UNL     1      -1.702  11.564  19.385  0.00  0.00    +0.000 A 
ATOM     20  C   UNL     1      -1.458  10.848  18.192  0.00  0.00    +0.000 A 
ATOM     21  C   UNL     1      -2.448  10.653  17.222  0.00  0.00    +0.000 A 
ATOM     22  C   UNL     1      -3.717  11.184  17.401  0.00  0.00    +0.000 A 
ATOM     23  C   UNL     1      -3.985  11.945  18.531  0.00  0.00    +0.000 A 
ATOM     24  C   UNL     1      -2.985  12.153  19.490  0.00  0.00    +0.000 A 
ENDBRANCH   1  19
BRANCH   1  25
ATOM     25  C   UNL     1      -1.244  12.405  21.815  0.00  0.00    +0.000 A 
ATOM     26  C   UNL     1      -2.438  11.883  22.342  0.00  0.00    +0.000 A 
ATOM     27  C   UNL     1      -3.058  12.470  23.451  0.00  0.00    +0.000 A 
ATOM     28  C   UNL     1      -2.501  13.591  24.061  0.00  0.00    +0.000 A 
ATOM     29  C   UNL     1      -1.296  14.100  23.596  0.00  0.00    +0.000 A 
ATOM     30  C   UNL     1      -0.662  13.502  22.505  0.00  0.00    +0.000 A 
ENDBRANCH   1  25
TORSDOF 4
ENDMDL
MODEL 4
REMARK VINA RESULT:      -7.8      0.331      1.253
REMARK  Name = 
REMARK  4 active torsions:
REMARK  status: ('A' for Active; 'I' for Inactive)
REMARK    1  A    between atoms: N_11  and  C_12
REMARK    2  A    between atoms: C_12  and  C_13
REMARK    3  A    between atoms: C_12  and  C_19
REMARK    4  A    between atoms: C_12  and  C_25
REMARK                            x       y       z     vdW  Elec       q    Type
REMARK                         _______ _______ _______ _____ _____    ______ ____
ROOT
ATOM      1  C   UNL     1      -0.543  11.652  20.407  0.00  0.00    +0.000 C 
ENDROOT
BRANCH   1  12
ATOM      2  O   UNL     1      -0.047  10.524  23.146  0.00  0.00    +0.000 OA
ATOM      3  C   UNL     1       0.259   9.928  22.123  0.00  0.00    +0.000 A 
ATOM      4  O   UNL     1       0.843   8.656  22.202  0.00  0.00    +0.000 OA
ATOM      5  C   UNL     1       1.236   8.440  20.899  0.00  0.00    +0.000 A 
ATOM      6  C   UNL     1       1.954   7.324  20.505  0.00  0.00    +0.000 A 
ATOM      7  C   UNL     1       2.378   7.274  19.184  0.00  0.00    +0.000 A 
ATOM      8 CL   UNL     1       3.259   5.912  18.617  0.00  0.00    +0.000 Cl
ATOM      9  C   UNL     1       2.107   8.337  18.312  0.00  0.00    +0.000 A 
ATOM     10  C   UNL     1       1.359   9.444  18.745  0.00  0.00    +0.000 A 
ATOM     11  C   UNL     1       0.889   9.468  20.040  0.00  0.00    +0.000 A 
ATOM     12  N   UNL     1       0.133  10.363  20.799  0.00  0.00    +0.000 N 
ENDBRANCH   1  12
BRANCH   1  13
ATOM     13  C   UNL     1      -1.236  12.354  21.673  0.00  0.00    +0.000 A 
ATOM     14  C   UNL     1      -0.676  13.454  22.357  0.00  0.00    +0.000 A 
ATOM     15  C   UNL     1      -1.252  13.994  23.517  0.00  0.00    +0.000 A 
ATOM     16  C   UNL     1      -2.416  13.452  24.042  0.00  0.00    +0.000 A 
ATOM     17  C   UNL     1      -3.020  12.389  23.384  0.00  0.00    +0.000 A 
ATOM     18  C   UNL     1      -2.451  11.863  22.215  0.00  0.00    +0.000 A 
ENDBRANCH   1  13
BRANCH   1  19
ATOM     19  C   UNL     1       0.602  12.610  19.803  0.00  0.00    +0.000 A 
ATOM     20  C   UNL     1       0.572  13.124  18.488  0.00  0.00    +0.000 A 
ATOM     21  C   UNL     1       1.607  13.911  17.971  0.00  0.00    +0.000 A 
ATOM     22  C   UNL     1       2.722  14.198  18.745  0.00  0.00    +0.000 A 
ATOM     23  C   UNL     1       2.820  13.666  20.023  0.00  0.00    +0.000 A 
ATOM     24  C   UNL     1       1.790  12.862  20.529  0.00  0.00    +0.000 A 
ENDBRANCH   1  19
BRANCH   1  25
ATOM     25  C   UNL     1      -1.650  11.381  19.306  0.00  0.00    +0.000 A 
ATOM     26  C   UNL     1      -2.805  12.171  19.167  0.00  0.00    +0.000 A 
ATOM     27  C   UNL     1      -3.811  11.829  18.256  0.00  0.00    +0.000 A 
ATOM     28  C   UNL     1      -3.687  10.693  17.460  0.00  0.00    +0.000 A 
ATOM     29  C   UNL     1      -2.535   9.921  17.536  0.00  0.00    +0.000 A 
ATOM     30  C   UNL     1      -1.519  10.273  18.428  0.00  0.00    +0.000 A 
ENDBRANCH   1  25
TORSDOF 4
ENDMDL
MODEL 5
REMARK VINA RESULT:      -7.6      0.347      4.295
REMARK  Name = 
REMARK  4 active torsions:
REMARK  status: ('A' for Active; 'I' for Inactive)
REMARK    1  A    between atoms: N_11  and  C_12
REMARK    2  A    between atoms: C_12  and  C_13
REMARK    3  A    between atoms: C_12  and  C_19
REMARK    4  A    between atoms: C_12  and  C_25
REMARK                            x       y       z     vdW  Elec       q    Type
REMARK                         _______ _______ _______ _____ _____    ______ ____
ROOT
ATOM      1  C   UNL     1      -0.559  11.869  20.325  0.00  0.00    +0.000 C 
ENDROOT
BRANCH   1  12
ATOM      2  O   UNL     1       0.063  10.682  23.013  0.00  0.00    +0.000 OA
ATOM      3  C   UNL     1       0.320  10.108  21.964  0.00  0.00    +0.000 A 
ATOM      4  O   UNL     1       0.905   8.834  21.988  0.00  0.00    +0.000 OA
ATOM      5  C   UNL     1       1.236   8.646  20.664  0.00  0.00    +0.000 A 
ATOM      6  C   UNL     1       1.932   7.538  20.213  0.00  0.00    +0.000 A 
ATOM      7  C   UNL     1       2.294   7.516  18.873  0.00  0.00    +0.000 A 
ATOM      8 CL   UNL     1       3.146   6.166  18.236  0.00  0.00    +0.000 Cl
ATOM      9  C   UNL     1       1.985   8.598  18.038  0.00  0.00    +0.000 A 
ATOM     10  C   UNL     1       1.259   9.696  18.528  0.00  0.00    +0.000 A 
ATOM     11  C   UNL     1       0.851   9.693  19.844  0.00  0.00    +0.000 A 
ATOM     12  N   UNL     1       0.133  10.571  20.657  0.00  0.00    +0.000 N 
ENDBRANCH   1  12
BRANCH   1  13
ATOM     13  C   UNL     1      -1.689  11.656  19.205  0.00  0.00    +0.000 A 
ATOM     14  C   UNL     1      -3.028  12.073  19.359  0.00  0.00    +0.000 A 
ATOM     15  C   UNL     1      -4.020  11.795  18.406  0.00  0.00    +0.000 A 
ATOM     16  C   UNL     1      -3.710  11.084  17.256  0.00  0.00    +0.000 A 
ATOM     17  C   UNL     1      -2.400  10.680  17.047  0.00  0.00    +0.000 A 
ATOM     18  C   UNL     1      -1.406  10.975  17.993  0.00  0.00    +0.000 A 
ENDBRANCH   1  13
BRANCH   1  19
ATOM     19  C   UNL     1      -1.229  12.400  21.689  0.00  0.00    +0.000 A 
ATOM     20  C   UNL     1      -2.450  11.906  22.199  0.00  0.00    +0.000 A 
ATOM     21  C   UNL     1      -3.037  12.423  23.360  0.00  0.00    +0.000 A 
ATOM     22  C   UNL     1      -2.434  13.468  24.044  0.00  0.00    +0.000 A 
ATOM     23  C   UNL     1      -1.263  14.023  23.546  0.00  0.00    +0.000 A 
ATOM     24  C   UNL     1      -0.689  13.515  22.374  0.00  0.00    +0.000 A 
ENDBRANCH   1  19
BRANCH   1  25
ATOM     25  C   UNL     1       0.490  12.932  19.794  0.00  0.00    +0.000 A 
ATOM     26  C   UNL     1       1.861  12.879  20.103  0.00  0.00    +0.000 A 
ATOM     27  C   UNL     1       2.731  13.901  19.707  0.00  0.00    +0.000 A 
ATOM     28  C   UNL     1       2.256  14.997  18.993  0.00  0.00    +0.000 A 
ATOM     29  C   UNL     1       0.917  15.055  18.629  0.00  0.00    +0.000 A 
ATOM     30  C   UNL     1       0.050  14.025  19.002  0.00  0.00    +0.000 A 
ENDBRANCH   1  25
TORSDOF 4
ENDMDL
MODEL 6
REMARK VINA RESULT:      -7.6      0.519      1.013
REMARK  Name = 
REMARK  4 active torsions:
REMARK  status: ('A' for Active; 'I' for Inactive)
REMARK    1  A    between atoms: N_11  and  C_12
REMARK    2  A    between atoms: C_12  and  C_13
REMARK    3  A    between atoms: C_12  and  C_19
REMARK    4  A    between atoms: C_12  and  C_25
REMARK                            x       y       z     vdW  Elec       q    Type
REMARK                         _______ _______ _______ _____ _____    ______ ____
ROOT
ATOM      1  C   UNL     1      -0.716  12.053  20.446  0.00  0.00    +0.000 C 
ENDROOT
BRANCH   1  12
ATOM      2  O   UNL     1      -0.162  10.768  23.104  0.00  0.00    +0.000 OA
ATOM      3  C   UNL     1       0.124  10.234  22.042  0.00  0.00    +0.000 A 
ATOM      4  O   UNL     1       0.712   8.962  22.034  0.00  0.00    +0.000 OA
ATOM      5  C   UNL     1       1.078   8.823  20.713  0.00  0.00    +0.000 A 
ATOM      6  C   UNL     1       1.790   7.735  20.239  0.00  0.00    +0.000 A 
ATOM      7  C   UNL     1       2.187   7.764  18.909  0.00  0.00    +0.000 A 
ATOM      8 CL   UNL     1       3.059   6.440  18.246  0.00  0.00    +0.000 Cl
ATOM      9  C   UNL     1       1.897   8.875  18.107  0.00  0.00    +0.000 A 
ATOM     10  C   UNL     1       1.155   9.953  18.619  0.00  0.00    +0.000 A 
ATOM     11  C   UNL     1       0.712   9.900  19.923  0.00  0.00    +0.000 A 
ATOM     12  N   UNL     1      -0.030  10.745  20.748  0.00  0.00    +0.000 N 
ENDBRANCH   1  12
BRANCH   1  13
ATOM     13  C   UNL     1      -1.432  12.650  21.754  0.00  0.00    +0.000 A 
ATOM     14  C   UNL     1      -0.896  13.705  22.523  0.00  0.00    +0.000 A 
ATOM     15  C   UNL     1      -1.492  14.149  23.713  0.00  0.00    +0.000 A 
ATOM     16  C   UNL     1      -2.652  13.553  24.183  0.00  0.00    +0.000 A 
ATOM     17  C   UNL     1      -3.232  12.532  23.444  0.00  0.00    +0.000 A 
ATOM     18  C   UNL     1      -2.644  12.102  22.245  0.00  0.00    +0.000 A 
ENDBRANCH   1  13
BRANCH   1  19
ATOM     19  C   UNL     1       0.424  13.067  19.932  0.00  0.00    +0.000 A 
ATOM     20  C   UNL     1       1.772  12.997  20.349  0.00  0.00    +0.000 A 
ATOM     21  C   UNL     1       2.732  13.925  19.928  0.00  0.00    +0.000 A 
ATOM     22  C   UNL     1       2.376  14.969  19.088  0.00  0.00    +0.000 A 
ATOM     23  C   UNL     1       1.050  15.109  18.699  0.00  0.00    +0.000 A 
ATOM     24  C   UNL     1       0.089  14.190  19.139  0.00  0.00    +0.000 A 
ENDBRANCH   1  19
BRANCH   1  25
ATOM     25  C   UNL     1      -1.806  11.855  19.314  0.00  0.00    +0.000 A 
ATOM     26  C   UNL     1      -3.166  12.165  19.494  0.00  0.00    +0.000 A 
ATOM     27  C   UNL     1      -4.113  11.869  18.506  0.00  0.00    +0.000 A 
ATOM     28  C   UNL     1      -3.725  11.259  17.316  0.00  0.00    +0.000 A 
ATOM     29  C   UNL     1      -2.383  10.987  17.086  0.00  0.00    +0.000 A 
ATOM     30  C   UNL     1      -1.433  11.303  18.060  0.00  0.00    +0.000 A 
ENDBRANCH   1  25
TORSDOF 4
ENDMDL
MODEL 7
REMARK VINA RESULT:      -7.5      0.867      4.101
REMARK  Name = 
REMARK  4 active torsions:
REMARK  status: ('A' for Active; 'I' for Inactive)
REMARK    1  A    between atoms: N_11  and  C_12
REMARK    2  A    between atoms: C_12  and  C_13
REMARK    3  A    between atoms: C_12  and  C_19
REMARK    4  A    between atoms: C_12  and  C_25
REMARK                            x       y       z     vdW  Elec       q    Type
REMARK                         _______ _______ _______ _____ _____    ______ ____
ROOT
ATOM      1  C   UNL     1      -0.293  11.639  19.926  0.00  0.00    +0.000 C 
ENDROOT
BRANCH   1  12
ATOM      2  O   UNL     1       0.436  10.689  22.680  0.00  0.00    +0.000 OA
ATOM      3  C   UNL     1       0.640  10.020  21.678  0.00  0.00    +0.000 A 
ATOM      4  O   UNL     1       1.213   8.746  21.791  0.00  0.00    +0.000 OA
ATOM      5  C   UNL     1       1.483   8.435  20.475  0.00  0.00    +0.000 A 
ATOM      6  C   UNL     1       2.148   7.282  20.096  0.00  0.00    +0.000 A 
ATOM      7  C   UNL     1       2.449   7.136  18.749  0.00  0.00    +0.000 A 
ATOM      8 CL   UNL     1       3.259   5.722  18.199  0.00  0.00    +0.000 Cl
ATOM      9  C   UNL     1       2.114   8.143  17.834  0.00  0.00    +0.000 A 
ATOM     10  C   UNL     1       1.421   9.290  18.255  0.00  0.00    +0.000 A 
ATOM     11  C   UNL     1       1.072   9.410  19.582  0.00  0.00    +0.000 A 
ATOM     12  N   UNL     1       0.399  10.367  20.343  0.00  0.00    +0.000 N 
ENDBRANCH   1  12
BRANCH   1  13
ATOM     13  C   UNL     1       0.756  12.714  19.359  0.00  0.00    +0.000 A 
ATOM     14  C   UNL     1       0.498  14.100  19.302  0.00  0.00    +0.000 A 
ATOM     15  C   UNL     1       1.393  15.010  18.719  0.00  0.00    +0.000 A 
ATOM     16  C   UNL     1       2.585  14.568  18.166  0.00  0.00    +0.000 A 
ATOM     17  C   UNL     1       2.896  13.218  18.228  0.00  0.00    +0.000 A 
ATOM     18  C   UNL     1       2.008  12.312  18.828  0.00  0.00    +0.000 A 
ENDBRANCH   1  13
BRANCH   1  19
ATOM     19  C   UNL     1      -1.346  11.238  18.776  0.00  0.00    +0.000 A 
ATOM     20  C   UNL     1      -2.058  10.019  18.765  0.00  0.00    +0.000 A 
ATOM     21  C   UNL     1      -2.928   9.672  17.724  0.00  0.00    +0.000 A 
ATOM     22  C   UNL     1      -3.102  10.524  16.644  0.00  0.00    +0.000 A 
ATOM     23  C   UNL     1      -2.378  11.707  16.585  0.00  0.00    +0.000 A 
ATOM     24  C   UNL     1      -1.495  12.041  17.620  0.00  0.00    +0.000 A 
ENDBRANCH   1  19
BRANCH   1  25
ATOM     25  C   UNL     1      -1.062  12.278  21.156  0.00  0.00    +0.000 A 
ATOM     26  C   UNL     1      -0.462  13.179  22.054  0.00  0.00    +0.000 A 
ATOM     27  C   UNL     1      -1.143  13.630  23.189  0.00  0.00    +0.000 A 
ATOM     28  C   UNL     1      -2.438  13.195  23.457  0.00  0.00    +0.000 A 
ATOM     29  C   UNL     1      -3.077  12.346  22.563  0.00  0.00    +0.000 A 
ATOM     30  C   UNL     1      -2.409  11.912  21.416  0.00  0.00    +0.000 A 
ENDBRANCH   1  25
TORSDOF 4
ENDMDL
MODEL 8
REMARK VINA RESULT:      -7.5      0.887      1.553
REMARK  Name = 
REMARK  4 active torsions:
REMARK  status: ('A' for Active; 'I' for Inactive)
REMARK    1  A    between atoms: N_11  and  C_12
REMARK    2  A    between atoms: C_12  and  C_13
REMARK    3  A    between atoms: C_12  and  C_19
REMARK    4  A    between atoms: C_12  and  C_25
REMARK                            x       y       z     vdW  Elec       q    Type
REMARK                         _______ _______ _______ _____ _____    ______ ____
ROOT
ATOM      1  C   UNL     1      -1.198  12.211  20.784  0.00  0.00    +0.000 C 
ENDROOT
BRANCH   1  12
ATOM      2  O   UNL     1      -0.387  10.847  23.334  0.00  0.00    +0.000 OA
ATOM      3  C   UNL     1      -0.117  10.394  22.231  0.00  0.00    +0.000 A 
ATOM      4  O   UNL     1       0.574   9.180  22.123  0.00  0.00    +0.000 OA
ATOM      5  C   UNL     1       0.875   9.141  20.778  0.00  0.00    +0.000 A 
ATOM      6  C   UNL     1       1.648   8.144  20.209  0.00  0.00    +0.000 A 
ATOM      7  C   UNL     1       1.965   8.274  18.864  0.00  0.00    +0.000 A 
ATOM      8 CL   UNL     1       2.907   7.066  18.084  0.00  0.00    +0.000 Cl
ATOM      9  C   UNL     1       1.537   9.394  18.141  0.00  0.00    +0.000 A 
ATOM     10  C   UNL     1       0.737  10.376  18.749  0.00  0.00    +0.000 A 
ATOM     11  C   UNL     1       0.375  10.219  20.069  0.00  0.00    +0.000 A 
ATOM     12  N   UNL     1      -0.388  10.954  20.978  0.00  0.00    +0.000 N 
ENDBRANCH   1  12
BRANCH   1  13
ATOM     13  C   UNL     1      -1.830  12.714  22.171  0.00  0.00    +0.000 A 
ATOM     14  C   UNL     1      -2.967  12.128  22.768  0.00  0.00    +0.000 A 
ATOM     15  C   UNL     1      -3.557  12.642  23.933  0.00  0.00    +0.000 A 
ATOM     16  C   UNL     1      -3.032  13.768  24.549  0.00  0.00    +0.000 A 
ATOM     17  C   UNL     1      -1.896  14.359  24.015  0.00  0.00    +0.000 A 
ATOM     18  C   UNL     1      -1.298  13.833  22.861  0.00  0.00    +0.000 A 
ENDBRANCH   1  13
BRANCH   1  19
ATOM     19  C   UNL     1      -0.193  13.325  20.200  0.00  0.00    +0.000 A 
ATOM     20  C   UNL     1      -0.547  14.232  19.177  0.00  0.00    +0.000 A 
ATOM     21  C   UNL     1       0.363  15.155  18.651  0.00  0.00    +0.000 A 
ATOM     22  C   UNL     1       1.670  15.192  19.114  0.00  0.00    +0.000 A 
ATOM     23  C   UNL     1       2.078  14.280  20.078  0.00  0.00    +0.000 A 
ATOM     24  C   UNL     1       1.168  13.345  20.588  0.00  0.00    +0.000 A 
ENDBRANCH   1  19
BRANCH   1  25
ATOM     25  C   UNL     1      -2.373  11.956  19.752  0.00  0.00    +0.000 A 
ATOM     26  C   UNL     1      -2.206  11.222  18.564  0.00  0.00    +0.000 A 
ATOM     27  C   UNL     1      -3.240  11.117  17.627  0.00  0.00    +0.000 A 
ATOM     28  C   UNL     1      -4.465  11.739  17.853  0.00  0.00    +0.000 A 
ATOM     29  C   UNL     1      -4.678  12.429  19.040  0.00  0.00    +0.000 A 
ATOM     30  C   UNL     1      -3.656  12.515  19.987  0.00  0.00    +0.000 A 
ENDBRANCH   1  25
TORSDOF 4
ENDMDL
MODEL 9
REMARK VINA RESULT:      -7.4      2.862      5.535
REMARK  Name = 
REMARK  4 active torsions:
REMARK  status: ('A' for Active; 'I' for Inactive)
REMARK    1  A    between atoms: N_11  and  C_12
REMARK    2  A    between atoms: C_12  and  C_13
REMARK    3  A    between atoms: C_12  and  C_19
REMARK    4  A    between atoms: C_12  and  C_25
REMARK                            x       y       z     vdW  Elec       q    Type
REMARK                         _______ _______ _______ _____ _____    ______ ____
ROOT
ATOM      1  C   UNL     1      -0.817  12.399  20.672  0.00  0.00    +0.000 C 
ENDROOT
BRANCH   1  12
ATOM      2  O   UNL     1       2.122  12.422  21.290  0.00  0.00    +0.000 OA
ATOM      3  C   UNL     1       1.603  13.227  20.530  0.00  0.00    +0.000 A 
ATOM      4  O   UNL     1       2.390  14.193  19.889  0.00  0.00    +0.000 OA
ATOM      5  C   UNL     1       1.435  15.016  19.331  0.00  0.00    +0.000 A 
ATOM      6  C   UNL     1       1.749  16.186  18.660  0.00  0.00    +0.000 A 
ATOM      7  C   UNL     1       0.692  16.978  18.235  0.00  0.00    +0.000 A 
ATOM      8 CL   UNL     1       1.004  18.436  17.379  0.00  0.00    +0.000 Cl
ATOM      9  C   UNL     1      -0.629  16.607  18.514  0.00  0.00    +0.000 A 
ATOM     10  C   UNL     1      -0.908  15.402  19.180  0.00  0.00    +0.000 A 
ATOM     11  C   UNL     1       0.138  14.587  19.553  0.00  0.00    +0.000 A 
ATOM     12  N   UNL     1       0.248  13.357  20.203  0.00  0.00    +0.000 N 
ENDBRANCH   1  12
BRANCH   1  13
ATOM     13  C   UNL     1      -0.188  10.973  21.057  0.00  0.00    +0.000 A 
ATOM     14  C   UNL     1      -0.118  10.484  22.379  0.00  0.00    +0.000 A 
ATOM     15  C   UNL     1       0.518   9.276  22.703  0.00  0.00    +0.000 A 
ATOM     16  C   UNL     1       1.112   8.506  21.714  0.00  0.00    +0.000 A 
ATOM     17  C   UNL     1       1.040   8.932  20.396  0.00  0.00    +0.000 A 
ATOM     18  C   UNL     1       0.388  10.131  20.072  0.00  0.00    +0.000 A 
ENDBRANCH   1  13
BRANCH   1  19
ATOM     19  C   UNL     1      -1.503  13.067  21.967  0.00  0.00    +0.000 A 
ATOM     20  C   UNL     1      -0.892  14.085  22.732  0.00  0.00    +0.000 A 
ATOM     21  C   UNL     1      -1.487  14.610  23.885  0.00  0.00    +0.000 A 
ATOM     22  C   UNL     1      -2.708  14.122  24.327  0.00  0.00    +0.000 A 
ATOM     23  C   UNL     1      -3.316  13.081  23.639  0.00  0.00    +0.000 A 
ATOM     24  C   UNL     1      -2.708  12.546  22.496  0.00  0.00    +0.000 A 
ENDBRANCH   1  19
BRANCH   1  25
ATOM     25  C   UNL     1      -1.905  12.187  19.540  0.00  0.00    +0.000 A 
ATOM     26  C   UNL     1      -3.285  12.345  19.760  0.00  0.00    +0.000 A 
ATOM     27  C   UNL     1      -4.217  12.038  18.763  0.00  0.00    +0.000 A 
ATOM     28  C   UNL     1      -3.796  11.568  17.522  0.00  0.00    +0.000 A 
ATOM     29  C   UNL     1      -2.438  11.450  17.255  0.00  0.00    +0.000 A 
ATOM     30  C   UNL     1      -1.504  11.778  18.241  0.00  0.00    +0.000 A 
ENDBRANCH   1  25
TORSDOF 4
ENDMDL
