MODEL 1
REMARK VINA RESULT:      -7.8      0.000      0.000
REMARK  Name = 
REMARK  10 active torsions:
REMARK  status: ('A' for Active; 'I' for Inactive)
REMARK    1  A    between atoms: C_1  and  C_2
REMARK    2  A    between atoms: C_2  and  C_3
REMARK    3  A    between atoms: C_2  and  O_4
REMARK    4  A    between atoms: C_2  and  C_25
REMARK    5  A    between atoms: O_4  and  C_5
REMARK    6  A    between atoms: C_8  and  C_9
REMARK    7  A    between atoms: C_9  and  C_10
REMARK    8  A    between atoms: N_12  and  C_13
REMARK    9  A    between atoms: C_16  and  C_17
REMARK   10  A    between atoms: C_25  and  O_27
REMARK                            x       y       z     vdW  Elec       q    Type
REMARK                         _______ _______ _______ _____ _____    ______ ____
ROOT
ATOM      1  C   UNL     1       1.682   9.741  18.186  0.00  0.00    +0.000 C 
ENDROOT
BRANCH   1   5
ATOM      2  C   UNL     1       3.148   5.783  19.206  0.00  0.00    +0.000 A 
ATOM      3  C   UNL     1       3.497   6.381  17.984  0.00  0.00    +0.000 A 
ATOM      4  C   UNL     1       3.025   7.659  17.646  0.00  0.00    +0.000 A 
ATOM      5  C   UNL     1       2.194   8.360  18.525  0.00  0.00    +0.000 A 
ATOM      6  C   UNL     1       1.860   7.767  19.744  0.00  0.00    +0.000 A 
ATOM      7  C   UNL     1       2.303   6.477  20.058  0.00  0.00    +0.000 A 
BRANCH   2   8
ATOM      8  O   UNL     1       3.691   4.551  19.417  0.00  0.00    +0.000 OA
BRANCH   8  10
ATOM      9  C   UNL     1       2.410   3.083  20.999  0.00  0.00    +0.000 C 
ATOM     10  C   UNL     1       2.888   3.356  19.569  0.00  0.00    +0.000 C 
ATOM     11  C   UNL     1       1.759   3.315  18.533  0.00  0.00    +0.000 C 
BRANCH  10  12
ATOM     12  C   UNL     1       3.841   2.190  19.214  0.00  0.00    +0.000 C 
ATOM     13  O   UNL     1       3.580   1.296  18.426  0.00  0.00    +0.000 OA
BRANCH  12  14
ATOM     14  O   UNL     1       5.028   2.238  19.870  0.00  0.00    +0.000 OA
ATOM     15  H   UNL     1       5.698   1.749  19.349  0.00  0.00    +0.000 HD
ENDBRANCH  12  14
ENDBRANCH  10  12
ENDBRANCH   8  10
ENDBRANCH   2   8
ENDBRANCH   1   5
BRANCH   1  16
ATOM     16  C   UNL     1       0.450  10.179  18.969  0.00  0.00    +0.000 C 
ATOM     17  O   UNL     1      -0.680   9.920  18.558  0.00  0.00    +0.000 OA
ATOM     18  N   UNL     1       0.726  10.855  20.149  0.00  0.00    +0.000 N 
ATOM     19  H   UNL     1       1.602  11.365  20.173  0.00  0.00    +0.000 HD
BRANCH  18  20
ATOM     20  C   UNL     1      -0.285  11.291  21.028  0.00  0.00    +0.000 A 
ATOM     21  C   UNL     1      -0.493  10.689  22.272  0.00  0.00    +0.000 A 
ATOM     22  C   UNL     1      -1.499  11.158  23.124  0.00  0.00    +0.000 A 
ATOM     23  C   UNL     1      -2.332  12.215  22.729  0.00  0.00    +0.000 A 
ATOM     24  C   UNL     1      -2.120  12.807  21.474  0.00  0.00    +0.000 A 
ATOM     25  C   UNL     1      -1.084  12.370  20.643  0.00  0.00    +0.000 A 
BRANCH  23  26
ATOM     26  C   UNL     1      -3.443  12.715  23.623  0.00  0.00    +0.000 C 
ATOM     27  F   UNL     1      -3.849  11.808  24.554  0.00  0.00    +0.000 F 
ATOM     28  F   UNL     1      -3.084  13.829  24.319  0.00  0.00    +0.000 F 
ATOM     29  F   UNL     1      -4.561  13.058  22.923  0.00  0.00    +0.000 F 
ENDBRANCH  23  26
ENDBRANCH  18  20
ENDBRANCH   1  16
TORSDOF 8
ENDMDL
MODEL 2
REMARK VINA RESULT:      -7.7      0.167      1.164
REMARK  Name = 
REMARK  10 active torsions:
REMARK  status: ('A' for Active; 'I' for Inactive)
REMARK    1  A    between atoms: C_1  and  C_2
REMARK    2  A    between atoms: C_2  and  C_3
REMARK    3  A    between atoms: C_2  and  O_4
REMARK    4  A    between atoms: C_2  and  C_25
REMARK    5  A    between atoms: O_4  and  C_5
REMARK    6  A    between atoms: C_8  and  C_9
REMARK    7  A    between atoms: C_9  and  C_10
REMARK    8  A    between atoms: N_12  and  C_13
REMARK    9  A    between atoms: C_16  and  C_17
REMARK   10  A    between atoms: C_25  and  O_27
REMARK                            x       y       z     vdW  Elec       q    Type
REMARK                         _______ _______ _______ _____ _____    ______ ____
ROOT
ATOM      1  C   UNL     1       1.709   9.717  18.114  0.00  0.00    +0.000 C 
ENDROOT
BRANCH   1   5
ATOM      2  C   UNL     1       3.268   5.803  19.165  0.00  0.00    +0.000 A 
ATOM      3  C   UNL     1       2.402   6.484  20.035  0.00  0.00    +0.000 A 
ATOM      4  C   UNL     1       1.897   7.750  19.704  0.00  0.00    +0.000 A 
ATOM      5  C   UNL     1       2.250   8.358  18.495  0.00  0.00    +0.000 A 
ATOM      6  C   UNL     1       3.102   7.672  17.628  0.00  0.00    +0.000 A 
ATOM      7  C   UNL     1       3.632   6.426  17.981  0.00  0.00    +0.000 A 
BRANCH   2   8
ATOM      8  O   UNL     1       3.668   4.574  19.599  0.00  0.00    +0.000 OA
BRANCH   8  10
ATOM      9  C   UNL     1       2.183   2.964  20.823  0.00  0.00    +0.000 C 
ATOM     10  C   UNL     1       2.829   3.398  19.504  0.00  0.00    +0.000 C 
ATOM     11  C   UNL     1       1.827   3.528  18.351  0.00  0.00    +0.000 C 
BRANCH  10  12
ATOM     12  C   UNL     1       3.793   2.254  19.111  0.00  0.00    +0.000 C 
ATOM     13  O   UNL     1       3.549   1.398  18.277  0.00  0.00    +0.000 OA
BRANCH  12  14
ATOM     14  O   UNL     1       4.968   2.275  19.789  0.00  0.00    +0.000 OA
ATOM     15  H   UNL     1       5.544   2.966  19.402  0.00  0.00    +0.000 HD
ENDBRANCH  12  14
ENDBRANCH  10  12
ENDBRANCH   8  10
ENDBRANCH   2   8
ENDBRANCH   1   5
BRANCH   1  16
ATOM     16  C   UNL     1       0.497  10.174  18.917  0.00  0.00    +0.000 C 
ATOM     17  O   UNL     1      -0.643   9.923  18.530  0.00  0.00    +0.000 OA
ATOM     18  N   UNL     1       0.803  10.856  20.086  0.00  0.00    +0.000 N 
ATOM     19  H   UNL     1       1.684  11.357  20.088  0.00  0.00    +0.000 HD
BRANCH  18  20
ATOM     20  C   UNL     1      -0.187  11.310  20.981  0.00  0.00    +0.000 A 
ATOM     21  C   UNL     1      -0.440  10.661  22.192  0.00  0.00    +0.000 A 
ATOM     22  C   UNL     1      -1.422  11.149  23.062  0.00  0.00    +0.000 A 
ATOM     23  C   UNL     1      -2.186  12.273  22.716  0.00  0.00    +0.000 A 
ATOM     24  C   UNL     1      -1.929  12.911  21.492  0.00  0.00    +0.000 A 
ATOM     25  C   UNL     1      -0.915  12.453  20.645  0.00  0.00    +0.000 A 
BRANCH  23  26
ATOM     26  C   UNL     1      -3.272  12.796  23.628  0.00  0.00    +0.000 C 
ATOM     27  F   UNL     1      -2.857  13.791  24.460  0.00  0.00    +0.000 F 
ATOM     28  F   UNL     1      -4.328  13.306  22.935  0.00  0.00    +0.000 F 
ATOM     29  F   UNL     1      -3.788  11.826  24.433  0.00  0.00    +0.000 F 
ENDBRANCH  23  26
ENDBRANCH  18  20
ENDBRANCH   1  16
TORSDOF 8
ENDMDL
MODEL 3
REMARK VINA RESULT:      -7.7      1.063      2.119
REMARK  Name = 
REMARK  10 active torsions:
REMARK  status: ('A' for Active; 'I' for Inactive)
REMARK    1  A    between atoms: C_1  and  C_2
REMARK    2  A    between atoms: C_2  and  C_3
REMARK    3  A    between atoms: C_2  and  O_4
REMARK    4  A    between atoms: C_2  and  C_25
REMARK    5  A    between atoms: O_4  and  C_5
REMARK    6  A    between atoms: C_8  and  C_9
REMARK    7  A    between atoms: C_9  and  C_10
REMARK    8  A    between atoms: N_12  and  C_13
REMARK    9  A    between atoms: C_16  and  C_17
REMARK   10  A    between atoms: C_25  and  O_27
REMARK                            x       y       z     vdW  Elec       q    Type
REMARK                         _______ _______ _______ _____ _____    ______ ____
ROOT
ATOM      1  C   UNL     1       1.277   9.880  18.392  0.00  0.00    +0.000 C 
ENDROOT
BRANCH   1   5
ATOM      2  C   UNL     1       2.898   6.019  19.541  0.00  0.00    +0.000 A 
ATOM      3  C   UNL     1       2.079   6.741  20.424  0.00  0.00    +0.000 A 
ATOM      4  C   UNL     1       1.554   7.991  20.062  0.00  0.00    +0.000 A 
ATOM      5  C   UNL     1       1.839   8.540  18.807  0.00  0.00    +0.000 A 
ATOM      6  C   UNL     1       2.644   7.813  17.928  0.00  0.00    +0.000 A 
ATOM      7  C   UNL     1       3.195   6.585  18.310  0.00  0.00    +0.000 A 
BRANCH   2   8
ATOM      8  O   UNL     1       3.323   4.812  20.010  0.00  0.00    +0.000 OA
BRANCH   8  10
ATOM      9  C   UNL     1       1.508   3.700  18.680  0.00  0.00    +0.000 C 
ATOM     10  C   UNL     1       2.681   3.563  19.656  0.00  0.00    +0.000 C 
ATOM     11  C   UNL     1       3.713   2.516  19.221  0.00  0.00    +0.000 C 
BRANCH  10  12
ATOM     12  C   UNL     1       2.070   3.042  20.978  0.00  0.00    +0.000 C 
ATOM     13  O   UNL     1       2.717   2.676  21.944  0.00  0.00    +0.000 OA
BRANCH  12  14
ATOM     14  O   UNL     1       0.713   3.023  20.980  0.00  0.00    +0.000 OA
ATOM     15  H   UNL     1       0.408   2.240  21.484  0.00  0.00    +0.000 HD
ENDBRANCH  12  14
ENDBRANCH  10  12
ENDBRANCH   8  10
ENDBRANCH   2   8
ENDBRANCH   1   5
BRANCH   1  16
ATOM     16  C   UNL     1       0.053  10.334  19.180  0.00  0.00    +0.000 C 
ATOM     17  O   UNL     1      -1.077   9.984  18.841  0.00  0.00    +0.000 OA
ATOM     18  N   UNL     1       0.337  11.132  20.279  0.00  0.00    +0.000 N 
ATOM     19  H   UNL     1       1.187  11.682  20.218  0.00  0.00    +0.000 HD
BRANCH  18  20
ATOM     20  C   UNL     1      -0.662  11.604  21.153  0.00  0.00    +0.000 A 
ATOM     21  C   UNL     1      -1.483  12.685  20.822  0.00  0.00    +0.000 A 
ATOM     22  C   UNL     1      -2.475  13.117  21.710  0.00  0.00    +0.000 A 
ATOM     23  C   UNL     1      -2.636  12.493  22.956  0.00  0.00    +0.000 A 
ATOM     24  C   UNL     1      -1.799  11.413  23.282  0.00  0.00    +0.000 A 
ATOM     25  C   UNL     1      -0.841  10.951  22.374  0.00  0.00    +0.000 A 
BRANCH  23  26
ATOM     26  C   UNL     1      -3.680  12.964  23.941  0.00  0.00    +0.000 C 
ATOM     27  F   UNL     1      -4.766  13.541  23.355  0.00  0.00    +0.000 F 
ATOM     28  F   UNL     1      -4.166  11.947  24.705  0.00  0.00    +0.000 F 
ATOM     29  F   UNL     1      -3.193  13.887  24.816  0.00  0.00    +0.000 F 
ENDBRANCH  23  26
ENDBRANCH  18  20
ENDBRANCH   1  16
TORSDOF 8
ENDMDL
MODEL 4
REMARK VINA RESULT:      -7.7      0.180      1.321
REMARK  Name = 
REMARK  10 active torsions:
REMARK  status: ('A' for Active; 'I' for Inactive)
REMARK    1  A    between atoms: C_1  and  C_2
REMARK    2  A    between atoms: C_2  and  C_3
REMARK    3  A    between atoms: C_2  and  O_4
REMARK    4  A    between atoms: C_2  and  C_25
REMARK    5  A    between atoms: O_4  and  C_5
REMARK    6  A    between atoms: C_8  and  C_9
REMARK    7  A    between atoms: C_9  and  C_10
REMARK    8  A    between atoms: N_12  and  C_13
REMARK    9  A    between atoms: C_16  and  C_17
REMARK   10  A    between atoms: C_25  and  O_27
REMARK                            x       y       z     vdW  Elec       q    Type
REMARK                         _______ _______ _______ _____ _____    ______ ____
ROOT
ATOM      1  C   UNL     1       1.620   9.750  18.149  0.00  0.00    +0.000 C 
ENDROOT
BRANCH   1   5
ATOM      2  C   UNL     1       3.169   5.853  19.270  0.00  0.00    +0.000 A 
ATOM      3  C   UNL     1       2.329   6.565  20.142  0.00  0.00    +0.000 A 
ATOM      4  C   UNL     1       1.827   7.826  19.788  0.00  0.00    +0.000 A 
ATOM      5  C   UNL     1       2.157   8.397  18.555  0.00  0.00    +0.000 A 
ATOM      6  C   UNL     1       2.983   7.680  17.687  0.00  0.00    +0.000 A 
ATOM      7  C   UNL     1       3.511   6.439  18.062  0.00  0.00    +0.000 A 
BRANCH   2   8
ATOM      8  O   UNL     1       3.568   4.632  19.728  0.00  0.00    +0.000 OA
BRANCH   8  10
ATOM      9  C   UNL     1       2.160   2.924  20.910  0.00  0.00    +0.000 C 
ATOM     10  C   UNL     1       2.755   3.441  19.596  0.00  0.00    +0.000 C 
ATOM     11  C   UNL     1       1.716   3.604  18.481  0.00  0.00    +0.000 C 
BRANCH  10  12
ATOM     12  C   UNL     1       3.734   2.344  19.116  0.00  0.00    +0.000 C 
ATOM     13  O   UNL     1       3.460   1.476  18.305  0.00  0.00    +0.000 OA
BRANCH  12  14
ATOM     14  O   UNL     1       4.962   2.422  19.689  0.00  0.00    +0.000 OA
ATOM     15  H   UNL     1       5.048   3.289  20.137  0.00  0.00    +0.000 HD
ENDBRANCH  12  14
ENDBRANCH  10  12
ENDBRANCH   8  10
ENDBRANCH   2   8
ENDBRANCH   1   5
BRANCH   1  16
ATOM     16  C   UNL     1       0.385  10.208  18.917  0.00  0.00    +0.000 C 
ATOM     17  O   UNL     1      -0.743   9.904  18.529  0.00  0.00    +0.000 OA
ATOM     18  N   UNL     1       0.656  10.952  20.056  0.00  0.00    +0.000 N 
ATOM     19  H   UNL     1       1.522  11.479  20.044  0.00  0.00    +0.000 HD
BRANCH  18  20
ATOM     20  C   UNL     1      -0.358  11.416  20.917  0.00  0.00    +0.000 A 
ATOM     21  C   UNL     1      -1.252  12.419  20.533  0.00  0.00    +0.000 A 
ATOM     22  C   UNL     1      -2.255  12.845  21.412  0.00  0.00    +0.000 A 
ATOM     23  C   UNL     1      -2.355  12.296  22.699  0.00  0.00    +0.000 A 
ATOM     24  C   UNL     1      -1.446  11.296  23.077  0.00  0.00    +0.000 A 
ATOM     25  C   UNL     1      -0.475  10.836  22.182  0.00  0.00    +0.000 A 
BRANCH  23  26
ATOM     26  C   UNL     1      -3.412  12.765  23.672  0.00  0.00    +0.000 C 
ATOM     27  F   UNL     1      -3.869  11.786  24.499  0.00  0.00    +0.000 F 
ATOM     28  F   UNL     1      -2.959  13.759  24.486  0.00  0.00    +0.000 F 
ATOM     29  F   UNL     1      -4.511  13.269  23.045  0.00  0.00    +0.000 F 
ENDBRANCH  23  26
ENDBRANCH  18  20
ENDBRANCH   1  16
TORSDOF 8
ENDMDL
MODEL 5
REMARK VINA RESULT:      -7.7      0.956      1.573
REMARK  Name = 
REMARK  10 active torsions:
REMARK  status: ('A' for Active; 'I' for Inactive)
REMARK    1  A    between atoms: C_1  and  C_2
REMARK    2  A    between atoms: C_2  and  C_3
REMARK    3  A    between atoms: C_2  and  O_4
REMARK    4  A    between atoms: C_2  and  C_25
REMARK    5  A    between atoms: O_4  and  C_5
REMARK    6  A    between atoms: C_8  and  C_9
REMARK    7  A    between atoms: C_9  and  C_10
REMARK    8  A    between atoms: N_12  and  C_13
REMARK    9  A    between atoms: C_16  and  C_17
REMARK   10  A    between atoms: C_25  and  O_27
REMARK                            x       y       z     vdW  Elec       q    Type
REMARK                         _______ _______ _______ _____ _____    ______ ____
ROOT
ATOM      1  C   UNL     1       1.803   9.551  18.200  0.00  0.00    +0.000 C 
ENDROOT
BRANCH   1   5
ATOM      2  C   UNL     1       3.029   5.561  19.394  0.00  0.00    +0.000 A 
ATOM      3  C   UNL     1       3.430   6.091  18.157  0.00  0.00    +0.000 A 
ATOM      4  C   UNL     1       3.035   7.378  17.762  0.00  0.00    +0.000 A 
ATOM      5  C   UNL     1       2.232   8.158  18.600  0.00  0.00    +0.000 A 
ATOM      6  C   UNL     1       1.846   7.632  19.835  0.00  0.00    +0.000 A 
ATOM      7  C   UNL     1       2.212   6.333  20.205  0.00  0.00    +0.000 A 
BRANCH   2   8
ATOM      8  O   UNL     1       3.500   4.309  19.661  0.00  0.00    +0.000 OA
BRANCH   8  10
ATOM      9  C   UNL     1       1.463   3.289  18.609  0.00  0.00    +0.000 C 
ATOM     10  C   UNL     1       2.690   3.119  19.510  0.00  0.00    +0.000 C 
ATOM     11  C   UNL     1       3.553   1.908  19.137  0.00  0.00    +0.000 C 
BRANCH  10  12
ATOM     12  C   UNL     1       2.136   2.833  20.926  0.00  0.00    +0.000 C 
ATOM     13  O   UNL     1       2.821   2.545  21.894  0.00  0.00    +0.000 OA
BRANCH  12  14
ATOM     14  O   UNL     1       0.785   2.929  21.012  0.00  0.00    +0.000 OA
ATOM     15  H   UNL     1       0.436   2.118  21.437  0.00  0.00    +0.000 HD
ENDBRANCH  12  14
ENDBRANCH  10  12
ENDBRANCH   8  10
ENDBRANCH   2   8
ENDBRANCH   1   5
BRANCH   1  16
ATOM     16  C   UNL     1       0.595  10.093  18.956  0.00  0.00    +0.000 C 
ATOM     17  O   UNL     1      -0.536   9.995  18.482  0.00  0.00    +0.000 OA
ATOM     18  N   UNL     1       0.891  10.665  20.185  0.00  0.00    +0.000 N 
ATOM     19  H   UNL     1       1.819  11.063  20.275  0.00  0.00    +0.000 HD
BRANCH  18  20
ATOM     20  C   UNL     1      -0.104  11.172  21.045  0.00  0.00    +0.000 A 
ATOM     21  C   UNL     1      -0.408  10.561  22.264  0.00  0.00    +0.000 A 
ATOM     22  C   UNL     1      -1.393  11.101  23.098  0.00  0.00    +0.000 A 
ATOM     23  C   UNL     1      -2.110  12.242  22.708  0.00  0.00    +0.000 A 
ATOM     24  C   UNL     1      -1.803  12.842  21.476  0.00  0.00    +0.000 A 
ATOM     25  C   UNL     1      -0.785  12.331  20.666  0.00  0.00    +0.000 A 
BRANCH  23  26
ATOM     26  C   UNL     1      -3.198  12.822  23.581  0.00  0.00    +0.000 C 
ATOM     27  F   UNL     1      -2.773  13.831  24.391  0.00  0.00    +0.000 F 
ATOM     28  F   UNL     1      -4.226  13.338  22.852  0.00  0.00    +0.000 F 
ATOM     29  F   UNL     1      -3.757  11.892  24.404  0.00  0.00    +0.000 F 
ENDBRANCH  23  26
ENDBRANCH  18  20
ENDBRANCH   1  16
TORSDOF 8
ENDMDL
MODEL 6
REMARK VINA RESULT:      -7.6      2.859      3.451
REMARK  Name = 
REMARK  10 active torsions:
REMARK  status: ('A' for Active; 'I' for Inactive)
REMARK    1  A    between atoms: C_1  and  C_2
REMARK    2  A    between atoms: C_2  and  C_3
REMARK    3  A    between atoms: C_2  and  O_4
REMARK    4  A    between atoms: C_2  and  C_25
REMARK    5  A    between atoms: O_4  and  C_5
REMARK    6  A    between atoms: C_8  and  C_9
REMARK    7  A    between atoms: C_9  and  C_10
REMARK    8  A    between atoms: N_12  and  C_13
REMARK    9  A    between atoms: C_16  and  C_17
REMARK   10  A    between atoms: C_25  and  O_27
REMARK                            x       y       z     vdW  Elec       q    Type
REMARK                         _______ _______ _______ _____ _____    ______ ____
ROOT
ATOM      1  C   UNL     1       1.474   9.907  18.656  0.00  0.00    +0.000 C 
ENDROOT
BRANCH   1   5
ATOM      2  C   UNL     1       3.051   5.903  19.235  0.00  0.00    +0.000 A 
ATOM      3  C   UNL     1       3.303   6.604  18.045  0.00  0.00    +0.000 A 
ATOM      4  C   UNL     1       2.794   7.897  17.849  0.00  0.00    +0.000 A 
ATOM      5  C   UNL     1       2.024   8.511  18.841  0.00  0.00    +0.000 A 
ATOM      6  C   UNL     1       1.786   7.815  20.028  0.00  0.00    +0.000 A 
ATOM      7  C   UNL     1       2.265   6.511  20.201  0.00  0.00    +0.000 A 
BRANCH   2   8
ATOM      8  O   UNL     1       3.621   4.667  19.303  0.00  0.00    +0.000 OA
BRANCH   8  10
ATOM      9  C   UNL     1       2.456   3.148  20.927  0.00  0.00    +0.000 C 
ATOM     10  C   UNL     1       2.847   3.455  19.478  0.00  0.00    +0.000 C 
ATOM     11  C   UNL     1       1.662   3.414  18.507  0.00  0.00    +0.000 C 
BRANCH  10  12
ATOM     12  C   UNL     1       3.797   2.312  19.047  0.00  0.00    +0.000 C 
ATOM     13  O   UNL     1       3.549   1.495  18.176  0.00  0.00    +0.000 OA
BRANCH  12  14
ATOM     14  O   UNL     1       4.966   2.287  19.737  0.00  0.00    +0.000 OA
ATOM     15  H   UNL     1       5.683   2.617  19.157  0.00  0.00    +0.000 HD
ENDBRANCH  12  14
ENDBRANCH  10  12
ENDBRANCH   8  10
ENDBRANCH   2   8
ENDBRANCH   1   5
BRANCH   1  16
ATOM     16  C   UNL     1      -0.008  10.061  18.976  0.00  0.00    +0.000 C 
ATOM     17  O   UNL     1      -0.434   9.824  20.106  0.00  0.00    +0.000 OA
ATOM     18  N   UNL     1      -0.788  10.494  17.913  0.00  0.00    +0.000 N 
ATOM     19  H   UNL     1      -0.448  10.254  16.989  0.00  0.00    +0.000 HD
BRANCH  18  20
ATOM     20  C   UNL     1      -2.169  10.742  18.036  0.00  0.00    +0.000 A 
ATOM     21  C   UNL     1      -2.662  11.859  18.716  0.00  0.00    +0.000 A 
ATOM     22  C   UNL     1      -4.041  12.079  18.807  0.00  0.00    +0.000 A 
ATOM     23  C   UNL     1      -4.946  11.166  18.246  0.00  0.00    +0.000 A 
ATOM     24  C   UNL     1      -4.440  10.043  17.573  0.00  0.00    +0.000 A 
ATOM     25  C   UNL     1      -3.062   9.848  17.441  0.00  0.00    +0.000 A 
BRANCH  23  26
ATOM     26  C   UNL     1      -6.439  11.371  18.360  0.00  0.00    +0.000 C 
ATOM     27  F   UNL     1      -6.811  12.111  19.440  0.00  0.00    +0.000 F 
ATOM     28  F   UNL     1      -6.957  12.011  17.274  0.00  0.00    +0.000 F 
ATOM     29  F   UNL     1      -7.120  10.196  18.459  0.00  0.00    +0.000 F 
ENDBRANCH  23  26
ENDBRANCH  18  20
ENDBRANCH   1  16
TORSDOF 8
ENDMDL
MODEL 7
REMARK VINA RESULT:      -7.6      0.638      1.313
REMARK  Name = 
REMARK  10 active torsions:
REMARK  status: ('A' for Active; 'I' for Inactive)
REMARK    1  A    between atoms: C_1  and  C_2
REMARK    2  A    between atoms: C_2  and  C_3
REMARK    3  A    between atoms: C_2  and  O_4
REMARK    4  A    between atoms: C_2  and  C_25
REMARK    5  A    between atoms: O_4  and  C_5
REMARK    6  A    between atoms: C_8  and  C_9
REMARK    7  A    between atoms: C_9  and  C_10
REMARK    8  A    between atoms: N_12  and  C_13
REMARK    9  A    between atoms: C_16  and  C_17
REMARK   10  A    between atoms: C_25  and  O_27
REMARK                            x       y       z     vdW  Elec       q    Type
REMARK                         _______ _______ _______ _____ _____    ______ ____
ROOT
ATOM      1  C   UNL     1       1.323  10.131  18.486  0.00  0.00    +0.000 C 
ENDROOT
BRANCH   1   5
ATOM      2  C   UNL     1       3.016   6.181  19.110  0.00  0.00    +0.000 A 
ATOM      3  C   UNL     1       2.230   6.786  20.104  0.00  0.00    +0.000 A 
ATOM      4  C   UNL     1       1.682   8.064  19.911  0.00  0.00    +0.000 A 
ATOM      5  C   UNL     1       1.912   8.758  18.719  0.00  0.00    +0.000 A 
ATOM      6  C   UNL     1       2.684   8.148  17.730  0.00  0.00    +0.000 A 
ATOM      7  C   UNL     1       3.259   6.890  17.943  0.00  0.00    +0.000 A 
BRANCH   2   8
ATOM      8  O   UNL     1       3.468   4.932  19.418  0.00  0.00    +0.000 OA
BRANCH   8  10
ATOM      9  C   UNL     1       1.838   3.242  20.302  0.00  0.00    +0.000 C 
ATOM     10  C   UNL     1       2.706   3.733  19.140  0.00  0.00    +0.000 C 
ATOM     11  C   UNL     1       1.937   3.861  17.820  0.00  0.00    +0.000 C 
BRANCH  10  12
ATOM     12  C   UNL     1       3.769   2.632  18.913  0.00  0.00    +0.000 C 
ATOM     13  O   UNL     1       3.528   1.509  18.503  0.00  0.00    +0.000 OA
BRANCH  12  14
ATOM     14  O   UNL     1       5.032   3.024  19.218  0.00  0.00    +0.000 OA
ATOM     15  H   UNL     1       5.459   3.375  18.410  0.00  0.00    +0.000 HD
ENDBRANCH  12  14
ENDBRANCH  10  12
ENDBRANCH   8  10
ENDBRANCH   2   8
ENDBRANCH   1   5
BRANCH   1  16
ATOM     16  C   UNL     1       0.063  10.434  19.289  0.00  0.00    +0.000 C 
ATOM     17  O   UNL     1      -1.004   9.891  19.010  0.00  0.00    +0.000 OA
ATOM     18  N   UNL     1       0.245  11.332  20.331  0.00  0.00    +0.000 N 
ATOM     19  H   UNL     1       0.994  12.004  20.211  0.00  0.00    +0.000 HD
BRANCH  18  20
ATOM     20  C   UNL     1      -0.795  11.692  21.212  0.00  0.00    +0.000 A 
ATOM     21  C   UNL     1      -0.942  11.093  22.465  0.00  0.00    +0.000 A 
ATOM     22  C   UNL     1      -1.980  11.486  23.319  0.00  0.00    +0.000 A 
ATOM     23  C   UNL     1      -2.903  12.462  22.915  0.00  0.00    +0.000 A 
ATOM     24  C   UNL     1      -2.751  13.051  21.649  0.00  0.00    +0.000 A 
ATOM     25  C   UNL     1      -1.686  12.693  20.817  0.00  0.00    +0.000 A 
BRANCH  23  26
ATOM     26  C   UNL     1      -4.047  12.878  23.810  0.00  0.00    +0.000 C 
ATOM     27  F   UNL     1      -5.238  12.997  23.159  0.00  0.00    +0.000 F 
ATOM     28  F   UNL     1      -4.262  11.989  24.819  0.00  0.00    +0.000 F 
ATOM     29  F   UNL     1      -3.828  14.080  24.412  0.00  0.00    +0.000 F 
ENDBRANCH  23  26
ENDBRANCH  18  20
ENDBRANCH   1  16
TORSDOF 8
ENDMDL
MODEL 8
REMARK VINA RESULT:      -7.6      0.688      1.481
REMARK  Name = 
REMARK  10 active torsions:
REMARK  status: ('A' for Active; 'I' for Inactive)
REMARK    1  A    between atoms: C_1  and  C_2
REMARK    2  A    between atoms: C_2  and  C_3
REMARK    3  A    between atoms: C_2  and  O_4
REMARK    4  A    between atoms: C_2  and  C_25
REMARK    5  A    between atoms: O_4  and  C_5
REMARK    6  A    between atoms: C_8  and  C_9
REMARK    7  A    between atoms: C_9  and  C_10
REMARK    8  A    between atoms: N_12  and  C_13
REMARK    9  A    between atoms: C_16  and  C_17
REMARK   10  A    between atoms: C_25  and  O_27
REMARK                            x       y       z     vdW  Elec       q    Type
REMARK                         _______ _______ _______ _____ _____    ______ ____
ROOT
ATOM      1  C   UNL     1       1.334  10.104  18.659  0.00  0.00    +0.000 C 
ENDROOT
BRANCH   1   5
ATOM      2  C   UNL     1       2.694   6.042  19.367  0.00  0.00    +0.000 A 
ATOM      3  C   UNL     1       2.914   6.662  18.127  0.00  0.00    +0.000 A 
ATOM      4  C   UNL     1       2.474   7.974  17.889  0.00  0.00    +0.000 A 
ATOM      5  C   UNL     1       1.807   8.687  18.890  0.00  0.00    +0.000 A 
ATOM      6  C   UNL     1       1.602   8.070  20.125  0.00  0.00    +0.000 A 
ATOM      7  C   UNL     1       2.009   6.749  20.343  0.00  0.00    +0.000 A 
BRANCH   2   8
ATOM      8  O   UNL     1       3.190   4.776  19.471  0.00  0.00    +0.000 OA
BRANCH   8  10
ATOM      9  C   UNL     1       1.668   3.355  20.871  0.00  0.00    +0.000 C 
ATOM     10  C   UNL     1       2.343   3.603  19.518  0.00  0.00    +0.000 C 
ATOM     11  C   UNL     1       1.364   3.583  18.339  0.00  0.00    +0.000 C 
BRANCH  10  12
ATOM     12  C   UNL     1       3.303   2.411  19.301  0.00  0.00    +0.000 C 
ATOM     13  O   UNL     1       4.406   2.306  19.812  0.00  0.00    +0.000 OA
BRANCH  12  14
ATOM     14  O   UNL     1       2.809   1.458  18.471  0.00  0.00    +0.000 OA
ATOM     15  H   UNL     1       3.374   0.660  18.532  0.00  0.00    +0.000 HD
ENDBRANCH  12  14
ENDBRANCH  10  12
ENDBRANCH   8  10
ENDBRANCH   2   8
ENDBRANCH   1   5
BRANCH   1  16
ATOM     16  C   UNL     1       0.038  10.472  19.373  0.00  0.00    +0.000 C 
ATOM     17  O   UNL     1      -1.039  10.014  18.994  0.00  0.00    +0.000 OA
ATOM     18  N   UNL     1       0.197  11.325  20.455  0.00  0.00    +0.000 N 
ATOM     19  H   UNL     1       0.997  11.945  20.416  0.00  0.00    +0.000 HD
BRANCH  18  20
ATOM     20  C   UNL     1      -0.882  11.732  21.265  0.00  0.00    +0.000 A 
ATOM     21  C   UNL     1      -1.809  12.685  20.835  0.00  0.00    +0.000 A 
ATOM     22  C   UNL     1      -2.877  13.055  21.662  0.00  0.00    +0.000 A 
ATOM     23  C   UNL     1      -3.010  12.500  22.944  0.00  0.00    +0.000 A 
ATOM     24  C   UNL     1      -2.068  11.551  23.368  0.00  0.00    +0.000 A 
ATOM     25  C   UNL     1      -1.030  11.145  22.524  0.00  0.00    +0.000 A 
BRANCH  23  26
ATOM     26  C   UNL     1      -4.138  12.910  23.862  0.00  0.00    +0.000 C 
ATOM     27  F   UNL     1      -5.331  13.075  23.227  0.00  0.00    +0.000 F 
ATOM     28  F   UNL     1      -4.363  11.994  24.844  0.00  0.00    +0.000 F 
ATOM     29  F   UNL     1      -3.888  14.087  24.501  0.00  0.00    +0.000 F 
ENDBRANCH  23  26
ENDBRANCH  18  20
ENDBRANCH   1  16
TORSDOF 8
ENDMDL
MODEL 9
REMARK VINA RESULT:      -7.6      0.758      1.204
REMARK  Name = 
REMARK  10 active torsions:
REMARK  status: ('A' for Active; 'I' for Inactive)
REMARK    1  A    between atoms: C_1  and  C_2
REMARK    2  A    between atoms: C_2  and  C_3
REMARK    3  A    between atoms: C_2  and  O_4
REMARK    4  A    between atoms: C_2  and  C_25
REMARK    5  A    between atoms: O_4  and  C_5
REMARK    6  A    between atoms: C_8  and  C_9
REMARK    7  A    between atoms: C_9  and  C_10
REMARK    8  A    between atoms: N_12  and  C_13
REMARK    9  A    between atoms: C_16  and  C_17
REMARK   10  A    between atoms: C_25  and  O_27
REMARK                            x       y       z     vdW  Elec       q    Type
REMARK                         _______ _______ _______ _____ _____    ______ ____
ROOT
ATOM      1  C   UNL     1       1.031  10.226  18.326  0.00  0.00    +0.000 C 
ENDROOT
BRANCH   1   5
ATOM      2  C   UNL     1       2.901   6.428  19.292  0.00  0.00    +0.000 A 
ATOM      3  C   UNL     1       3.097   7.021  18.035  0.00  0.00    +0.000 A 
ATOM      4  C   UNL     1       2.494   8.246  17.713  0.00  0.00    +0.000 A 
ATOM      5  C   UNL     1       1.683   8.901  18.646  0.00  0.00    +0.000 A 
ATOM      6  C   UNL     1       1.500   8.313  19.900  0.00  0.00    +0.000 A 
ATOM      7  C   UNL     1       2.074   7.073  20.200  0.00  0.00    +0.000 A 
BRANCH   2   8
ATOM      8  O   UNL     1       3.561   5.250  19.481  0.00  0.00    +0.000 OA
BRANCH   8  10
ATOM      9  C   UNL     1       2.549   3.389  20.825  0.00  0.00    +0.000 C 
ATOM     10  C   UNL     1       2.895   3.965  19.449  0.00  0.00    +0.000 C 
ATOM     11  C   UNL     1       1.705   3.984  18.482  0.00  0.00    +0.000 C 
BRANCH  10  12
ATOM     12  C   UNL     1       3.933   2.996  18.835  0.00  0.00    +0.000 C 
ATOM     13  O   UNL     1       3.812   2.443  17.755  0.00  0.00    +0.000 OA
BRANCH  12  14
ATOM     14  O   UNL     1       5.023   2.799  19.619  0.00  0.00    +0.000 OA
ATOM     15  H   UNL     1       5.261   1.849  19.599  0.00  0.00    +0.000 HD
ENDBRANCH  12  14
ENDBRANCH  10  12
ENDBRANCH   8  10
ENDBRANCH   2   8
ENDBRANCH   1   5
BRANCH   1  16
ATOM     16  C   UNL     1      -0.192  10.561  19.170  0.00  0.00    +0.000 C 
ATOM     17  O   UNL     1      -1.290  10.072  18.907  0.00  0.00    +0.000 OA
ATOM     18  N   UNL     1       0.055  11.422  20.230  0.00  0.00    +0.000 N 
ATOM     19  H   UNL     1       0.830  12.064  20.106  0.00  0.00    +0.000 HD
BRANCH  18  20
ATOM     20  C   UNL     1      -0.944  11.803  21.148  0.00  0.00    +0.000 A 
ATOM     21  C   UNL     1      -1.897  12.777  20.840  0.00  0.00    +0.000 A 
ATOM     22  C   UNL     1      -2.883  13.120  21.773  0.00  0.00    +0.000 A 
ATOM     23  C   UNL     1      -2.907  12.515  23.038  0.00  0.00    +0.000 A 
ATOM     24  C   UNL     1      -1.939  11.545  23.340  0.00  0.00    +0.000 A 
ATOM     25  C   UNL     1      -0.984  11.167  22.391  0.00  0.00    +0.000 A 
BRANCH  23  26
ATOM     26  C   UNL     1      -3.945  12.894  24.069  0.00  0.00    +0.000 C 
ATOM     27  F   UNL     1      -4.373  11.848  24.828  0.00  0.00    +0.000 F 
ATOM     28  F   UNL     1      -3.483  13.827  24.948  0.00  0.00    +0.000 F 
ATOM     29  F   UNL     1      -5.064  13.432  23.509  0.00  0.00    +0.000 F 
ENDBRANCH  23  26
ENDBRANCH  18  20
ENDBRANCH   1  16
TORSDOF 8
ENDMDL
