MODEL 1
REMARK VINA RESULT:      -7.2      0.000      0.000
REMARK  Name = 
REMARK  8 active torsions:
REMARK  status: ('A' for Active; 'I' for Inactive)
REMARK    1  A    between atoms: C_1  and  C_2
REMARK    2  A    between atoms: C_2  and  C_3
REMARK    3  A    between atoms: C_3  and  C_4
REMARK    4  A    between atoms: C_4  and  N_5
REMARK    5  A    between atoms: C_7  and  C_8
REMARK    6  A    between atoms: C_14  and  C_15
REMARK    7  A    between atoms: C_15  and  C_16
REMARK    8  A    between atoms: N_18  and  C_19
REMARK                            x       y       z     vdW  Elec       q    Type
REMARK                         _______ _______ _______ _____ _____    ______ ____
ROOT
ATOM      1  N   UNL     1       5.769   5.428  17.634  0.00  0.00    +0.000 N 
ATOM      2  C   UNL     1       5.527   5.105  19.023  0.00  0.00    +0.000 C 
ATOM      3  C   UNL     1       4.076   5.537  19.253  0.00  0.00    +0.000 C 
ATOM      4  C   UNL     1       3.951   6.746  18.296  0.00  0.00    +0.000 C 
ATOM      5  C   UNL     1       4.825   6.320  17.133  0.00  0.00    +0.000 C 
ATOM      6  O   UNL     1       4.724   6.703  15.981  0.00  0.00    +0.000 OA
ENDROOT
BRANCH   3   7
ATOM      7  C   UNL     1       3.090   4.400  19.009  0.00  0.00    +0.000 A 
ATOM      8  C   UNL     1       1.938   4.317  19.806  0.00  0.00    +0.000 A 
ATOM      9  C   UNL     1       1.005   3.298  19.609  0.00  0.00    +0.000 A 
ATOM     10  C   UNL     1       1.202   2.350  18.608  0.00  0.00    +0.000 A 
ATOM     11  C   UNL     1       2.335   2.417  17.808  0.00  0.00    +0.000 A 
ATOM     12  C   UNL     1       3.273   3.430  18.010  0.00  0.00    +0.000 A 
ENDBRANCH   3   7
BRANCH   1  13
ATOM     13  C   UNL     1       6.777   4.744  16.847  0.00  0.00    +0.000 C 
BRANCH  13  14
ATOM     14  C   UNL     1       6.196   3.929  15.696  0.00  0.00    +0.000 C 
BRANCH  14  16
ATOM     15  C   UNL     1       5.950   3.700  13.204  0.00  0.00    +0.000 C 
ATOM     16  C   UNL     1       6.689   4.407  14.330  0.00  0.00    +0.000 C 
ENDBRANCH  14  16
ENDBRANCH  13  14
ENDBRANCH   1  13
BRANCH   4  17
ATOM     17  C   UNL     1       2.550   7.169  17.878  0.00  0.00    +0.000 C 
BRANCH  17  18
ATOM     18  C   UNL     1       2.003   8.267  18.767  0.00  0.00    +0.000 C 
ATOM     19  O   UNL     1       1.802   8.124  19.969  0.00  0.00    +0.000 OA
ATOM     20  N   UNL     1       1.772   9.445  18.093  0.00  0.00    +0.000 N 
ATOM     21  C   UNL     1       1.190  10.598  18.734  0.00  0.00    +0.000 C 
ATOM     22  H   UNL     1       1.924   9.475  17.092  0.00  0.00    +0.000 HD
ENDBRANCH  17  18
ENDBRANCH   4  17
TORSDOF 6
ENDMDL
MODEL 2
REMARK VINA RESULT:      -7.2      3.124      5.377
REMARK  Name = 
REMARK  8 active torsions:
REMARK  status: ('A' for Active; 'I' for Inactive)
REMARK    1  A    between atoms: C_1  and  C_2
REMARK    2  A    between atoms: C_2  and  C_3
REMARK    3  A    between atoms: C_3  and  C_4
REMARK    4  A    between atoms: C_4  and  N_5
REMARK    5  A    between atoms: C_7  and  C_8
REMARK    6  A    between atoms: C_14  and  C_15
REMARK    7  A    between atoms: C_15  and  C_16
REMARK    8  A    between atoms: N_18  and  C_19
REMARK                            x       y       z     vdW  Elec       q    Type
REMARK                         _______ _______ _______ _____ _____    ______ ____
ROOT
ATOM      1  N   UNL     1       6.565   5.849  17.862  0.00  0.00    +0.000 N 
ATOM      2  C   UNL     1       5.182   6.269  17.811  0.00  0.00    +0.000 C 
ATOM      3  C   UNL     1       4.540   5.295  16.819  0.00  0.00    +0.000 C 
ATOM      4  C   UNL     1       5.711   5.013  15.849  0.00  0.00    +0.000 C 
ATOM      5  C   UNL     1       6.907   5.041  16.781  0.00  0.00    +0.000 C 
ATOM      6  O   UNL     1       7.970   4.472  16.604  0.00  0.00    +0.000 OA
ENDROOT
BRANCH   3   7
ATOM      7  C   UNL     1       3.949   4.072  17.511  0.00  0.00    +0.000 A 
ATOM      8  C   UNL     1       4.568   3.583  18.672  0.00  0.00    +0.000 A 
ATOM      9  C   UNL     1       4.053   2.472  19.343  0.00  0.00    +0.000 A 
ATOM     10  C   UNL     1       2.908   1.836  18.870  0.00  0.00    +0.000 A 
ATOM     11  C   UNL     1       2.279   2.307  17.725  0.00  0.00    +0.000 A 
ATOM     12  C   UNL     1       2.799   3.412  17.048  0.00  0.00    +0.000 A 
ENDBRANCH   3   7
BRANCH   1  13
ATOM     13  C   UNL     1       7.409   6.114  19.011  0.00  0.00    +0.000 C 
BRANCH  13  14
ATOM     14  C   UNL     1       8.421   7.231  18.773  0.00  0.00    +0.000 C 
BRANCH  14  16
ATOM     15  C   UNL     1       8.509   9.665  18.153  0.00  0.00    +0.000 C 
ATOM     16  C   UNL     1       7.891   8.313  17.833  0.00  0.00    +0.000 C 
ENDBRANCH  14  16
ENDBRANCH  13  14
ENDBRANCH   1  13
BRANCH   4  17
ATOM     17  C   UNL     1       5.634   3.751  15.001  0.00  0.00    +0.000 C 
BRANCH  17  18
ATOM     18  C   UNL     1       6.371   3.906  13.688  0.00  0.00    +0.000 C 
ATOM     19  O   UNL     1       7.082   4.872  13.423  0.00  0.00    +0.000 OA
ATOM     20  N   UNL     1       6.178   2.848  12.830  0.00  0.00    +0.000 N 
ATOM     21  C   UNL     1       6.735   2.822  11.500  0.00  0.00    +0.000 C 
ATOM     22  H   UNL     1       5.545   2.105  13.101  0.00  0.00    +0.000 HD
ENDBRANCH  17  18
ENDBRANCH   4  17
TORSDOF 6
ENDMDL
MODEL 3
REMARK VINA RESULT:      -7.2      0.988      1.071
REMARK  Name = 
REMARK  8 active torsions:
REMARK  status: ('A' for Active; 'I' for Inactive)
REMARK    1  A    between atoms: C_1  and  C_2
REMARK    2  A    between atoms: C_2  and  C_3
REMARK    3  A    between atoms: C_3  and  C_4
REMARK    4  A    between atoms: C_4  and  N_5
REMARK    5  A    between atoms: C_7  and  C_8
REMARK    6  A    between atoms: C_14  and  C_15
REMARK    7  A    between atoms: C_15  and  C_16
REMARK    8  A    between atoms: N_18  and  C_19
REMARK                            x       y       z     vdW  Elec       q    Type
REMARK                         _______ _______ _______ _____ _____    ______ ____
ROOT
ATOM      1  N   UNL     1       5.700   5.416  17.816  0.00  0.00    +0.000 N 
ATOM      2  C   UNL     1       5.485   4.994  19.183  0.00  0.00    +0.000 C 
ATOM      3  C   UNL     1       4.034   5.390  19.465  0.00  0.00    +0.000 C 
ATOM      4  C   UNL     1       3.878   6.661  18.598  0.00  0.00    +0.000 C 
ATOM      5  C   UNL     1       4.738   6.330  17.394  0.00  0.00    +0.000 C 
ATOM      6  O   UNL     1       4.613   6.791  16.273  0.00  0.00    +0.000 OA
ENDROOT
BRANCH   3   7
ATOM      7  C   UNL     1       3.057   4.261  19.158  0.00  0.00    +0.000 A 
ATOM      8  C   UNL     1       1.899   4.132  19.941  0.00  0.00    +0.000 A 
ATOM      9  C   UNL     1       0.974   3.118  19.686  0.00  0.00    +0.000 A 
ATOM     10  C   UNL     1       1.185   2.221  18.642  0.00  0.00    +0.000 A 
ATOM     11  C   UNL     1       2.324   2.335  17.855  0.00  0.00    +0.000 A 
ATOM     12  C   UNL     1       3.254   3.342  18.114  0.00  0.00    +0.000 A 
ENDBRANCH   3   7
BRANCH   1  13
ATOM     13  C   UNL     1       6.703   4.803  16.967  0.00  0.00    +0.000 C 
BRANCH  13  14
ATOM     14  C   UNL     1       6.110   4.031  15.792  0.00  0.00    +0.000 C 
BRANCH  14  16
ATOM     15  C   UNL     1       6.079   3.698  13.300  0.00  0.00    +0.000 C 
ATOM     16  C   UNL     1       6.570   4.578  14.439  0.00  0.00    +0.000 C 
ENDBRANCH  14  16
ENDBRANCH  13  14
ENDBRANCH   1  13
BRANCH   4  17
ATOM     17  C   UNL     1       2.466   7.095  18.233  0.00  0.00    +0.000 C 
BRANCH  17  18
ATOM     18  C   UNL     1       1.948   8.173  19.163  0.00  0.00    +0.000 C 
ATOM     19  O   UNL     1       1.677   9.311  18.792  0.00  0.00    +0.000 OA
ATOM     20  N   UNL     1       1.794   7.740  20.461  0.00  0.00    +0.000 N 
ATOM     21  C   UNL     1       1.375   8.622  21.522  0.00  0.00    +0.000 C 
ATOM     22  H   UNL     1       2.076   6.797  20.700  0.00  0.00    +0.000 HD
ENDBRANCH  17  18
ENDBRANCH   4  17
TORSDOF 6
ENDMDL
MODEL 4
REMARK VINA RESULT:      -7.2      3.149      5.360
REMARK  Name = 
REMARK  8 active torsions:
REMARK  status: ('A' for Active; 'I' for Inactive)
REMARK    1  A    between atoms: C_1  and  C_2
REMARK    2  A    between atoms: C_2  and  C_3
REMARK    3  A    between atoms: C_3  and  C_4
REMARK    4  A    between atoms: C_4  and  N_5
REMARK    5  A    between atoms: C_7  and  C_8
REMARK    6  A    between atoms: C_14  and  C_15
REMARK    7  A    between atoms: C_15  and  C_16
REMARK    8  A    between atoms: N_18  and  C_19
REMARK                            x       y       z     vdW  Elec       q    Type
REMARK                         _______ _______ _______ _____ _____    ______ ____
ROOT
ATOM      1  N   UNL     1       6.651   5.814  17.936  0.00  0.00    +0.000 N 
ATOM      2  C   UNL     1       5.272   6.250  17.921  0.00  0.00    +0.000 C 
ATOM      3  C   UNL     1       4.599   5.301  16.925  0.00  0.00    +0.000 C 
ATOM      4  C   UNL     1       5.747   5.023  15.927  0.00  0.00    +0.000 C 
ATOM      5  C   UNL     1       6.962   5.021  16.835  0.00  0.00    +0.000 C 
ATOM      6  O   UNL     1       8.013   4.444  16.625  0.00  0.00    +0.000 OA
ENDROOT
BRANCH   3   7
ATOM      7  C   UNL     1       4.008   4.073  17.608  0.00  0.00    +0.000 A 
ATOM      8  C   UNL     1       2.853   3.485  17.070  0.00  0.00    +0.000 A 
ATOM      9  C   UNL     1       2.287   2.353  17.659  0.00  0.00    +0.000 A 
ATOM     10  C   UNL     1       2.868   1.785  18.790  0.00  0.00    +0.000 A 
ATOM     11  C   UNL     1       4.013   2.351  19.335  0.00  0.00    +0.000 A 
ATOM     12  C   UNL     1       4.575   3.489  18.753  0.00  0.00    +0.000 A 
ENDBRANCH   3   7
BRANCH   1  13
ATOM     13  C   UNL     1       7.522   6.049  19.072  0.00  0.00    +0.000 C 
BRANCH  13  14
ATOM     14  C   UNL     1       8.424   7.267  18.901  0.00  0.00    +0.000 C 
BRANCH  14  16
ATOM     15  C   UNL     1       8.474   9.625  18.031  0.00  0.00    +0.000 C 
ATOM     16  C   UNL     1       7.919   8.225  17.822  0.00  0.00    +0.000 C 
ENDBRANCH  14  16
ENDBRANCH  13  14
ENDBRANCH   1  13
BRANCH   4  17
ATOM     17  C   UNL     1       5.637   3.777  15.059  0.00  0.00    +0.000 C 
BRANCH  17  18
ATOM     18  C   UNL     1       6.364   3.942  13.741  0.00  0.00    +0.000 C 
ATOM     19  O   UNL     1       7.058   4.917  13.470  0.00  0.00    +0.000 OA
ATOM     20  N   UNL     1       6.182   2.878  12.886  0.00  0.00    +0.000 N 
ATOM     21  C   UNL     1       6.732   2.858  11.553  0.00  0.00    +0.000 C 
ATOM     22  H   UNL     1       5.563   2.126  13.163  0.00  0.00    +0.000 HD
ENDBRANCH  17  18
ENDBRANCH   4  17
TORSDOF 6
ENDMDL
MODEL 5
REMARK VINA RESULT:      -7.1      0.837      1.340
REMARK  Name = 
REMARK  8 active torsions:
REMARK  status: ('A' for Active; 'I' for Inactive)
REMARK    1  A    between atoms: C_1  and  C_2
REMARK    2  A    between atoms: C_2  and  C_3
REMARK    3  A    between atoms: C_3  and  C_4
REMARK    4  A    between atoms: C_4  and  N_5
REMARK    5  A    between atoms: C_7  and  C_8
REMARK    6  A    between atoms: C_14  and  C_15
REMARK    7  A    between atoms: C_15  and  C_16
REMARK    8  A    between atoms: N_18  and  C_19
REMARK                            x       y       z     vdW  Elec       q    Type
REMARK                         _______ _______ _______ _____ _____    ______ ____
ROOT
ATOM      1  N   UNL     1       5.550   5.546  17.899  0.00  0.00    +0.000 N 
ATOM      2  C   UNL     1       5.247   5.250  19.282  0.00  0.00    +0.000 C 
ATOM      3  C   UNL     1       3.776   5.649  19.428  0.00  0.00    +0.000 C 
ATOM      4  C   UNL     1       3.668   6.830  18.436  0.00  0.00    +0.000 C 
ATOM      5  C   UNL     1       4.610   6.400  17.328  0.00  0.00    +0.000 C 
ATOM      6  O   UNL     1       4.556   6.751  16.163  0.00  0.00    +0.000 OA
ENDROOT
BRANCH   3   7
ATOM      7  C   UNL     1       2.833   4.480  19.166  0.00  0.00    +0.000 A 
ATOM      8  C   UNL     1       3.109   3.610  18.100  0.00  0.00    +0.000 A 
ATOM      9  C   UNL     1       2.276   2.521  17.833  0.00  0.00    +0.000 A 
ATOM     10  C   UNL     1       1.160   2.279  18.630  0.00  0.00    +0.000 A 
ATOM     11  C   UNL     1       0.873   3.128  19.691  0.00  0.00    +0.000 A 
ATOM     12  C   UNL     1       1.699   4.222  19.953  0.00  0.00    +0.000 A 
ENDBRANCH   3   7
BRANCH   1  13
ATOM     13  C   UNL     1       6.614   4.871  17.180  0.00  0.00    +0.000 C 
BRANCH  13  14
ATOM     14  C   UNL     1       6.111   3.999  16.033  0.00  0.00    +0.000 C 
BRANCH  14  16
ATOM     15  C   UNL     1       5.894   3.817  13.535  0.00  0.00    +0.000 C 
ATOM     16  C   UNL     1       6.695   4.413  14.682  0.00  0.00    +0.000 C 
ENDBRANCH  14  16
ENDBRANCH  13  14
ENDBRANCH   1  13
BRANCH   4  17
ATOM     17  C   UNL     1       2.279   7.205  17.938  0.00  0.00    +0.000 C 
BRANCH  17  18
ATOM     18  C   UNL     1       1.961   8.663  18.198  0.00  0.00    +0.000 C 
ATOM     19  O   UNL     1       2.214   9.561  17.400  0.00  0.00    +0.000 OA
ATOM     20  N   UNL     1       1.342   8.875  19.409  0.00  0.00    +0.000 N 
ATOM     21  C   UNL     1       1.010  10.195  19.884  0.00  0.00    +0.000 C 
ATOM     22  H   UNL     1       1.201   8.088  20.032  0.00  0.00    +0.000 HD
ENDBRANCH  17  18
ENDBRANCH   4  17
TORSDOF 6
ENDMDL
MODEL 6
REMARK VINA RESULT:      -7.0      0.657      1.191
REMARK  Name = 
REMARK  8 active torsions:
REMARK  status: ('A' for Active; 'I' for Inactive)
REMARK    1  A    between atoms: C_1  and  C_2
REMARK    2  A    between atoms: C_2  and  C_3
REMARK    3  A    between atoms: C_3  and  C_4
REMARK    4  A    between atoms: C_4  and  N_5
REMARK    5  A    between atoms: C_7  and  C_8
REMARK    6  A    between atoms: C_14  and  C_15
REMARK    7  A    between atoms: C_15  and  C_16
REMARK    8  A    between atoms: N_18  and  C_19
REMARK                            x       y       z     vdW  Elec       q    Type
REMARK                         _______ _______ _______ _____ _____    ______ ____
ROOT
ATOM      1  N   UNL     1       6.065   5.622  17.019  0.00  0.00    +0.000 N 
ATOM      2  C   UNL     1       5.900   5.285  18.416  0.00  0.00    +0.000 C 
ATOM      3  C   UNL     1       4.451   5.679  18.718  0.00  0.00    +0.000 C 
ATOM      4  C   UNL     1       4.249   6.890  17.777  0.00  0.00    +0.000 C 
ATOM      5  C   UNL     1       5.076   6.493  16.570  0.00  0.00    +0.000 C 
ATOM      6  O   UNL     1       4.910   6.880  15.427  0.00  0.00    +0.000 OA
ENDROOT
BRANCH   3   7
ATOM      7  C   UNL     1       3.483   4.519  18.515  0.00  0.00    +0.000 A 
ATOM      8  C   UNL     1       3.970   3.312  17.989  0.00  0.00    +0.000 A 
ATOM      9  C   UNL     1       3.119   2.222  17.798  0.00  0.00    +0.000 A 
ATOM     10  C   UNL     1       1.771   2.315  18.135  0.00  0.00    +0.000 A 
ATOM     11  C   UNL     1       1.272   3.501  18.659  0.00  0.00    +0.000 A 
ATOM     12  C   UNL     1       2.120   4.595  18.842  0.00  0.00    +0.000 A 
ENDBRANCH   3   7
BRANCH   1  13
ATOM     13  C   UNL     1       7.052   4.970  16.180  0.00  0.00    +0.000 C 
BRANCH  13  14
ATOM     14  C   UNL     1       6.442   3.991  15.180  0.00  0.00    +0.000 C 
BRANCH  14  16
ATOM     15  C   UNL     1       5.992   3.456  12.765  0.00  0.00    +0.000 C 
ATOM     16  C   UNL     1       6.676   4.413  13.728  0.00  0.00    +0.000 C 
ENDBRANCH  14  16
ENDBRANCH  13  14
ENDBRANCH   1  13
BRANCH   4  17
ATOM     17  C   UNL     1       2.819   7.280  17.430  0.00  0.00    +0.000 C 
BRANCH  17  18
ATOM     18  C   UNL     1       2.253   8.283  18.413  0.00  0.00    +0.000 C 
ATOM     19  O   UNL     1       2.052   8.029  19.597  0.00  0.00    +0.000 OA
ATOM     20  N   UNL     1       2.005   9.514  17.848  0.00  0.00    +0.000 N 
ATOM     21  C   UNL     1       1.404  10.595  18.588  0.00  0.00    +0.000 C 
ATOM     22  H   UNL     1       2.158   9.637  16.854  0.00  0.00    +0.000 HD
ENDBRANCH  17  18
ENDBRANCH   4  17
TORSDOF 6
ENDMDL
MODEL 7
REMARK VINA RESULT:      -6.9      1.578      2.081
REMARK  Name = 
REMARK  8 active torsions:
REMARK  status: ('A' for Active; 'I' for Inactive)
REMARK    1  A    between atoms: C_1  and  C_2
REMARK    2  A    between atoms: C_2  and  C_3
REMARK    3  A    between atoms: C_3  and  C_4
REMARK    4  A    between atoms: C_4  and  N_5
REMARK    5  A    between atoms: C_7  and  C_8
REMARK    6  A    between atoms: C_14  and  C_15
REMARK    7  A    between atoms: C_15  and  C_16
REMARK    8  A    between atoms: N_18  and  C_19
REMARK                            x       y       z     vdW  Elec       q    Type
REMARK                         _______ _______ _______ _____ _____    ______ ____
ROOT
ATOM      1  N   UNL     1       5.310   5.653  18.159  0.00  0.00    +0.000 N 
ATOM      2  C   UNL     1       4.990   5.272  19.517  0.00  0.00    +0.000 C 
ATOM      3  C   UNL     1       3.507   5.628  19.657  0.00  0.00    +0.000 C 
ATOM      4  C   UNL     1       3.389   6.861  18.732  0.00  0.00    +0.000 C 
ATOM      5  C   UNL     1       4.361   6.517  17.620  0.00  0.00    +0.000 C 
ATOM      6  O   UNL     1       4.320   6.933  16.476  0.00  0.00    +0.000 OA
ENDROOT
BRANCH   3   7
ATOM      7  C   UNL     1       2.597   4.455  19.311  0.00  0.00    +0.000 A 
ATOM      8  C   UNL     1       1.492   4.186  20.133  0.00  0.00    +0.000 A 
ATOM      9  C   UNL     1       0.628   3.128  19.845  0.00  0.00    +0.000 A 
ATOM     10  C   UNL     1       0.848   2.327  18.727  0.00  0.00    +0.000 A 
ATOM     11  C   UNL     1       1.935   2.579  17.900  0.00  0.00    +0.000 A 
ATOM     12  C   UNL     1       2.805   3.631  18.192  0.00  0.00    +0.000 A 
ENDBRANCH   3   7
BRANCH   1  13
ATOM     13  C   UNL     1       6.403   5.045  17.425  0.00  0.00    +0.000 C 
BRANCH  13  14
ATOM     14  C   UNL     1       7.754   5.194  18.117  0.00  0.00    +0.000 C 
BRANCH  14  16
ATOM     15  C   UNL     1       7.771   7.645  17.555  0.00  0.00    +0.000 C 
ATOM     16  C   UNL     1       7.990   6.609  18.647  0.00  0.00    +0.000 C 
ENDBRANCH  14  16
ENDBRANCH  13  14
ENDBRANCH   1  13
BRANCH   4  17
ATOM     17  C   UNL     1       2.001   7.233  18.229  0.00  0.00    +0.000 C 
BRANCH  17  18
ATOM     18  C   UNL     1       1.777   8.730  18.241  0.00  0.00    +0.000 C 
ATOM     19  O   UNL     1       2.082   9.465  17.306  0.00  0.00    +0.000 OA
ATOM     20  N   UNL     1       1.182   9.180  19.398  0.00  0.00    +0.000 N 
ATOM     21  C   UNL     1       0.938  10.579  19.645  0.00  0.00    +0.000 C 
ATOM     22  H   UNL     1       0.996   8.519  20.143  0.00  0.00    +0.000 HD
ENDBRANCH  17  18
ENDBRANCH   4  17
TORSDOF 6
ENDMDL
MODEL 8
REMARK VINA RESULT:      -6.9      2.487      5.673
REMARK  Name = 
REMARK  8 active torsions:
REMARK  status: ('A' for Active; 'I' for Inactive)
REMARK    1  A    between atoms: C_1  and  C_2
REMARK    2  A    between atoms: C_2  and  C_3
REMARK    3  A    between atoms: C_3  and  C_4
REMARK    4  A    between atoms: C_4  and  N_5
REMARK    5  A    between atoms: C_7  and  C_8
REMARK    6  A    between atoms: C_14  and  C_15
REMARK    7  A    between atoms: C_15  and  C_16
REMARK    8  A    between atoms: N_18  and  C_19
REMARK                            x       y       z     vdW  Elec       q    Type
REMARK                         _______ _______ _______ _____ _____    ______ ____
ROOT
ATOM      1  N   UNL     1       3.725   3.150  18.616  0.00  0.00    +0.000 N 
ATOM      2  C   UNL     1       4.406   4.004  19.563  0.00  0.00    +0.000 C 
ATOM      3  C   UNL     1       4.826   5.216  18.727  0.00  0.00    +0.000 C 
ATOM      4  C   UNL     1       5.077   4.574  17.343  0.00  0.00    +0.000 C 
ATOM      5  C   UNL     1       4.015   3.493  17.298  0.00  0.00    +0.000 C 
ATOM      6  O   UNL     1       3.524   3.009  16.294  0.00  0.00    +0.000 OA
ENDROOT
BRANCH   3   7
ATOM      7  C   UNL     1       3.783   6.328  18.758  0.00  0.00    +0.000 A 
ATOM      8  C   UNL     1       3.757   7.265  17.713  0.00  0.00    +0.000 A 
ATOM      9  C   UNL     1       2.811   8.291  17.698  0.00  0.00    +0.000 A 
ATOM     10  C   UNL     1       1.871   8.395  18.721  0.00  0.00    +0.000 A 
ATOM     11  C   UNL     1       1.880   7.475  19.762  0.00  0.00    +0.000 A 
ATOM     12  C   UNL     1       2.831   6.454  19.783  0.00  0.00    +0.000 A 
ENDBRANCH   3   7
BRANCH   1  13
ATOM     13  C   UNL     1       2.729   2.180  19.030  0.00  0.00    +0.000 C 
BRANCH  13  14
ATOM     14  C   UNL     1       1.301   2.713  18.960  0.00  0.00    +0.000 C 
BRANCH  14  16
ATOM     15  C   UNL     1       1.439   2.764  21.470  0.00  0.00    +0.000 C 
ATOM     16  C   UNL     1       0.888   3.454  20.232  0.00  0.00    +0.000 C 
ENDBRANCH  14  16
ENDBRANCH  13  14
ENDBRANCH   1  13
BRANCH   4  17
ATOM     17  C   UNL     1       5.058   5.492  16.128  0.00  0.00    +0.000 C 
BRANCH  17  18
ATOM     18  C   UNL     1       6.081   5.076  15.091  0.00  0.00    +0.000 C 
ATOM     19  O   UNL     1       7.246   5.463  15.099  0.00  0.00    +0.000 OA
ATOM     20  N   UNL     1       5.575   4.208  14.150  0.00  0.00    +0.000 N 
ATOM     21  C   UNL     1       6.359   3.739  13.035  0.00  0.00    +0.000 C 
ATOM     22  H   UNL     1       4.592   3.965  14.184  0.00  0.00    +0.000 HD
ENDBRANCH  17  18
ENDBRANCH   4  17
TORSDOF 6
ENDMDL
MODEL 9
REMARK VINA RESULT:      -6.9      3.146      5.516
REMARK  Name = 
REMARK  8 active torsions:
REMARK  status: ('A' for Active; 'I' for Inactive)
REMARK    1  A    between atoms: C_1  and  C_2
REMARK    2  A    between atoms: C_2  and  C_3
REMARK    3  A    between atoms: C_3  and  C_4
REMARK    4  A    between atoms: C_4  and  N_5
REMARK    5  A    between atoms: C_7  and  C_8
REMARK    6  A    between atoms: C_14  and  C_15
REMARK    7  A    between atoms: C_15  and  C_16
REMARK    8  A    between atoms: N_18  and  C_19
REMARK                            x       y       z     vdW  Elec       q    Type
REMARK                         _______ _______ _______ _____ _____    ______ ____
ROOT
ATOM      1  N   UNL     1       6.620   6.385  16.966  0.00  0.00    +0.000 N 
ATOM      2  C   UNL     1       5.205   6.671  17.049  0.00  0.00    +0.000 C 
ATOM      3  C   UNL     1       4.547   5.464  16.375  0.00  0.00    +0.000 C 
ATOM      4  C   UNL     1       5.601   5.083  15.309  0.00  0.00    +0.000 C 
ATOM      5  C   UNL     1       6.901   5.401  16.022  0.00  0.00    +0.000 C 
ATOM      6  O   UNL     1       7.987   4.897  15.795  0.00  0.00    +0.000 OA
ENDROOT
BRANCH   3   7
ATOM      7  C   UNL     1       4.195   4.367  17.373  0.00  0.00    +0.000 A 
ATOM      8  C   UNL     1       3.111   3.519  17.098  0.00  0.00    +0.000 A 
ATOM      9  C   UNL     1       2.763   2.495  17.981  0.00  0.00    +0.000 A 
ATOM     10  C   UNL     1       3.494   2.297  19.149  0.00  0.00    +0.000 A 
ATOM     11  C   UNL     1       4.571   3.124  19.438  0.00  0.00    +0.000 A 
ATOM     12  C   UNL     1       4.915   4.154  18.560  0.00  0.00    +0.000 A 
ENDBRANCH   3   7
BRANCH   1  13
ATOM     13  C   UNL     1       7.577   6.950  17.898  0.00  0.00    +0.000 C 
BRANCH  13  14
ATOM     14  C   UNL     1       7.863   8.428  17.649  0.00  0.00    +0.000 C 
BRANCH  14  16
ATOM     15  C   UNL     1       9.118  10.477  18.389  0.00  0.00    +0.000 C 
ATOM     16  C   UNL     1       8.726   9.052  18.747  0.00  0.00    +0.000 C 
ENDBRANCH  14  16
ENDBRANCH  13  14
ENDBRANCH   1  13
BRANCH   4  17
ATOM     17  C   UNL     1       5.550   3.671  14.743  0.00  0.00    +0.000 C 
BRANCH  17  18
ATOM     18  C   UNL     1       5.693   3.661  13.235  0.00  0.00    +0.000 C 
ATOM     19  O   UNL     1       6.744   3.917  12.655  0.00  0.00    +0.000 OA
ATOM     20  N   UNL     1       4.530   3.319  12.584  0.00  0.00    +0.000 N 
ATOM     21  C   UNL     1       4.426   3.311  11.146  0.00  0.00    +0.000 C 
ATOM     22  H   UNL     1       3.690   3.160  13.129  0.00  0.00    +0.000 HD
ENDBRANCH  17  18
ENDBRANCH   4  17
TORSDOF 6
ENDMDL
