MODEL 1
REMARK VINA RESULT:      -8.0      0.000      0.000
REMARK  Name = 
REMARK  7 active torsions:
REMARK  status: ('A' for Active; 'I' for Inactive)
REMARK    1  A    between atoms: C_1  and  C_2
REMARK    2  A    between atoms: C_2  and  C_3
REMARK    3  A    between atoms: C_3  and  C_4
REMARK    4  A    between atoms: C_4  and  N_5
REMARK    5  A    between atoms: C_6  and  N_7
REMARK    6  A    between atoms: C_8  and  C_10
REMARK    7  A    between atoms: C_15  and  C_16
REMARK                            x       y       z     vdW  Elec       q    Type
REMARK                         _______ _______ _______ _____ _____    ______ ____
ROOT
ATOM      1  N   UNL     1       4.868   5.256  17.393  0.00  0.00    +0.000 N 
ATOM      2  C   UNL     1       5.626   4.874  18.542  0.00  0.00    +0.000 A 
ATOM      3  C   UNL     1       4.616   4.247  19.273  0.00  0.00    +0.000 A 
ATOM      4  C   UNL     1       3.550   5.142  19.192  0.00  0.00    +0.000 A 
ATOM      5  N   UNL     1       2.580   5.443  20.093  0.00  0.00    +0.000 NA
ATOM      6  C   UNL     1       2.083   6.671  19.929  0.00  0.00    +0.000 A 
ATOM      7  C   UNL     1       1.339   7.184  20.990  0.00  0.00    +0.000 A 
ATOM      8  C   UNL     1       0.869   8.494  20.990  0.00  0.00    +0.000 A 
ATOM      9  C   UNL     1       1.135   9.298  19.894  0.00  0.00    +0.000 A 
ATOM     10  C   UNL     1       1.866   8.780  18.809  0.00  0.00    +0.000 A 
ATOM     11  C   UNL     1       2.366   7.474  18.784  0.00  0.00    +0.000 A 
ATOM     12  N   UNL     1       3.146   7.041  17.740  0.00  0.00    +0.000 NA
ATOM     13  C   UNL     1       3.749   5.855  18.006  0.00  0.00    +0.000 A 
ENDROOT
BRANCH   2  14
ATOM     14  N   UNL     1       6.552   5.845  18.969  0.00  0.00    +0.000 N 
ATOM     15  C   UNL     1       7.477   6.234  18.008  0.00  0.00    +0.000 C 
ATOM     16  O   UNL     1       7.864   5.486  17.119  0.00  0.00    +0.000 OA
ATOM     17  H   UNL     1       6.153   6.641  19.467  0.00  0.00    +0.000 HD
BRANCH  15  18
ATOM     18  C   UNL     1       7.919   7.617  18.100  0.00  0.00    +0.000 A 
ATOM     19  C   UNL     1       7.530   8.724  17.368  0.00  0.00    +0.000 A 
ATOM     20  C   UNL     1       8.225   9.834  17.899  0.00  0.00    +0.000 A 
ATOM     21  C   UNL     1       8.996   9.344  18.926  0.00  0.00    +0.000 A 
ATOM     22  O   UNL     1       8.824   7.996  19.057  0.00  0.00    +0.000 OA
ENDBRANCH  15  18
ENDBRANCH   2  14
BRANCH   3  23
ATOM     23  C   UNL     1       4.547   2.905  19.731  0.00  0.00    +0.000 C 
ATOM     24  N   UNL     1       4.653   1.810  20.103  0.00  0.00    +0.000 NA
ENDBRANCH   3  23
BRANCH   1  25
ATOM     25  C   UNL     1       4.952   4.261  16.316  0.00  0.00    +0.000 C 
BRANCH  25  26
ATOM     26  C   UNL     1       5.219   4.592  14.847  0.00  0.00    +0.000 C 
BRANCH  26  28
ATOM     27  C   UNL     1       6.055   3.498  12.762  0.00  0.00    +0.000 C 
ATOM     28  C   UNL     1       6.429   3.973  14.166  0.00  0.00    +0.000 C 
ENDBRANCH  26  28
ENDBRANCH  25  26
ENDBRANCH   1  25
TORSDOF 6
ENDMDL
MODEL 2
REMARK VINA RESULT:      -7.4      5.124      8.669
REMARK  Name = 
REMARK  7 active torsions:
REMARK  status: ('A' for Active; 'I' for Inactive)
REMARK    1  A    between atoms: C_1  and  C_2
REMARK    2  A    between atoms: C_2  and  C_3
REMARK    3  A    between atoms: C_3  and  C_4
REMARK    4  A    between atoms: C_4  and  N_5
REMARK    5  A    between atoms: C_6  and  N_7
REMARK    6  A    between atoms: C_8  and  C_10
REMARK    7  A    between atoms: C_15  and  C_16
REMARK                            x       y       z     vdW  Elec       q    Type
REMARK                         _______ _______ _______ _____ _____    ______ ____
ROOT
ATOM      1  N   UNL     1       0.870  10.742  19.148  0.00  0.00    +0.000 N 
ATOM      2  C   UNL     1      -0.398  10.502  19.761  0.00  0.00    +0.000 A 
ATOM      3  C   UNL     1       0.040   9.934  20.958  0.00  0.00    +0.000 A 
ATOM      4  C   UNL     1       0.998   9.007  20.548  0.00  0.00    +0.000 A 
ATOM      5  N   UNL     1       1.330   7.795  21.062  0.00  0.00    +0.000 NA
ATOM      6  C   UNL     1       1.862   6.974  20.153  0.00  0.00    +0.000 A 
ATOM      7  C   UNL     1       1.921   5.625  20.498  0.00  0.00    +0.000 A 
ATOM      8  C   UNL     1       2.343   4.655  19.593  0.00  0.00    +0.000 A 
ATOM      9  C   UNL     1       2.731   5.052  18.324  0.00  0.00    +0.000 A 
ATOM     10  C   UNL     1       2.696   6.414  17.976  0.00  0.00    +0.000 A 
ATOM     11  C   UNL     1       2.262   7.411  18.856  0.00  0.00    +0.000 A 
ATOM     12  N   UNL     1       2.165   8.718  18.442  0.00  0.00    +0.000 NA
ATOM     13  C   UNL     1       1.490   9.489  19.331  0.00  0.00    +0.000 A 
ENDROOT
BRANCH   2  14
ATOM     14  N   UNL     1      -1.387  10.038  18.873  0.00  0.00    +0.000 N 
ATOM     15  C   UNL     1      -2.208  11.026  18.343  0.00  0.00    +0.000 C 
ATOM     16  O   UNL     1      -2.478  12.057  18.946  0.00  0.00    +0.000 OA
ATOM     17  H   UNL     1      -1.063   9.382  18.162  0.00  0.00    +0.000 HD
BRANCH  15  18
ATOM     18  C   UNL     1      -2.689  10.772  16.993  0.00  0.00    +0.000 A 
ATOM     19  C   UNL     1      -2.257   9.852  16.055  0.00  0.00    +0.000 A 
ATOM     20  C   UNL     1      -3.101   9.984  14.930  0.00  0.00    +0.000 A 
ATOM     21  C   UNL     1      -4.002  10.973  15.244  0.00  0.00    +0.000 A 
ATOM     22  O   UNL     1      -3.761  11.466  16.495  0.00  0.00    +0.000 OA
ENDBRANCH  15  18
ENDBRANCH   2  14
BRANCH   3  23
ATOM     23  C   UNL     1      -0.178  10.376  22.289  0.00  0.00    +0.000 C 
ATOM     24  N   UNL     1      -0.474  10.626  23.383  0.00  0.00    +0.000 NA
ENDBRANCH   3  23
BRANCH   1  25
ATOM     25  C   UNL     1       1.363  12.101  19.405  0.00  0.00    +0.000 C 
BRANCH  25  26
ATOM     26  C   UNL     1       1.767  13.099  18.319  0.00  0.00    +0.000 C 
BRANCH  26  28
ATOM     27  C   UNL     1       3.100  15.161  17.854  0.00  0.00    +0.000 C 
ATOM     28  C   UNL     1       3.151  13.727  18.381  0.00  0.00    +0.000 C 
ENDBRANCH  26  28
ENDBRANCH  25  26
ENDBRANCH   1  25
TORSDOF 6
ENDMDL
MODEL 3
REMARK VINA RESULT:      -7.4      5.037      8.947
REMARK  Name = 
REMARK  7 active torsions:
REMARK  status: ('A' for Active; 'I' for Inactive)
REMARK    1  A    between atoms: C_1  and  C_2
REMARK    2  A    between atoms: C_2  and  C_3
REMARK    3  A    between atoms: C_3  and  C_4
REMARK    4  A    between atoms: C_4  and  N_5
REMARK    5  A    between atoms: C_6  and  N_7
REMARK    6  A    between atoms: C_8  and  C_10
REMARK    7  A    between atoms: C_15  and  C_16
REMARK                            x       y       z     vdW  Elec       q    Type
REMARK                         _______ _______ _______ _____ _____    ______ ____
ROOT
ATOM      1  N   UNL     1       0.867  10.756  18.946  0.00  0.00    +0.000 N 
ATOM      2  C   UNL     1      -0.415  10.554  19.543  0.00  0.00    +0.000 A 
ATOM      3  C   UNL     1      -0.005  10.058  20.781  0.00  0.00    +0.000 A 
ATOM      4  C   UNL     1       0.961   9.108  20.450  0.00  0.00    +0.000 A 
ATOM      5  N   UNL     1       1.279   7.929  21.043  0.00  0.00    +0.000 NA
ATOM      6  C   UNL     1       1.831   7.056  20.197  0.00  0.00    +0.000 A 
ATOM      7  C   UNL     1       1.881   5.730  20.624  0.00  0.00    +0.000 A 
ATOM      8  C   UNL     1       2.322   4.707  19.788  0.00  0.00    +0.000 A 
ATOM      9  C   UNL     1       2.739   5.027  18.507  0.00  0.00    +0.000 A 
ATOM     10  C   UNL     1       2.713   6.366  18.077  0.00  0.00    +0.000 A 
ATOM     11  C   UNL     1       2.261   7.414  18.885  0.00  0.00    +0.000 A 
ATOM     12  N   UNL     1       2.175   8.694  18.392  0.00  0.00    +0.000 NA
ATOM     13  C   UNL     1       1.480   9.516  19.218  0.00  0.00    +0.000 A 
ENDROOT
BRANCH   2  14
ATOM     14  N   UNL     1      -1.385  10.036  18.662  0.00  0.00    +0.000 N 
ATOM     15  C   UNL     1      -2.367  10.941  18.277  0.00  0.00    +0.000 C 
ATOM     16  O   UNL     1      -2.739  11.861  18.995  0.00  0.00    +0.000 OA
ATOM     17  H   UNL     1      -1.019   9.504  17.873  0.00  0.00    +0.000 HD
BRANCH  15  18
ATOM     18  C   UNL     1      -2.892  10.749  16.935  0.00  0.00    +0.000 A 
ATOM     19  C   UNL     1      -4.049  11.239  16.355  0.00  0.00    +0.000 A 
ATOM     20  C   UNL     1      -4.055  10.799  15.012  0.00  0.00    +0.000 A 
ATOM     21  C   UNL     1      -2.903  10.068  14.846  0.00  0.00    +0.000 A 
ATOM     22  O   UNL     1      -2.187  10.025  16.008  0.00  0.00    +0.000 OA
ENDBRANCH  15  18
ENDBRANCH   2  14
BRANCH   3  23
ATOM     23  C   UNL     1      -0.253  10.580  22.078  0.00  0.00    +0.000 C 
ATOM     24  N   UNL     1      -0.410  10.860  23.193  0.00  0.00    +0.000 NA
ENDBRANCH   3  23
BRANCH   1  25
ATOM     25  C   UNL     1       1.356  12.128  19.132  0.00  0.00    +0.000 C 
BRANCH  25  26
ATOM     26  C   UNL     1       0.671  13.378  18.577  0.00  0.00    +0.000 C 
BRANCH  26  28
ATOM     27  C   UNL     1      -0.266  15.685  18.789  0.00  0.00    +0.000 C 
ATOM     28  C   UNL     1       0.647  14.638  19.428  0.00  0.00    +0.000 C 
ENDBRANCH  26  28
ENDBRANCH  25  26
ENDBRANCH   1  25
TORSDOF 6
ENDMDL
MODEL 4
REMARK VINA RESULT:      -7.3      2.226      2.952
REMARK  Name = 
REMARK  7 active torsions:
REMARK  status: ('A' for Active; 'I' for Inactive)
REMARK    1  A    between atoms: C_1  and  C_2
REMARK    2  A    between atoms: C_2  and  C_3
REMARK    3  A    between atoms: C_3  and  C_4
REMARK    4  A    between atoms: C_4  and  N_5
REMARK    5  A    between atoms: C_6  and  N_7
REMARK    6  A    between atoms: C_8  and  C_10
REMARK    7  A    between atoms: C_15  and  C_16
REMARK                            x       y       z     vdW  Elec       q    Type
REMARK                         _______ _______ _______ _____ _____    ______ ____
ROOT
ATOM      1  N   UNL     1       3.003   5.320  18.432  0.00  0.00    +0.000 N 
ATOM      2  C   UNL     1       3.728   5.040  19.630  0.00  0.00    +0.000 A 
ATOM      3  C   UNL     1       2.667   5.038  20.535  0.00  0.00    +0.000 A 
ATOM      4  C   UNL     1       1.950   6.186  20.200  0.00  0.00    +0.000 A 
ATOM      5  N   UNL     1       1.249   7.047  20.980  0.00  0.00    +0.000 NA
ATOM      6  C   UNL     1       1.163   8.271  20.454  0.00  0.00    +0.000 A 
ATOM      7  C   UNL     1       0.763   9.289  21.319  0.00  0.00    +0.000 A 
ATOM      8  C   UNL     1       0.750  10.624  20.923  0.00  0.00    +0.000 A 
ATOM      9  C   UNL     1       1.128  10.939  19.629  0.00  0.00    +0.000 A 
ATOM     10  C   UNL     1       1.511   9.915  18.744  0.00  0.00    +0.000 A 
ATOM     11  C   UNL     1       1.551   8.567  19.114  0.00  0.00    +0.000 A 
ATOM     12  N   UNL     1       2.014   7.613  18.241  0.00  0.00    +0.000 NA
ATOM     13  C   UNL     1       2.224   6.419  18.849  0.00  0.00    +0.000 A 
ENDROOT
BRANCH   2  14
ATOM     14  N   UNL     1       4.966   5.706  19.722  0.00  0.00    +0.000 N 
ATOM     15  C   UNL     1       5.914   5.312  18.785  0.00  0.00    +0.000 C 
ATOM     16  O   UNL     1       5.954   4.181  18.318  0.00  0.00    +0.000 OA
ATOM     17  H   UNL     1       4.911   6.721  19.812  0.00  0.00    +0.000 HD
BRANCH  15  18
ATOM     18  C   UNL     1       6.831   6.357  18.357  0.00  0.00    +0.000 A 
ATOM     19  C   UNL     1       6.754   7.219  17.277  0.00  0.00    +0.000 A 
ATOM     20  C   UNL     1       7.875   8.075  17.353  0.00  0.00    +0.000 A 
ATOM     21  C   UNL     1       8.572   7.691  18.474  0.00  0.00    +0.000 A 
ATOM     22  O   UNL     1       7.951   6.644  19.092  0.00  0.00    +0.000 OA
ENDBRANCH  15  18
ENDBRANCH   2  14
BRANCH   3  23
ATOM     23  C   UNL     1       2.220   3.992  21.384  0.00  0.00    +0.000 C 
ATOM     24  N   UNL     1       1.998   3.067  22.050  0.00  0.00    +0.000 NA
ENDBRANCH   3  23
BRANCH   1  25
ATOM     25  C   UNL     1       2.626   4.097  17.711  0.00  0.00    +0.000 C 
BRANCH  25  26
ATOM     26  C   UNL     1       3.086   2.688  18.090  0.00  0.00    +0.000 C 
BRANCH  26  28
ATOM     27  C   UNL     1       0.693   2.357  18.726  0.00  0.00    +0.000 C 
ATOM     28  C   UNL     1       2.044   1.671  18.525  0.00  0.00    +0.000 C 
ENDBRANCH  26  28
ENDBRANCH  25  26
ENDBRANCH   1  25
TORSDOF 6
ENDMDL
MODEL 5
REMARK VINA RESULT:      -7.1      4.596      7.693
REMARK  Name = 
REMARK  7 active torsions:
REMARK  status: ('A' for Active; 'I' for Inactive)
REMARK    1  A    between atoms: C_1  and  C_2
REMARK    2  A    between atoms: C_2  and  C_3
REMARK    3  A    between atoms: C_3  and  C_4
REMARK    4  A    between atoms: C_4  and  N_5
REMARK    5  A    between atoms: C_6  and  N_7
REMARK    6  A    between atoms: C_8  and  C_10
REMARK    7  A    between atoms: C_15  and  C_16
REMARK                            x       y       z     vdW  Elec       q    Type
REMARK                         _______ _______ _______ _____ _____    ______ ____
ROOT
ATOM      1  N   UNL     1       0.148  10.703  18.912  0.00  0.00    +0.000 N 
ATOM      2  C   UNL     1       0.663   9.828  19.917  0.00  0.00    +0.000 A 
ATOM      3  C   UNL     1       0.540  10.668  21.024  0.00  0.00    +0.000 A 
ATOM      4  C   UNL     1       1.063  11.880  20.575  0.00  0.00    +0.000 A 
ATOM      5  N   UNL     1       1.763  12.838  21.234  0.00  0.00    +0.000 NA
ATOM      6  C   UNL     1       2.547  13.556  20.427  0.00  0.00    +0.000 A 
ATOM      7  C   UNL     1       3.534  14.321  21.045  0.00  0.00    +0.000 A 
ATOM      8  C   UNL     1       4.489  15.019  20.309  0.00  0.00    +0.000 A 
ATOM      9  C   UNL     1       4.437  14.961  18.926  0.00  0.00    +0.000 A 
ATOM     10  C   UNL     1       3.429  14.209  18.295  0.00  0.00    +0.000 A 
ATOM     11  C   UNL     1       2.466  13.484  19.005  0.00  0.00    +0.000 A 
ATOM     12  N   UNL     1       1.554  12.697  18.345  0.00  0.00    +0.000 NA
ATOM     13  C   UNL     1       0.878  11.877  19.189  0.00  0.00    +0.000 A 
ENDROOT
BRANCH   2  14
ATOM     14  N   UNL     1       1.776   9.069  19.503  0.00  0.00    +0.000 N 
ATOM     15  C   UNL     1       1.818   7.773  20.003  0.00  0.00    +0.000 C 
ATOM     16  O   UNL     1       1.339   7.466  21.087  0.00  0.00    +0.000 OA
ATOM     17  H   UNL     1       1.982   9.105  18.504  0.00  0.00    +0.000 HD
BRANCH  15  18
ATOM     18  C   UNL     1       2.431   6.791  19.122  0.00  0.00    +0.000 A 
ATOM     19  C   UNL     1       3.263   6.973  18.032  0.00  0.00    +0.000 A 
ATOM     20  C   UNL     1       3.620   5.687  17.568  0.00  0.00    +0.000 A 
ATOM     21  C   UNL     1       2.991   4.793  18.400  0.00  0.00    +0.000 A 
ATOM     22  O   UNL     1       2.260   5.450  19.349  0.00  0.00    +0.000 OA
ENDBRANCH  15  18
ENDBRANCH   2  14
BRANCH   3  23
ATOM     23  C   UNL     1      -0.205  10.470  22.216  0.00  0.00    +0.000 C 
ATOM     24  N   UNL     1      -0.742  10.444  23.245  0.00  0.00    +0.000 NA
ENDBRANCH   3  23
BRANCH   1  25
ATOM     25  C   UNL     1      -1.288  10.501  18.682  0.00  0.00    +0.000 C 
BRANCH  25  26
ATOM     26  C   UNL     1      -1.894   9.970  17.382  0.00  0.00    +0.000 C 
BRANCH  26  28
ATOM     27  C   UNL     1      -2.907  10.263  15.117  0.00  0.00    +0.000 C 
ATOM     28  C   UNL     1      -2.587  10.948  16.446  0.00  0.00    +0.000 C 
ENDBRANCH  26  28
ENDBRANCH  25  26
ENDBRANCH   1  25
TORSDOF 6
ENDMDL
MODEL 6
REMARK VINA RESULT:      -7.1      4.942      8.561
REMARK  Name = 
REMARK  7 active torsions:
REMARK  status: ('A' for Active; 'I' for Inactive)
REMARK    1  A    between atoms: C_1  and  C_2
REMARK    2  A    between atoms: C_2  and  C_3
REMARK    3  A    between atoms: C_3  and  C_4
REMARK    4  A    between atoms: C_4  and  N_5
REMARK    5  A    between atoms: C_6  and  N_7
REMARK    6  A    between atoms: C_8  and  C_10
REMARK    7  A    between atoms: C_15  and  C_16
REMARK                            x       y       z     vdW  Elec       q    Type
REMARK                         _______ _______ _______ _____ _____    ______ ____
ROOT
ATOM      1  N   UNL     1       1.546  10.271  18.312  0.00  0.00    +0.000 N 
ATOM      2  C   UNL     1       0.258  10.312  18.929  0.00  0.00    +0.000 A 
ATOM      3  C   UNL     1       0.617   9.908  20.215  0.00  0.00    +0.000 A 
ATOM      4  C   UNL     1       1.441   8.805  19.993  0.00  0.00    +0.000 A 
ATOM      5  N   UNL     1       1.607   7.668  20.716  0.00  0.00    +0.000 NA
ATOM      6  C   UNL     1       2.023   6.639  19.975  0.00  0.00    +0.000 A 
ATOM      7  C   UNL     1       1.900   5.375  20.549  0.00  0.00    +0.000 A 
ATOM      8  C   UNL     1       2.187   4.214  19.835  0.00  0.00    +0.000 A 
ATOM      9  C   UNL     1       2.623   4.329  18.525  0.00  0.00    +0.000 A 
ATOM     10  C   UNL     1       2.771   5.602  17.946  0.00  0.00    +0.000 A 
ATOM     11  C   UNL     1       2.476   6.786  18.630  0.00  0.00    +0.000 A 
ATOM     12  N   UNL     1       2.556   8.002  17.995  0.00  0.00    +0.000 NA
ATOM     13  C   UNL     1       1.991   8.998  18.723  0.00  0.00    +0.000 A 
ENDROOT
BRANCH   2  14
ATOM     14  N   UNL     1      -0.786   9.836  18.112  0.00  0.00    +0.000 N 
ATOM     15  C   UNL     1      -1.921  10.638  18.086  0.00  0.00    +0.000 C 
ATOM     16  O   UNL     1      -2.263  11.333  19.034  0.00  0.00    +0.000 OA
ATOM     17  H   UNL     1      -0.507   9.530  17.180  0.00  0.00    +0.000 HD
BRANCH  15  18
ATOM     18  C   UNL     1      -2.651  10.634  16.828  0.00  0.00    +0.000 A 
ATOM     19  C   UNL     1      -2.476   9.850  15.702  0.00  0.00    +0.000 A 
ATOM     20  C   UNL     1      -3.489  10.213  14.786  0.00  0.00    +0.000 A 
ATOM     21  C   UNL     1      -4.227  11.193  15.403  0.00  0.00    +0.000 A 
ATOM     22  O   UNL     1      -3.727  11.464  16.645  0.00  0.00    +0.000 OA
ENDBRANCH  15  18
ENDBRANCH   2  14
BRANCH   3  23
ATOM     23  C   UNL     1       0.462  10.601  21.444  0.00  0.00    +0.000 C 
ATOM     24  N   UNL     1       0.194  11.088  22.464  0.00  0.00    +0.000 NA
ENDBRANCH   3  23
BRANCH   1  25
ATOM     25  C   UNL     1       2.218  11.577  18.341  0.00  0.00    +0.000 C 
BRANCH  25  26
ATOM     26  C   UNL     1       1.497  12.925  18.367  0.00  0.00    +0.000 C 
BRANCH  26  28
ATOM     27  C   UNL     1       2.548  13.524  20.554  0.00  0.00    +0.000 C 
ATOM     28  C   UNL     1       2.088  14.055  19.195  0.00  0.00    +0.000 C 
ENDBRANCH  26  28
ENDBRANCH  25  26
ENDBRANCH   1  25
TORSDOF 6
ENDMDL
MODEL 7
REMARK VINA RESULT:      -6.9      2.548      4.339
REMARK  Name = 
REMARK  7 active torsions:
REMARK  status: ('A' for Active; 'I' for Inactive)
REMARK    1  A    between atoms: C_1  and  C_2
REMARK    2  A    between atoms: C_2  and  C_3
REMARK    3  A    between atoms: C_3  and  C_4
REMARK    4  A    between atoms: C_4  and  N_5
REMARK    5  A    between atoms: C_6  and  N_7
REMARK    6  A    between atoms: C_8  and  C_10
REMARK    7  A    between atoms: C_15  and  C_16
REMARK                            x       y       z     vdW  Elec       q    Type
REMARK                         _______ _______ _______ _____ _____    ______ ____
ROOT
ATOM      1  N   UNL     1       4.735   5.275  16.367  0.00  0.00    +0.000 N 
ATOM      2  C   UNL     1       5.561   6.004  17.276  0.00  0.00    +0.000 A 
ATOM      3  C   UNL     1       6.148   4.931  17.949  0.00  0.00    +0.000 A 
ATOM      4  C   UNL     1       5.069   4.094  18.232  0.00  0.00    +0.000 A 
ATOM      5  N   UNL     1       4.837   3.284  19.296  0.00  0.00    +0.000 NA
ATOM      6  C   UNL     1       3.537   3.069  19.511  0.00  0.00    +0.000 A 
ATOM      7  C   UNL     1       3.195   2.537  20.753  0.00  0.00    +0.000 A 
ATOM      8  C   UNL     1       1.868   2.379  21.143  0.00  0.00    +0.000 A 
ATOM      9  C   UNL     1       0.866   2.745  20.259  0.00  0.00    +0.000 A 
ATOM     10  C   UNL     1       1.203   3.261  18.995  0.00  0.00    +0.000 A 
ATOM     11  C   UNL     1       2.526   3.447  18.579  0.00  0.00    +0.000 A 
ATOM     12  N   UNL     1       2.804   4.034  17.368  0.00  0.00    +0.000 NA
ATOM     13  C   UNL     1       4.114   4.367  17.249  0.00  0.00    +0.000 A 
ENDROOT
BRANCH   2  14
ATOM     14  N   UNL     1       4.951   7.155  17.812  0.00  0.00    +0.000 N 
ATOM     15  C   UNL     1       3.933   7.693  17.034  0.00  0.00    +0.000 C 
ATOM     16  O   UNL     1       3.913   7.601  15.813  0.00  0.00    +0.000 OA
ATOM     17  H   UNL     1       4.694   7.095  18.797  0.00  0.00    +0.000 HD
BRANCH  15  18
ATOM     18  C   UNL     1       2.860   8.335  17.778  0.00  0.00    +0.000 A 
ATOM     19  C   UNL     1       2.245   7.953  18.957  0.00  0.00    +0.000 A 
ATOM     20  C   UNL     1       1.306   8.959  19.276  0.00  0.00    +0.000 A 
ATOM     21  C   UNL     1       1.401   9.899  18.278  0.00  0.00    +0.000 A 
ATOM     22  O   UNL     1       2.339   9.531  17.357  0.00  0.00    +0.000 OA
ENDBRANCH  15  18
ENDBRANCH   2  14
BRANCH   3  23
ATOM     23  C   UNL     1       7.521   4.590  18.059  0.00  0.00    +0.000 C 
ATOM     24  N   UNL     1       8.632   4.259  17.995  0.00  0.00    +0.000 NA
ENDBRANCH   3  23
BRANCH   1  25
ATOM     25  C   UNL     1       5.393   5.055  15.072  0.00  0.00    +0.000 C 
BRANCH  25  26
ATOM     26  C   UNL     1       5.704   3.681  14.477  0.00  0.00    +0.000 C 
BRANCH  26  28
ATOM     27  C   UNL     1       5.099   3.336  12.078  0.00  0.00    +0.000 C 
ATOM     28  C   UNL     1       6.242   3.603  13.058  0.00  0.00    +0.000 C 
ENDBRANCH  26  28
ENDBRANCH  25  26
ENDBRANCH   1  25
TORSDOF 6
ENDMDL
MODEL 8
REMARK VINA RESULT:      -6.7      7.740     11.236
REMARK  Name = 
REMARK  7 active torsions:
REMARK  status: ('A' for Active; 'I' for Inactive)
REMARK    1  A    between atoms: C_1  and  C_2
REMARK    2  A    between atoms: C_2  and  C_3
REMARK    3  A    between atoms: C_3  and  C_4
REMARK    4  A    between atoms: C_4  and  N_5
REMARK    5  A    between atoms: C_6  and  N_7
REMARK    6  A    between atoms: C_8  and  C_10
REMARK    7  A    between atoms: C_15  and  C_16
REMARK                            x       y       z     vdW  Elec       q    Type
REMARK                         _______ _______ _______ _____ _____    ______ ____
ROOT
ATOM      1  N   UNL     1      -2.074  11.627  22.546  0.00  0.00    +0.000 N 
ATOM      2  C   UNL     1      -1.604  12.495  21.514  0.00  0.00    +0.000 A 
ATOM      3  C   UNL     1      -1.379  13.642  22.276  0.00  0.00    +0.000 A 
ATOM      4  C   UNL     1      -2.536  13.753  23.047  0.00  0.00    +0.000 A 
ATOM      5  N   UNL     1      -3.199  14.852  23.490  0.00  0.00    +0.000 NA
ATOM      6  C   UNL     1      -4.496  14.622  23.708  0.00  0.00    +0.000 A 
ATOM      7  C   UNL     1      -5.310  15.746  23.837  0.00  0.00    +0.000 A 
ATOM      8  C   UNL     1      -6.694  15.641  23.948  0.00  0.00    +0.000 A 
ATOM      9  C   UNL     1      -7.268  14.380  23.949  0.00  0.00    +0.000 A 
ATOM     10  C   UNL     1      -6.451  13.240  23.842  0.00  0.00    +0.000 A 
ATOM     11  C   UNL     1      -5.060  13.312  23.713  0.00  0.00    +0.000 A 
ATOM     12  N   UNL     1      -4.313  12.174  23.526  0.00  0.00    +0.000 NA
ATOM     13  C   UNL     1      -3.035  12.453  23.164  0.00  0.00    +0.000 A 
ENDROOT
BRANCH   2  14
ATOM     14  N   UNL     1      -2.297  12.367  20.294  0.00  0.00    +0.000 N 
ATOM     15  C   UNL     1      -1.490  12.152  19.183  0.00  0.00    +0.000 C 
ATOM     16  O   UNL     1      -0.347  12.584  19.101  0.00  0.00    +0.000 OA
ATOM     17  H   UNL     1      -3.102  11.741  20.313  0.00  0.00    +0.000 HD
BRANCH  15  18
ATOM     18  C   UNL     1      -2.083  11.334  18.137  0.00  0.00    +0.000 A 
ATOM     19  C   UNL     1      -1.629  10.160  17.564  0.00  0.00    +0.000 A 
ATOM     20  C   UNL     1      -2.612   9.748  16.636  0.00  0.00    +0.000 A 
ATOM     21  C   UNL     1      -3.611  10.689  16.697  0.00  0.00    +0.000 A 
ATOM     22  O   UNL     1      -3.302  11.663  17.603  0.00  0.00    +0.000 OA
ENDBRANCH  15  18
ENDBRANCH   2  14
BRANCH   3  23
ATOM     23  C   UNL     1      -0.171  14.360  22.475  0.00  0.00    +0.000 C 
ATOM     24  N   UNL     1       0.741  15.072  22.567  0.00  0.00    +0.000 NA
ENDBRANCH   3  23
BRANCH   1  25
ATOM     25  C   UNL     1      -0.995  10.815  23.124  0.00  0.00    +0.000 C 
BRANCH  25  26
ATOM     26  C   UNL     1      -0.432   9.541  22.492  0.00  0.00    +0.000 C 
BRANCH  26  28
ATOM     27  C   UNL     1       0.764   9.353  20.307  0.00  0.00    +0.000 C 
ATOM     28  C   UNL     1       0.924   9.603  21.807  0.00  0.00    +0.000 C 
ENDBRANCH  26  28
ENDBRANCH  25  26
ENDBRANCH   1  25
TORSDOF 6
ENDMDL
MODEL 9
REMARK VINA RESULT:      -6.6      4.474      7.963
REMARK  Name = 
REMARK  7 active torsions:
REMARK  status: ('A' for Active; 'I' for Inactive)
REMARK    1  A    between atoms: C_1  and  C_2
REMARK    2  A    between atoms: C_2  and  C_3
REMARK    3  A    between atoms: C_3  and  C_4
REMARK    4  A    between atoms: C_4  and  N_5
REMARK    5  A    between atoms: C_6  and  N_7
REMARK    6  A    between atoms: C_8  and  C_10
REMARK    7  A    between atoms: C_15  and  C_16
REMARK                            x       y       z     vdW  Elec       q    Type
REMARK                         _______ _______ _______ _____ _____    ______ ____
ROOT
ATOM      1  N   UNL     1       0.187  10.528  18.920  0.00  0.00    +0.000 N 
ATOM      2  C   UNL     1       0.682   9.704  19.976  0.00  0.00    +0.000 A 
ATOM      3  C   UNL     1       0.497  10.580  21.045  0.00  0.00    +0.000 A 
ATOM      4  C   UNL     1       1.010  11.787  20.570  0.00  0.00    +0.000 A 
ATOM      5  N   UNL     1       1.662  12.785  21.219  0.00  0.00    +0.000 NA
ATOM      6  C   UNL     1       2.462  13.491  20.416  0.00  0.00    +0.000 A 
ATOM      7  C   UNL     1       3.407  14.301  21.041  0.00  0.00    +0.000 A 
ATOM      8  C   UNL     1       4.374  14.993  20.317  0.00  0.00    +0.000 A 
ATOM      9  C   UNL     1       4.378  14.883  18.936  0.00  0.00    +0.000 A 
ATOM     10  C   UNL     1       3.412  14.085  18.296  0.00  0.00    +0.000 A 
ATOM     11  C   UNL     1       2.438  13.364  18.996  0.00  0.00    +0.000 A 
ATOM     12  N   UNL     1       1.570  12.531  18.332  0.00  0.00    +0.000 NA
ATOM     13  C   UNL     1       0.880  11.729  19.180  0.00  0.00    +0.000 A 
ENDROOT
BRANCH   2  14
ATOM     14  N   UNL     1       1.826   8.956  19.634  0.00  0.00    +0.000 N 
ATOM     15  C   UNL     1       1.850   7.661  20.137  0.00  0.00    +0.000 C 
ATOM     16  O   UNL     1       1.307   7.349  21.190  0.00  0.00    +0.000 OA
ATOM     17  H   UNL     1       2.095   8.993  18.651  0.00  0.00    +0.000 HD
BRANCH  15  18
ATOM     18  C   UNL     1       2.528   6.685  19.299  0.00  0.00    +0.000 A 
ATOM     19  C   UNL     1       3.022   6.809  18.013  0.00  0.00    +0.000 A 
ATOM     20  C   UNL     1       3.637   5.580  17.688  0.00  0.00    +0.000 A 
ATOM     21  C   UNL     1       3.488   4.775  18.791  0.00  0.00    +0.000 A 
ATOM     22  O   UNL     1       2.811   5.432  19.778  0.00  0.00    +0.000 OA
ENDBRANCH  15  18
ENDBRANCH   2  14
BRANCH   3  23
ATOM     23  C   UNL     1      -0.289  10.410  22.215  0.00  0.00    +0.000 C 
ATOM     24  N   UNL     1      -0.922  10.110  23.141  0.00  0.00    +0.000 NA
ENDBRANCH   3  23
BRANCH   1  25
ATOM     25  C   UNL     1      -1.234  10.283  18.643  0.00  0.00    +0.000 C 
BRANCH  25  26
ATOM     26  C   UNL     1      -2.183  11.299  18.005  0.00  0.00    +0.000 C 
BRANCH  26  28
ATOM     27  C   UNL     1      -2.687  12.511  20.132  0.00  0.00    +0.000 C 
ATOM     28  C   UNL     1      -3.284  11.909  18.859  0.00  0.00    +0.000 C 
ENDBRANCH  26  28
ENDBRANCH  25  26
ENDBRANCH   1  25
TORSDOF 6
ENDMDL
