MODEL 1
REMARK VINA RESULT:      -7.7      0.000      0.000
REMARK  Name = 
REMARK  3 active torsions:
REMARK  status: ('A' for Active; 'I' for Inactive)
REMARK    1  A    between atoms: C_4  and  C_5
REMARK    2  A    between atoms: N_13  and  C_14
REMARK    3  A    between atoms: N_21  and  C_22
REMARK                            x       y       z     vdW  Elec       q    Type
REMARK                         _______ _______ _______ _____ _____    ______ ____
ROOT
ATOM      1  O   UNL     1      -2.746  12.915  20.407  0.00  0.00    +0.000 OA
ATOM      2  C   UNL     1      -1.821  12.146  20.601  0.00  0.00    +0.000 C 
ATOM      3  C   UNL     1      -1.173  11.862  21.901  0.00  0.00    +0.000 C 
ATOM      4  C   UNL     1      -1.439  12.367  23.115  0.00  0.00    +0.000 C 
ATOM      5  C   UNL     1      -0.171  10.788  21.711  0.00  0.00    +0.000 C 
ATOM      6  O   UNL     1       0.595  10.386  22.570  0.00  0.00    +0.000 OA
ATOM      7  N   UNL     1      -0.295  10.414  20.367  0.00  0.00    +0.000 N 
ATOM      8  N   UNL     1      -1.181  11.293  19.685  0.00  0.00    +0.000 N 
ENDROOT
BRANCH   7   9
ATOM      9  C   UNL     1       0.691   9.630  19.713  0.00  0.00    +0.000 A 
ATOM     10  C   UNL     1       1.146   8.444  20.308  0.00  0.00    +0.000 A 
ATOM     11  C   UNL     1       2.054   7.616  19.640  0.00  0.00    +0.000 A 
ATOM     12  C   UNL     1       2.539   7.985  18.387  0.00  0.00    +0.000 A 
ATOM     13 CL   UNL     1       3.649   6.966  17.562  0.00  0.00    +0.000 Cl
ATOM     14  C   UNL     1       2.124   9.176  17.798  0.00  0.00    +0.000 A 
ATOM     15  C   UNL     1       1.196   9.990  18.456  0.00  0.00    +0.000 A 
ENDBRANCH   7   9
BRANCH   8  16
ATOM     16  C   UNL     1      -1.857  10.948  18.487  0.00  0.00    +0.000 A 
ATOM     17  C   UNL     1      -1.788  11.831  17.401  0.00  0.00    +0.000 A 
ATOM     18  C   UNL     1      -2.401  11.513  16.189  0.00  0.00    +0.000 A 
ATOM     19  C   UNL     1      -3.120  10.327  16.069  0.00  0.00    +0.000 A 
ATOM     20 CL   UNL     1      -3.901   9.950  14.583  0.00  0.00    +0.000 Cl
ATOM     21  C   UNL     1      -3.212   9.447  17.146  0.00  0.00    +0.000 A 
ATOM     22  C   UNL     1      -2.568   9.749  18.351  0.00  0.00    +0.000 A 
ENDBRANCH   8  16
BRANCH   4  23
ATOM     23  C   UNL     1      -2.561  13.243  23.419  0.00  0.00    +0.000 A 
ATOM     24  C   UNL     1      -3.805  12.654  23.691  0.00  0.00    +0.000 A 
ATOM     25  C   UNL     1      -4.921  13.446  23.968  0.00  0.00    +0.000 A 
ATOM     26  C   UNL     1      -4.805  14.833  23.973  0.00  0.00    +0.000 A 
ATOM     27  C   UNL     1      -3.569  15.428  23.709  0.00  0.00    +0.000 A 
ATOM     28  C   UNL     1      -2.448  14.636  23.435  0.00  0.00    +0.000 A 
ENDBRANCH   4  23
TORSDOF 3
ENDMDL
MODEL 2
REMARK VINA RESULT:      -7.6      0.140      1.297
REMARK  Name = 
REMARK  3 active torsions:
REMARK  status: ('A' for Active; 'I' for Inactive)
REMARK    1  A    between atoms: C_4  and  C_5
REMARK    2  A    between atoms: N_13  and  C_14
REMARK    3  A    between atoms: N_21  and  C_22
REMARK                            x       y       z     vdW  Elec       q    Type
REMARK                         _______ _______ _______ _____ _____    ______ ____
ROOT
ATOM      1  O   UNL     1      -2.622  12.926  20.424  0.00  0.00    +0.000 OA
ATOM      2  C   UNL     1      -1.724  12.127  20.623  0.00  0.00    +0.000 C 
ATOM      3  C   UNL     1      -1.119  11.794  21.932  0.00  0.00    +0.000 C 
ATOM      4  C   UNL     1      -1.403  12.277  23.151  0.00  0.00    +0.000 C 
ATOM      5  C   UNL     1      -0.141  10.698  21.742  0.00  0.00    +0.000 C 
ATOM      6  O   UNL     1       0.590  10.254  22.611  0.00  0.00    +0.000 OA
ATOM      7  N   UNL     1      -0.240  10.359  20.387  0.00  0.00    +0.000 N 
ATOM      8  N   UNL     1      -1.082  11.279  19.703  0.00  0.00    +0.000 N 
ENDROOT
BRANCH   7   9
ATOM      9  C   UNL     1       0.742   9.564  19.740  0.00  0.00    +0.000 A 
ATOM     10  C   UNL     1       1.190   8.380  20.344  0.00  0.00    +0.000 A 
ATOM     11  C   UNL     1       2.092   7.541  19.683  0.00  0.00    +0.000 A 
ATOM     12  C   UNL     1       2.580   7.898  18.428  0.00  0.00    +0.000 A 
ATOM     13 CL   UNL     1       3.685   6.865  17.611  0.00  0.00    +0.000 Cl
ATOM     14  C   UNL     1       2.173   9.086  17.829  0.00  0.00    +0.000 A 
ATOM     15  C   UNL     1       1.250   9.911  18.479  0.00  0.00    +0.000 A 
ENDBRANCH   7   9
BRANCH   8  16
ATOM     16  C   UNL     1      -1.736  10.982  18.480  0.00  0.00    +0.000 A 
ATOM     17  C   UNL     1      -2.459   9.786  18.380  0.00  0.00    +0.000 A 
ATOM     18  C   UNL     1      -3.153   9.473  17.211  0.00  0.00    +0.000 A 
ATOM     19  C   UNL     1      -3.096  10.338  16.121  0.00  0.00    +0.000 A 
ATOM     20 CL   UNL     1      -3.928   9.937  14.670  0.00  0.00    +0.000 Cl
ATOM     21  C   UNL     1      -2.365  11.523  16.200  0.00  0.00    +0.000 A 
ATOM     22  C   UNL     1      -1.698  11.854  17.384  0.00  0.00    +0.000 A 
ENDBRANCH   8  16
BRANCH   4  23
ATOM     23  C   UNL     1      -2.510  13.176  23.447  0.00  0.00    +0.000 A 
ATOM     24  C   UNL     1      -2.241  14.551  23.526  0.00  0.00    +0.000 A 
ATOM     25  C   UNL     1      -3.259  15.457  23.829  0.00  0.00    +0.000 A 
ATOM     26  C   UNL     1      -4.553  14.998  24.057  0.00  0.00    +0.000 A 
ATOM     27  C   UNL     1      -4.830  13.633  23.975  0.00  0.00    +0.000 A 
ATOM     28  C   UNL     1      -3.812  12.722  23.668  0.00  0.00    +0.000 A 
ENDBRANCH   4  23
TORSDOF 3
ENDMDL
MODEL 3
REMARK VINA RESULT:      -7.6      0.222      1.307
REMARK  Name = 
REMARK  3 active torsions:
REMARK  status: ('A' for Active; 'I' for Inactive)
REMARK    1  A    between atoms: C_4  and  C_5
REMARK    2  A    between atoms: N_13  and  C_14
REMARK    3  A    between atoms: N_21  and  C_22
REMARK                            x       y       z     vdW  Elec       q    Type
REMARK                         _______ _______ _______ _____ _____    ______ ____
ROOT
ATOM      1  O   UNL     1      -2.593  12.881  20.418  0.00  0.00    +0.000 OA
ATOM      2  C   UNL     1      -1.695  12.075  20.590  0.00  0.00    +0.000 C 
ATOM      3  C   UNL     1      -1.038  11.754  21.876  0.00  0.00    +0.000 C 
ATOM      4  C   UNL     1      -1.264  12.258  23.099  0.00  0.00    +0.000 C 
ATOM      5  C   UNL     1      -0.080  10.645  21.661  0.00  0.00    +0.000 C 
ATOM      6  O   UNL     1       0.683  10.206  22.504  0.00  0.00    +0.000 OA
ATOM      7  N   UNL     1      -0.241  10.288  20.316  0.00  0.00    +0.000 N 
ATOM      8  N   UNL     1      -1.103  11.206  19.656  0.00  0.00    +0.000 N 
ENDROOT
BRANCH   7   9
ATOM      9  C   UNL     1       0.704   9.473  19.639  0.00  0.00    +0.000 A 
ATOM     10  C   UNL     1       1.202   9.873  18.391  0.00  0.00    +0.000 A 
ATOM     11  C   UNL     1       2.196   9.127  17.749  0.00  0.00    +0.000 A 
ATOM     12  C   UNL     1       2.673   7.957  18.335  0.00  0.00    +0.000 A 
ATOM     13 CL   UNL     1       3.899   7.042  17.551  0.00  0.00    +0.000 Cl
ATOM     14  C   UNL     1       2.165   7.528  19.558  0.00  0.00    +0.000 A 
ATOM     15  C   UNL     1       1.191   8.289  20.211  0.00  0.00    +0.000 A 
ENDBRANCH   7   9
BRANCH   8  16
ATOM     16  C   UNL     1      -1.812  10.899  18.466  0.00  0.00    +0.000 A 
ATOM     17  C   UNL     1      -1.737  11.796  17.393  0.00  0.00    +0.000 A 
ATOM     18  C   UNL     1      -2.382  11.514  16.188  0.00  0.00    +0.000 A 
ATOM     19  C   UNL     1      -3.137  10.350  16.064  0.00  0.00    +0.000 A 
ATOM     20 CL   UNL     1      -3.956  10.017  14.589  0.00  0.00    +0.000 Cl
ATOM     21  C   UNL     1      -3.234   9.457  17.131  0.00  0.00    +0.000 A 
ATOM     22  C   UNL     1      -2.558   9.722  18.327  0.00  0.00    +0.000 A 
ENDBRANCH   8  16
BRANCH   4  23
ATOM     23  C   UNL     1      -2.347  13.173  23.430  0.00  0.00    +0.000 A 
ATOM     24  C   UNL     1      -2.059  14.545  23.489  0.00  0.00    +0.000 A 
ATOM     25  C   UNL     1      -3.053  15.466  23.823  0.00  0.00    +0.000 A 
ATOM     26  C   UNL     1      -4.343  15.025  24.102  0.00  0.00    +0.000 A 
ATOM     27  C   UNL     1      -4.641  13.663  24.039  0.00  0.00    +0.000 A 
ATOM     28  C   UNL     1      -3.647  12.737  23.701  0.00  0.00    +0.000 A 
ENDBRANCH   4  23
TORSDOF 3
ENDMDL
MODEL 4
REMARK VINA RESULT:      -7.5      0.207      1.308
REMARK  Name = 
REMARK  3 active torsions:
REMARK  status: ('A' for Active; 'I' for Inactive)
REMARK    1  A    between atoms: C_4  and  C_5
REMARK    2  A    between atoms: N_13  and  C_14
REMARK    3  A    between atoms: N_21  and  C_22
REMARK                            x       y       z     vdW  Elec       q    Type
REMARK                         _______ _______ _______ _____ _____    ______ ____
ROOT
ATOM      1  O   UNL     1      -2.527  12.888  20.406  0.00  0.00    +0.000 OA
ATOM      2  C   UNL     1      -1.648  12.063  20.583  0.00  0.00    +0.000 C 
ATOM      3  C   UNL     1      -1.028  11.705  21.878  0.00  0.00    +0.000 C 
ATOM      4  C   UNL     1      -1.275  12.187  23.105  0.00  0.00    +0.000 C 
ATOM      5  C   UNL     1      -0.084  10.583  21.662  0.00  0.00    +0.000 C 
ATOM      6  O   UNL     1       0.651  10.114  22.514  0.00  0.00    +0.000 OA
ATOM      7  N   UNL     1      -0.218  10.256  20.307  0.00  0.00    +0.000 N 
ATOM      8  N   UNL     1      -1.048  11.203  19.646  0.00  0.00    +0.000 N 
ENDROOT
BRANCH   7   9
ATOM      9  C   UNL     1       0.729   9.439  19.636  0.00  0.00    +0.000 A 
ATOM     10  C   UNL     1       1.228   9.832  18.386  0.00  0.00    +0.000 A 
ATOM     11  C   UNL     1       2.224   9.084  17.750  0.00  0.00    +0.000 A 
ATOM     12  C   UNL     1       2.702   7.918  18.344  0.00  0.00    +0.000 A 
ATOM     13 CL   UNL     1       3.930   7.000  17.567  0.00  0.00    +0.000 Cl
ATOM     14  C   UNL     1       2.193   7.495  19.569  0.00  0.00    +0.000 A 
ATOM     15  C   UNL     1       1.216   8.258  20.216  0.00  0.00    +0.000 A 
ENDBRANCH   7   9
BRANCH   8  16
ATOM     16  C   UNL     1      -1.733  10.932  18.433  0.00  0.00    +0.000 A 
ATOM     17  C   UNL     1      -2.490   9.757  18.340  0.00  0.00    +0.000 A 
ATOM     18  C   UNL     1      -3.214   9.471  17.183  0.00  0.00    +0.000 A 
ATOM     19  C   UNL     1      -3.155  10.341  16.097  0.00  0.00    +0.000 A 
ATOM     20 CL   UNL     1      -4.025   9.973  14.660  0.00  0.00    +0.000 Cl
ATOM     21  C   UNL     1      -2.392  11.506  16.170  0.00  0.00    +0.000 A 
ATOM     22  C   UNL     1      -1.693  11.811  17.343  0.00  0.00    +0.000 A 
ENDBRANCH   8  16
BRANCH   4  23
ATOM     23  C   UNL     1      -2.350  13.115  23.428  0.00  0.00    +0.000 A 
ATOM     24  C   UNL     1      -3.623  12.586  23.693  0.00  0.00    +0.000 A 
ATOM     25  C   UNL     1      -4.695  13.430  23.986  0.00  0.00    +0.000 A 
ATOM     26  C   UNL     1      -4.507  14.808  24.016  0.00  0.00    +0.000 A 
ATOM     27  C   UNL     1      -3.243  15.343  23.760  0.00  0.00    +0.000 A 
ATOM     28  C   UNL     1      -2.164  14.499  23.468  0.00  0.00    +0.000 A 
ENDBRANCH   4  23
TORSDOF 3
ENDMDL
MODEL 5
REMARK VINA RESULT:      -6.9      0.598      1.109
REMARK  Name = 
REMARK  3 active torsions:
REMARK  status: ('A' for Active; 'I' for Inactive)
REMARK    1  A    between atoms: C_4  and  C_5
REMARK    2  A    between atoms: N_13  and  C_14
REMARK    3  A    between atoms: N_21  and  C_22
REMARK                            x       y       z     vdW  Elec       q    Type
REMARK                         _______ _______ _______ _____ _____    ______ ____
ROOT
ATOM      1  O   UNL     1      -2.666  13.350  20.286  0.00  0.00    +0.000 OA
ATOM      2  C   UNL     1      -1.867  12.491  20.612  0.00  0.00    +0.000 C 
ATOM      3  C   UNL     1      -1.344  12.250  21.976  0.00  0.00    +0.000 C 
ATOM      4  C   UNL     1      -1.613  12.898  23.119  0.00  0.00    +0.000 C 
ATOM      5  C   UNL     1      -0.485  11.044  21.953  0.00  0.00    +0.000 C 
ATOM      6  O   UNL     1       0.165  10.630  22.897  0.00  0.00    +0.000 OA
ATOM      7  N   UNL     1      -0.577  10.563  20.641  0.00  0.00    +0.000 N 
ATOM      8  N   UNL     1      -1.293  11.479  19.823  0.00  0.00    +0.000 N 
ENDROOT
BRANCH   7   9
ATOM      9  C   UNL     1       0.333   9.600  20.131  0.00  0.00    +0.000 A 
ATOM     10  C   UNL     1       0.895   9.778  18.858  0.00  0.00    +0.000 A 
ATOM     11  C   UNL     1       1.858   8.886  18.374  0.00  0.00    +0.000 A 
ATOM     12  C   UNL     1       2.238   7.790  19.146  0.00  0.00    +0.000 A 
ATOM     13 CL   UNL     1       3.426   6.696  18.555  0.00  0.00    +0.000 Cl
ATOM     14  C   UNL     1       1.665   7.580  20.397  0.00  0.00    +0.000 A 
ATOM     15  C   UNL     1       0.723   8.488  20.890  0.00  0.00    +0.000 A 
ENDBRANCH   7   9
BRANCH   8  16
ATOM     16  C   UNL     1      -1.935  11.112  18.612  0.00  0.00    +0.000 A 
ATOM     17  C   UNL     1      -1.751  11.923  17.485  0.00  0.00    +0.000 A 
ATOM     18  C   UNL     1      -2.328  11.578  16.262  0.00  0.00    +0.000 A 
ATOM     19  C   UNL     1      -3.124  10.438  16.171  0.00  0.00    +0.000 A 
ATOM     20 CL   UNL     1      -3.859  10.029  14.671  0.00  0.00    +0.000 Cl
ATOM     21  C   UNL     1      -3.329   9.631  17.290  0.00  0.00    +0.000 A 
ATOM     22  C   UNL     1      -2.722   9.958  18.507  0.00  0.00    +0.000 A 
ENDBRANCH   8  16
BRANCH   4  23
ATOM     23  C   UNL     1      -2.624  13.936  23.264  0.00  0.00    +0.000 A 
ATOM     24  C   UNL     1      -3.957  13.539  23.453  0.00  0.00    +0.000 A 
ATOM     25  C   UNL     1      -4.970  14.492  23.576  0.00  0.00    +0.000 A 
ATOM     26  C   UNL     1      -4.662  15.847  23.510  0.00  0.00    +0.000 A 
ATOM     27  C   UNL     1      -3.338  16.251  23.328  0.00  0.00    +0.000 A 
ATOM     28  C   UNL     1      -2.319  15.299  23.208  0.00  0.00    +0.000 A 
ENDBRANCH   4  23
TORSDOF 3
ENDMDL
MODEL 6
REMARK VINA RESULT:      -6.7      4.038      6.671
REMARK  Name = 
REMARK  3 active torsions:
REMARK  status: ('A' for Active; 'I' for Inactive)
REMARK    1  A    between atoms: C_4  and  C_5
REMARK    2  A    between atoms: N_13  and  C_14
REMARK    3  A    between atoms: N_21  and  C_22
REMARK                            x       y       z     vdW  Elec       q    Type
REMARK                         _______ _______ _______ _____ _____    ______ ____
ROOT
ATOM      1  O   UNL     1       2.681  12.988  21.251  0.00  0.00    +0.000 OA
ATOM      2  C   UNL     1       1.680  13.207  20.593  0.00  0.00    +0.000 C 
ATOM      3  C   UNL     1       1.364  14.457  19.866  0.00  0.00    +0.000 C 
ATOM      4  C   UNL     1       2.074  15.592  19.771  0.00  0.00    +0.000 C 
ATOM      5  C   UNL     1       0.107  14.264  19.106  0.00  0.00    +0.000 C 
ATOM      6  O   UNL     1      -0.469  15.134  18.475  0.00  0.00    +0.000 OA
ATOM      7  N   UNL     1      -0.243  12.926  19.325  0.00  0.00    +0.000 N 
ATOM      8  N   UNL     1       0.616  12.338  20.294  0.00  0.00    +0.000 N 
ENDROOT
BRANCH   7   9
ATOM      9  C   UNL     1      -1.538  12.431  19.020  0.00  0.00    +0.000 A 
ATOM     10  C   UNL     1      -2.594  12.642  19.917  0.00  0.00    +0.000 A 
ATOM     11  C   UNL     1      -3.894  12.237  19.595  0.00  0.00    +0.000 A 
ATOM     12  C   UNL     1      -4.138  11.586  18.388  0.00  0.00    +0.000 A 
ATOM     13 CL   UNL     1      -5.735  11.092  17.988  0.00  0.00    +0.000 Cl
ATOM     14  C   UNL     1      -3.095  11.338  17.501  0.00  0.00    +0.000 A 
ATOM     15  C   UNL     1      -1.801  11.767  17.813  0.00  0.00    +0.000 A 
ENDBRANCH   7   9
BRANCH   8  16
ATOM     16  C   UNL     1       0.825  10.940  20.410  0.00  0.00    +0.000 A 
ATOM     17  C   UNL     1       1.271  10.235  19.285  0.00  0.00    +0.000 A 
ATOM     18  C   UNL     1       1.532   8.866  19.364  0.00  0.00    +0.000 A 
ATOM     19  C   UNL     1       1.311   8.189  20.560  0.00  0.00    +0.000 A 
ATOM     20 CL   UNL     1       1.604   6.496  20.649  0.00  0.00    +0.000 Cl
ATOM     21  C   UNL     1       0.850   8.875  21.683  0.00  0.00    +0.000 A 
ATOM     22  C   UNL     1       0.622  10.253  21.614  0.00  0.00    +0.000 A 
ENDBRANCH   8  16
BRANCH   4  23
ATOM     23  C   UNL     1       3.422  15.770  20.291  0.00  0.00    +0.000 A 
ATOM     24  C   UNL     1       4.499  15.362  19.488  0.00  0.00    +0.000 A 
ATOM     25  C   UNL     1       5.812  15.489  19.945  0.00  0.00    +0.000 A 
ATOM     26  C   UNL     1       6.061  16.023  21.206  0.00  0.00    +0.000 A 
ATOM     27  C   UNL     1       4.996  16.437  22.008  0.00  0.00    +0.000 A 
ATOM     28  C   UNL     1       3.678  16.314  21.552  0.00  0.00    +0.000 A 
ENDBRANCH   4  23
TORSDOF 3
ENDMDL
MODEL 7
REMARK VINA RESULT:      -6.7      3.311      5.211
REMARK  Name = 
REMARK  3 active torsions:
REMARK  status: ('A' for Active; 'I' for Inactive)
REMARK    1  A    between atoms: C_4  and  C_5
REMARK    2  A    between atoms: N_13  and  C_14
REMARK    3  A    between atoms: N_21  and  C_22
REMARK                            x       y       z     vdW  Elec       q    Type
REMARK                         _______ _______ _______ _____ _____    ______ ____
ROOT
ATOM      1  O   UNL     1      -2.453  10.469  18.714  0.00  0.00    +0.000 OA
ATOM      2  C   UNL     1      -1.773  11.427  19.034  0.00  0.00    +0.000 C 
ATOM      3  C   UNL     1      -2.270  12.748  19.480  0.00  0.00    +0.000 C 
ATOM      4  C   UNL     1      -3.532  13.179  19.625  0.00  0.00    +0.000 C 
ATOM      5  C   UNL     1      -1.115  13.585  19.877  0.00  0.00    +0.000 C 
ATOM      6  O   UNL     1      -1.181  14.757  20.207  0.00  0.00    +0.000 OA
ATOM      7  N   UNL     1      -0.000  12.748  19.740  0.00  0.00    +0.000 N 
ATOM      8  N   UNL     1      -0.373  11.518  19.131  0.00  0.00    +0.000 N 
ENDROOT
BRANCH   7   9
ATOM      9  C   UNL     1       1.324  13.259  19.732  0.00  0.00    +0.000 A 
ATOM     10  C   UNL     1       1.926  13.615  18.516  0.00  0.00    +0.000 A 
ATOM     11  C   UNL     1       3.197  14.199  18.496  0.00  0.00    +0.000 A 
ATOM     12  C   UNL     1       3.888  14.398  19.688  0.00  0.00    +0.000 A 
ATOM     13 CL   UNL     1       5.448  15.121  19.666  0.00  0.00    +0.000 Cl
ATOM     14  C   UNL     1       3.319  14.019  20.901  0.00  0.00    +0.000 A 
ATOM     15  C   UNL     1       2.038  13.459  20.922  0.00  0.00    +0.000 A 
ENDBRANCH   7   9
BRANCH   8  16
ATOM     16  C   UNL     1       0.381  10.323  19.256  0.00  0.00    +0.000 A 
ATOM     17  C   UNL     1       1.032   9.821  18.121  0.00  0.00    +0.000 A 
ATOM     18  C   UNL     1       1.819   8.672  18.206  0.00  0.00    +0.000 A 
ATOM     19  C   UNL     1       1.929   7.998  19.420  0.00  0.00    +0.000 A 
ATOM     20 CL   UNL     1       2.876   6.566  19.517  0.00  0.00    +0.000 Cl
ATOM     21  C   UNL     1       1.272   8.477  20.553  0.00  0.00    +0.000 A 
ATOM     22  C   UNL     1       0.511   9.648  20.476  0.00  0.00    +0.000 A 
ENDBRANCH   8  16
BRANCH   4  23
ATOM     23  C   UNL     1      -4.715  12.342  19.484  0.00  0.00    +0.000 A 
ATOM     24  C   UNL     1      -5.495  12.102  20.626  0.00  0.00    +0.000 A 
ATOM     25  C   UNL     1      -6.627  11.289  20.554  0.00  0.00    +0.000 A 
ATOM     26  C   UNL     1      -6.989  10.706  19.343  0.00  0.00    +0.000 A 
ATOM     27  C   UNL     1      -6.222  10.944  18.201  0.00  0.00    +0.000 A 
ATOM     28  C   UNL     1      -5.087  11.762  18.269  0.00  0.00    +0.000 A 
ENDBRANCH   4  23
TORSDOF 3
ENDMDL
MODEL 8
REMARK VINA RESULT:      -6.6      3.345      5.284
REMARK  Name = 
REMARK  3 active torsions:
REMARK  status: ('A' for Active; 'I' for Inactive)
REMARK    1  A    between atoms: C_4  and  C_5
REMARK    2  A    between atoms: N_13  and  C_14
REMARK    3  A    between atoms: N_21  and  C_22
REMARK                            x       y       z     vdW  Elec       q    Type
REMARK                         _______ _______ _______ _____ _____    ______ ____
ROOT
ATOM      1  O   UNL     1      -2.430  10.518  18.704  0.00  0.00    +0.000 OA
ATOM      2  C   UNL     1      -1.752  11.474  19.035  0.00  0.00    +0.000 C 
ATOM      3  C   UNL     1      -2.252  12.784  19.508  0.00  0.00    +0.000 C 
ATOM      4  C   UNL     1      -3.515  13.206  19.670  0.00  0.00    +0.000 C 
ATOM      5  C   UNL     1      -1.098  13.621  19.909  0.00  0.00    +0.000 C 
ATOM      6  O   UNL     1      -1.168  14.786  20.261  0.00  0.00    +0.000 OA
ATOM      7  N   UNL     1       0.019  12.792  19.749  0.00  0.00    +0.000 N 
ATOM      8  N   UNL     1      -0.352  11.571  19.122  0.00  0.00    +0.000 N 
ENDROOT
BRANCH   7   9
ATOM      9  C   UNL     1       1.341  13.311  19.738  0.00  0.00    +0.000 A 
ATOM     10  C   UNL     1       1.939  13.671  18.521  0.00  0.00    +0.000 A 
ATOM     11  C   UNL     1       3.206  14.262  18.499  0.00  0.00    +0.000 A 
ATOM     12  C   UNL     1       3.898  14.465  19.690  0.00  0.00    +0.000 A 
ATOM     13 CL   UNL     1       5.454  15.197  19.665  0.00  0.00    +0.000 Cl
ATOM     14  C   UNL     1       3.334  14.081  20.904  0.00  0.00    +0.000 A 
ATOM     15  C   UNL     1       2.056  13.515  20.927  0.00  0.00    +0.000 A 
ENDBRANCH   7   9
BRANCH   8  16
ATOM     16  C   UNL     1       0.409  10.378  19.219  0.00  0.00    +0.000 A 
ATOM     17  C   UNL     1       0.484   9.731  20.460  0.00  0.00    +0.000 A 
ATOM     18  C   UNL     1       1.185   8.532  20.593  0.00  0.00    +0.000 A 
ATOM     19  C   UNL     1       1.847   7.993  19.493  0.00  0.00    +0.000 A 
ATOM     20 CL   UNL     1       2.735   6.531  19.664  0.00  0.00    +0.000 Cl
ATOM     21  C   UNL     1       1.795   8.636  18.256  0.00  0.00    +0.000 A 
ATOM     22  C   UNL     1       1.064   9.819  18.114  0.00  0.00    +0.000 A 
ENDBRANCH   8  16
BRANCH   4  23
ATOM     23  C   UNL     1      -4.695  12.364  19.525  0.00  0.00    +0.000 A 
ATOM     24  C   UNL     1      -5.040  11.926  18.238  0.00  0.00    +0.000 A 
ATOM     25  C   UNL     1      -6.173  11.136  18.037  0.00  0.00    +0.000 A 
ATOM     26  C   UNL     1      -6.971  10.777  19.120  0.00  0.00    +0.000 A 
ATOM     27  C   UNL     1      -6.631  11.203  20.405  0.00  0.00    +0.000 A 
ATOM     28  C   UNL     1      -5.494  11.994  20.610  0.00  0.00    +0.000 A 
ENDBRANCH   4  23
TORSDOF 3
ENDMDL
MODEL 9
REMARK VINA RESULT:      -6.6      4.109      6.727
REMARK  Name = 
REMARK  3 active torsions:
REMARK  status: ('A' for Active; 'I' for Inactive)
REMARK    1  A    between atoms: C_4  and  C_5
REMARK    2  A    between atoms: N_13  and  C_14
REMARK    3  A    between atoms: N_21  and  C_22
REMARK                            x       y       z     vdW  Elec       q    Type
REMARK                         _______ _______ _______ _____ _____    ______ ____
ROOT
ATOM      1  O   UNL     1       2.745  13.028  21.162  0.00  0.00    +0.000 OA
ATOM      2  C   UNL     1       1.738  13.268  20.520  0.00  0.00    +0.000 C 
ATOM      3  C   UNL     1       1.441  14.520  19.789  0.00  0.00    +0.000 C 
ATOM      4  C   UNL     1       2.178  15.635  19.671  0.00  0.00    +0.000 C 
ATOM      5  C   UNL     1       0.165  14.354  19.054  0.00  0.00    +0.000 C 
ATOM      6  O   UNL     1      -0.400  15.233  18.427  0.00  0.00    +0.000 OA
ATOM      7  N   UNL     1      -0.216  13.028  19.291  0.00  0.00    +0.000 N 
ATOM      8  N   UNL     1       0.646  12.425  20.250  0.00  0.00    +0.000 N 
ENDROOT
BRANCH   7   9
ATOM      9  C   UNL     1      -1.529  12.564  19.015  0.00  0.00    +0.000 A 
ATOM     10  C   UNL     1      -1.786  11.866  17.826  0.00  0.00    +0.000 A 
ATOM     11  C   UNL     1      -3.053  11.328  17.577  0.00  0.00    +0.000 A 
ATOM     12  C   UNL     1      -4.080  11.515  18.499  0.00  0.00    +0.000 A 
ATOM     13 CL   UNL     1      -5.636  10.850  18.197  0.00  0.00    +0.000 Cl
ATOM     14  C   UNL     1      -3.850  12.235  19.668  0.00  0.00    +0.000 A 
ATOM     15  C   UNL     1      -2.577  12.750  19.928  0.00  0.00    +0.000 A 
ENDBRANCH   7   9
BRANCH   8  16
ATOM     16  C   UNL     1       0.820  11.023  20.374  0.00  0.00    +0.000 A 
ATOM     17  C   UNL     1       1.293  10.307  19.266  0.00  0.00    +0.000 A 
ATOM     18  C   UNL     1       1.521   8.933  19.356  0.00  0.00    +0.000 A 
ATOM     19  C   UNL     1       1.240   8.262  20.543  0.00  0.00    +0.000 A 
ATOM     20 CL   UNL     1       1.494   6.564  20.643  0.00  0.00    +0.000 Cl
ATOM     21  C   UNL     1       0.753   8.960  21.648  0.00  0.00    +0.000 A 
ATOM     22  C   UNL     1       0.558  10.342  21.570  0.00  0.00    +0.000 A 
ENDBRANCH   8  16
BRANCH   4  23
ATOM     23  C   UNL     1       3.541  15.782  20.163  0.00  0.00    +0.000 A 
ATOM     24  C   UNL     1       3.729  16.377  21.420  0.00  0.00    +0.000 A 
ATOM     25  C   UNL     1       5.015  16.564  21.931  0.00  0.00    +0.000 A 
ATOM     26  C   UNL     1       6.122  16.158  21.192  0.00  0.00    +0.000 A 
ATOM     27  C   UNL     1       5.944  15.559  19.944  0.00  0.00    +0.000 A 
ATOM     28  C   UNL     1       4.656  15.368  19.429  0.00  0.00    +0.000 A 
ENDBRANCH   4  23
TORSDOF 3
ENDMDL
