MODEL 1
REMARK VINA RESULT:      -7.2      0.000      0.000
REMARK  Name = 
REMARK  7 active torsions:
REMARK  status: ('A' for Active; 'I' for Inactive)
REMARK    1  A    between atoms: C_1  and  C_2
REMARK    2  A    between atoms: C_2  and  C_3
REMARK    3  A    between atoms: C_2  and  S_4
REMARK    4  A    between atoms: S_4  and  C_5
REMARK    5  A    between atoms: C_7  and  C_8
REMARK    6  A    between atoms: C_18  and  C_19
REMARK    7  A    between atoms: C_18  and  C_20
REMARK                            x       y       z     vdW  Elec       q    Type
REMARK                         _______ _______ _______ _____ _____    ______ ____
ROOT
ATOM      1  C   UNL     1       4.772   5.950  17.019  0.00  0.00    +0.000 A 
ATOM      2  S   UNL     1       4.262   7.563  17.284  0.00  0.00    +0.000 S 
ATOM      3  C   UNL     1       2.880   7.079  18.156  0.00  0.00    +0.000 A 
ATOM      4  C   UNL     1       2.728   5.700  18.141  0.00  0.00    +0.000 A 
ATOM      5  C   UNL     1       3.820   5.043  17.444  0.00  0.00    +0.000 A 
ATOM      6  C   UNL     1       3.856   3.578  17.304  0.00  0.00    +0.000 C 
ATOM      7  O   UNL     1       4.817   2.956  16.858  0.00  0.00    +0.000 OA
ATOM      8  C   UNL     1       2.584   2.834  17.699  0.00  0.00    +0.000 C 
ATOM      9  C   UNL     1       1.925   3.420  18.963  0.00  0.00    +0.000 C 
ATOM     10  C   UNL     1       0.607   2.678  19.254  0.00  0.00    +0.000 C 
ATOM     11  C   UNL     1       2.851   3.241  20.186  0.00  0.00    +0.000 C 
ATOM     12  C   UNL     1       1.596   4.915  18.748  0.00  0.00    +0.000 C 
ENDROOT
BRANCH   3  13
ATOM     13  C   UNL     1       1.978   8.065  18.855  0.00  0.00    +0.000 A 
ATOM     14  C   UNL     1       1.308   9.162  18.263  0.00  0.00    +0.000 A 
ATOM     15  C   UNL     1       0.683   9.811  19.301  0.00  0.00    +0.000 A 
ATOM     16  N   UNL     1       0.991   9.098  20.420  0.00  0.00    +0.000 N 
ATOM     17  N   UNL     1       1.742   8.017  20.173  0.00  0.00    +0.000 NA
ATOM     18  H   UNL     1       0.731   9.290  21.382  0.00  0.00    +0.000 HD
ENDBRANCH   3  13
BRANCH   1  19
ATOM     19  S   UNL     1       6.332   5.632  16.262  0.00  0.00    +0.000 S 
BRANCH  19  21
ATOM     20  C   UNL     1       7.739   7.565  17.693  0.00  0.00    +0.000 C 
ATOM     21  C   UNL     1       7.493   6.060  17.614  0.00  0.00    +0.000 C 
ATOM     22  C   UNL     1       6.929   5.547  18.938  0.00  0.00    +0.000 C 
ENDBRANCH  19  21
ENDBRANCH   1  19
TORSDOF 3
ENDMDL
MODEL 2
REMARK VINA RESULT:      -7.1      3.055      5.280
REMARK  Name = 
REMARK  7 active torsions:
REMARK  status: ('A' for Active; 'I' for Inactive)
REMARK    1  A    between atoms: C_1  and  C_2
REMARK    2  A    between atoms: C_2  and  C_3
REMARK    3  A    between atoms: C_2  and  S_4
REMARK    4  A    between atoms: S_4  and  C_5
REMARK    5  A    between atoms: C_7  and  C_8
REMARK    6  A    between atoms: C_18  and  C_19
REMARK    7  A    between atoms: C_18  and  C_20
REMARK                            x       y       z     vdW  Elec       q    Type
REMARK                         _______ _______ _______ _____ _____    ______ ____
ROOT
ATOM      1  C   UNL     1       3.076   6.865  18.568  0.00  0.00    +0.000 A 
ATOM      2  S   UNL     1       4.220   7.395  17.409  0.00  0.00    +0.000 S 
ATOM      3  C   UNL     1       4.745   5.809  17.068  0.00  0.00    +0.000 A 
ATOM      4  C   UNL     1       4.152   4.885  17.918  0.00  0.00    +0.000 A 
ATOM      5  C   UNL     1       3.201   5.512  18.819  0.00  0.00    +0.000 A 
ATOM      6  C   UNL     1       2.461   4.716  19.811  0.00  0.00    +0.000 C 
ATOM      7  O   UNL     1       1.542   5.158  20.497  0.00  0.00    +0.000 OA
ATOM      8  C   UNL     1       2.930   3.276  20.003  0.00  0.00    +0.000 C 
ATOM      9  C   UNL     1       3.310   2.597  18.673  0.00  0.00    +0.000 C 
ATOM     10  C   UNL     1       3.852   1.181  18.949  0.00  0.00    +0.000 C 
ATOM     11  C   UNL     1       2.069   2.461  17.763  0.00  0.00    +0.000 C 
ATOM     12  C   UNL     1       4.418   3.404  17.959  0.00  0.00    +0.000 C 
ENDROOT
BRANCH   3  13
ATOM     13  C   UNL     1       5.719   5.499  15.959  0.00  0.00    +0.000 A 
ATOM     14  C   UNL     1       5.452   4.755  14.786  0.00  0.00    +0.000 A 
ATOM     15  C   UNL     1       6.656   4.668  14.128  0.00  0.00    +0.000 A 
ATOM     16  N   UNL     1       7.550   5.342  14.904  0.00  0.00    +0.000 N 
ATOM     17  N   UNL     1       7.001   5.885  15.998  0.00  0.00    +0.000 NA
ATOM     18  H   UNL     1       8.545   5.469  14.755  0.00  0.00    +0.000 HD
ENDBRANCH   3  13
BRANCH   1  19
ATOM     19  S   UNL     1       1.956   8.019  19.291  0.00  0.00    +0.000 S 
BRANCH  19  21
ATOM     20  C   UNL     1       0.067   9.331  17.718  0.00  0.00    +0.000 C 
ATOM     21  C   UNL     1       1.570   9.103  17.864  0.00  0.00    +0.000 C 
ATOM     22  C   UNL     1       2.292  10.438  18.042  0.00  0.00    +0.000 C 
ENDBRANCH  19  21
ENDBRANCH   1  19
TORSDOF 3
ENDMDL
MODEL 3
REMARK VINA RESULT:      -7.0      1.469      1.813
REMARK  Name = 
REMARK  7 active torsions:
REMARK  status: ('A' for Active; 'I' for Inactive)
REMARK    1  A    between atoms: C_1  and  C_2
REMARK    2  A    between atoms: C_2  and  C_3
REMARK    3  A    between atoms: C_2  and  S_4
REMARK    4  A    between atoms: S_4  and  C_5
REMARK    5  A    between atoms: C_7  and  C_8
REMARK    6  A    between atoms: C_18  and  C_19
REMARK    7  A    between atoms: C_18  and  C_20
REMARK                            x       y       z     vdW  Elec       q    Type
REMARK                         _______ _______ _______ _____ _____    ______ ____
ROOT
ATOM      1  C   UNL     1       5.020   5.274  16.967  0.00  0.00    +0.000 A 
ATOM      2  S   UNL     1       4.641   6.938  17.108  0.00  0.00    +0.000 S 
ATOM      3  C   UNL     1       3.183   6.628  17.935  0.00  0.00    +0.000 A 
ATOM      4  C   UNL     1       2.912   5.269  17.994  0.00  0.00    +0.000 A 
ATOM      5  C   UNL     1       3.974   4.480  17.395  0.00  0.00    +0.000 A 
ATOM      6  C   UNL     1       3.889   3.011  17.344  0.00  0.00    +0.000 C 
ATOM      7  O   UNL     1       4.811   2.283  16.986  0.00  0.00    +0.000 OA
ATOM      8  C   UNL     1       2.539   2.403  17.717  0.00  0.00    +0.000 C 
ATOM      9  C   UNL     1       1.876   3.122  18.908  0.00  0.00    +0.000 C 
ATOM     10  C   UNL     1       0.486   2.513  19.175  0.00  0.00    +0.000 C 
ATOM     11  C   UNL     1       2.726   2.944  20.186  0.00  0.00    +0.000 C 
ATOM     12  C   UNL     1       1.689   4.622  18.587  0.00  0.00    +0.000 C 
ENDROOT
BRANCH   3  13
ATOM     13  C   UNL     1       2.338   7.730  18.526  0.00  0.00    +0.000 A 
ATOM     14  C   UNL     1       1.805   8.845  17.838  0.00  0.00    +0.000 A 
ATOM     15  C   UNL     1       1.187   9.607  18.803  0.00  0.00    +0.000 A 
ATOM     16  N   UNL     1       1.368   8.935  19.974  0.00  0.00    +0.000 N 
ATOM     17  N   UNL     1       2.029   7.780  19.829  0.00  0.00    +0.000 NA
ATOM     18  H   UNL     1       1.075   9.205  20.907  0.00  0.00    +0.000 HD
ENDBRANCH   3  13
BRANCH   1  19
ATOM     19  S   UNL     1       6.580   4.779  16.311  0.00  0.00    +0.000 S 
BRANCH  19  21
ATOM     20  C   UNL     1       7.655   5.159  13.769  0.00  0.00    +0.000 C 
ATOM     21  C   UNL     1       6.327   5.042  14.516  0.00  0.00    +0.000 C 
ATOM     22  C   UNL     1       5.504   3.885  13.951  0.00  0.00    +0.000 C 
ENDBRANCH  19  21
ENDBRANCH   1  19
TORSDOF 3
ENDMDL
MODEL 4
REMARK VINA RESULT:      -6.9      2.259      4.497
REMARK  Name = 
REMARK  7 active torsions:
REMARK  status: ('A' for Active; 'I' for Inactive)
REMARK    1  A    between atoms: C_1  and  C_2
REMARK    2  A    between atoms: C_2  and  C_3
REMARK    3  A    between atoms: C_2  and  S_4
REMARK    4  A    between atoms: S_4  and  C_5
REMARK    5  A    between atoms: C_7  and  C_8
REMARK    6  A    between atoms: C_18  and  C_19
REMARK    7  A    between atoms: C_18  and  C_20
REMARK                            x       y       z     vdW  Elec       q    Type
REMARK                         _______ _______ _______ _____ _____    ______ ____
ROOT
ATOM      1  C   UNL     1       2.904   4.541  20.135  0.00  0.00    +0.000 A 
ATOM      2  S   UNL     1       1.740   5.784  20.316  0.00  0.00    +0.000 S 
ATOM      3  C   UNL     1       2.578   6.843  19.275  0.00  0.00    +0.000 A 
ATOM      4  C   UNL     1       3.801   6.314  18.890  0.00  0.00    +0.000 A 
ATOM      5  C   UNL     1       4.005   4.978  19.424  0.00  0.00    +0.000 A 
ATOM      6  C   UNL     1       5.242   4.231  19.144  0.00  0.00    +0.000 C 
ATOM      7  O   UNL     1       5.412   3.051  19.441  0.00  0.00    +0.000 OA
ATOM      8  C   UNL     1       6.371   5.023  18.491  0.00  0.00    +0.000 C 
ATOM      9  C   UNL     1       5.862   6.002  17.416  0.00  0.00    +0.000 C 
ATOM     10  C   UNL     1       7.041   6.825  16.862  0.00  0.00    +0.000 C 
ATOM     11  C   UNL     1       5.228   5.228  16.239  0.00  0.00    +0.000 C 
ATOM     12  C   UNL     1       4.840   6.984  18.031  0.00  0.00    +0.000 C 
ENDROOT
BRANCH   3  13
ATOM     13  C   UNL     1       2.009   8.171  18.843  0.00  0.00    +0.000 A 
ATOM     14  C   UNL     1       1.270   9.073  19.644  0.00  0.00    +0.000 A 
ATOM     15  C   UNL     1       0.897  10.091  18.798  0.00  0.00    +0.000 A 
ATOM     16  N   UNL     1       1.413   9.765  17.580  0.00  0.00    +0.000 N 
ATOM     17  N   UNL     1       2.120   8.628  17.589  0.00  0.00    +0.000 NA
ATOM     18  H   UNL     1       1.320  10.265  16.702  0.00  0.00    +0.000 HD
ENDBRANCH   3  13
BRANCH   1  19
ATOM     19  S   UNL     1       2.614   2.953  20.846  0.00  0.00    +0.000 S 
BRANCH  19  21
ATOM     20  C   UNL     1       0.466   2.885  19.073  0.00  0.00    +0.000 C 
ATOM     21  C   UNL     1       1.708   2.105  19.498  0.00  0.00    +0.000 C 
ATOM     22  C   UNL     1       2.646   1.915  18.307  0.00  0.00    +0.000 C 
ENDBRANCH  19  21
ENDBRANCH   1  19
TORSDOF 3
ENDMDL
MODEL 5
REMARK VINA RESULT:      -6.8      1.249      1.581
REMARK  Name = 
REMARK  7 active torsions:
REMARK  status: ('A' for Active; 'I' for Inactive)
REMARK    1  A    between atoms: C_1  and  C_2
REMARK    2  A    between atoms: C_2  and  C_3
REMARK    3  A    between atoms: C_2  and  S_4
REMARK    4  A    between atoms: S_4  and  C_5
REMARK    5  A    between atoms: C_7  and  C_8
REMARK    6  A    between atoms: C_18  and  C_19
REMARK    7  A    between atoms: C_18  and  C_20
REMARK                            x       y       z     vdW  Elec       q    Type
REMARK                         _______ _______ _______ _____ _____    ______ ____
ROOT
ATOM      1  C   UNL     1       3.931   6.368  17.426  0.00  0.00    +0.000 A 
ATOM      2  S   UNL     1       3.374   7.944  17.800  0.00  0.00    +0.000 S 
ATOM      3  C   UNL     1       2.317   7.379  19.013  0.00  0.00    +0.000 A 
ATOM      4  C   UNL     1       2.284   5.993  19.053  0.00  0.00    +0.000 A 
ATOM      5  C   UNL     1       3.206   5.403  18.098  0.00  0.00    +0.000 A 
ATOM      6  C   UNL     1       3.329   3.942  17.968  0.00  0.00    +0.000 C 
ATOM      7  O   UNL     1       4.188   3.384  17.290  0.00  0.00    +0.000 OA
ATOM      8  C   UNL     1       2.275   3.112  18.695  0.00  0.00    +0.000 C 
ATOM      9  C   UNL     1       1.924   3.684  20.082  0.00  0.00    +0.000 C 
ATOM     10  C   UNL     1       0.798   2.849  20.720  0.00  0.00    +0.000 C 
ATOM     11  C   UNL     1       3.152   3.620  21.017  0.00  0.00    +0.000 C 
ATOM     12  C   UNL     1       1.423   5.141  19.946  0.00  0.00    +0.000 C 
ENDROOT
BRANCH   3  13
ATOM     13  C   UNL     1       1.549   8.313  19.915  0.00  0.00    +0.000 A 
ATOM     14  C   UNL     1       1.409   8.203  21.319  0.00  0.00    +0.000 A 
ATOM     15  C   UNL     1       0.560   9.223  21.681  0.00  0.00    +0.000 A 
ATOM     16  N   UNL     1       0.248   9.871  20.524  0.00  0.00    +0.000 N 
ATOM     17  N   UNL     1       0.862   9.364  19.447  0.00  0.00    +0.000 NA
ATOM     18  H   UNL     1      -0.376  10.660  20.391  0.00  0.00    +0.000 HD
ENDBRANCH   3  13
BRANCH   1  19
ATOM     19  S   UNL     1       5.259   6.152  16.286  0.00  0.00    +0.000 S 
BRANCH  19  21
ATOM     20  C   UNL     1       7.485   4.639  17.005  0.00  0.00    +0.000 C 
ATOM     21  C   UNL     1       6.673   5.866  17.415  0.00  0.00    +0.000 C 
ATOM     22  C   UNL     1       7.563   7.108  17.426  0.00  0.00    +0.000 C 
ENDBRANCH  19  21
ENDBRANCH   1  19
TORSDOF 3
ENDMDL
MODEL 6
REMARK VINA RESULT:      -6.6      1.654      2.072
REMARK  Name = 
REMARK  7 active torsions:
REMARK  status: ('A' for Active; 'I' for Inactive)
REMARK    1  A    between atoms: C_1  and  C_2
REMARK    2  A    between atoms: C_2  and  C_3
REMARK    3  A    between atoms: C_2  and  S_4
REMARK    4  A    between atoms: S_4  and  C_5
REMARK    5  A    between atoms: C_7  and  C_8
REMARK    6  A    between atoms: C_18  and  C_19
REMARK    7  A    between atoms: C_18  and  C_20
REMARK                            x       y       z     vdW  Elec       q    Type
REMARK                         _______ _______ _______ _____ _____    ______ ____
ROOT
ATOM      1  C   UNL     1       5.213   5.202  17.083  0.00  0.00    +0.000 A 
ATOM      2  S   UNL     1       4.916   6.887  17.023  0.00  0.00    +0.000 S 
ATOM      3  C   UNL     1       3.375   6.731  17.735  0.00  0.00    +0.000 A 
ATOM      4  C   UNL     1       3.025   5.399  17.902  0.00  0.00    +0.000 A 
ATOM      5  C   UNL     1       4.090   4.504  17.486  0.00  0.00    +0.000 A 
ATOM      6  C   UNL     1       3.929   3.044  17.572  0.00  0.00    +0.000 C 
ATOM      7  O   UNL     1       4.838   2.241  17.376  0.00  0.00    +0.000 OA
ATOM      8  C   UNL     1       2.520   2.540  17.873  0.00  0.00    +0.000 C 
ATOM      9  C   UNL     1       1.794   3.408  18.920  0.00  0.00    +0.000 C 
ATOM     10  C   UNL     1       0.354   2.895  19.111  0.00  0.00    +0.000 C 
ATOM     11  C   UNL     1       2.514   3.324  20.283  0.00  0.00    +0.000 C 
ATOM     12  C   UNL     1       1.719   4.874  18.437  0.00  0.00    +0.000 C 
ENDROOT
BRANCH   3  13
ATOM     13  C   UNL     1       2.543   7.925  18.132  0.00  0.00    +0.000 A 
ATOM     14  C   UNL     1       1.949   8.157  19.396  0.00  0.00    +0.000 A 
ATOM     15  C   UNL     1       1.228   9.319  19.252  0.00  0.00    +0.000 A 
ATOM     16  N   UNL     1       1.421   9.714  17.963  0.00  0.00    +0.000 N 
ATOM     17  N   UNL     1       2.241   8.910  17.275  0.00  0.00    +0.000 NA
ATOM     18  H   UNL     1       1.024  10.516  17.483  0.00  0.00    +0.000 HD
ENDBRANCH   3  13
BRANCH   1  19
ATOM     19  S   UNL     1       6.796   4.570  16.630  0.00  0.00    +0.000 S 
BRANCH  19  21
ATOM     20  C   UNL     1       5.102   4.392  14.425  0.00  0.00    +0.000 C 
ATOM     21  C   UNL     1       6.562   4.230  14.845  0.00  0.00    +0.000 C 
ATOM     22  C   UNL     1       7.451   5.172  14.035  0.00  0.00    +0.000 C 
ENDBRANCH  19  21
ENDBRANCH   1  19
TORSDOF 3
ENDMDL
MODEL 7
REMARK VINA RESULT:      -6.4      1.045      1.250
REMARK  Name = 
REMARK  7 active torsions:
REMARK  status: ('A' for Active; 'I' for Inactive)
REMARK    1  A    between atoms: C_1  and  C_2
REMARK    2  A    between atoms: C_2  and  C_3
REMARK    3  A    between atoms: C_2  and  S_4
REMARK    4  A    between atoms: S_4  and  C_5
REMARK    5  A    between atoms: C_7  and  C_8
REMARK    6  A    between atoms: C_18  and  C_19
REMARK    7  A    between atoms: C_18  and  C_20
REMARK                            x       y       z     vdW  Elec       q    Type
REMARK                         _______ _______ _______ _____ _____    ______ ____
ROOT
ATOM      1  C   UNL     1       3.993   6.184  17.325  0.00  0.00    +0.000 A 
ATOM      2  S   UNL     1       3.465   7.756  17.749  0.00  0.00    +0.000 S 
ATOM      3  C   UNL     1       2.428   7.176  18.972  0.00  0.00    +0.000 A 
ATOM      4  C   UNL     1       2.378   5.790  18.979  0.00  0.00    +0.000 A 
ATOM      5  C   UNL     1       3.269   5.211  17.989  0.00  0.00    +0.000 A 
ATOM      6  C   UNL     1       3.370   3.752  17.821  0.00  0.00    +0.000 C 
ATOM      7  O   UNL     1       4.205   3.200  17.110  0.00  0.00    +0.000 OA
ATOM      8  C   UNL     1       2.320   2.919  18.551  0.00  0.00    +0.000 C 
ATOM      9  C   UNL     1       2.009   3.462  19.959  0.00  0.00    +0.000 C 
ATOM     10  C   UNL     1       0.886   2.626  20.603  0.00  0.00    +0.000 C 
ATOM     11  C   UNL     1       3.256   3.358  20.865  0.00  0.00    +0.000 C 
ATOM     12  C   UNL     1       1.525   4.927  19.871  0.00  0.00    +0.000 C 
ENDROOT
BRANCH   3  13
ATOM     13  C   UNL     1       1.694   8.097  19.914  0.00  0.00    +0.000 A 
ATOM     14  C   UNL     1       1.039   9.304  19.574  0.00  0.00    +0.000 A 
ATOM     15  C   UNL     1       0.597   9.827  20.767  0.00  0.00    +0.000 A 
ATOM     16  N   UNL     1       0.988   8.942  21.725  0.00  0.00    +0.000 N 
ATOM     17  N   UNL     1       1.621   7.870  21.232  0.00  0.00    +0.000 NA
ATOM     18  H   UNL     1       0.864   9.004  22.730  0.00  0.00    +0.000 HD
ENDBRANCH   3  13
BRANCH   1  19
ATOM     19  S   UNL     1       5.291   5.977  16.149  0.00  0.00    +0.000 S 
BRANCH  19  21
ATOM     20  C   UNL     1       6.349   5.730  18.714  0.00  0.00    +0.000 C 
ATOM     21  C   UNL     1       6.747   5.765  17.240  0.00  0.00    +0.000 C 
ATOM     22  C   UNL     1       7.475   4.477  16.859  0.00  0.00    +0.000 C 
ENDBRANCH  19  21
ENDBRANCH   1  19
TORSDOF 3
ENDMDL
MODEL 8
REMARK VINA RESULT:      -6.4      1.500      1.859
REMARK  Name = 
REMARK  7 active torsions:
REMARK  status: ('A' for Active; 'I' for Inactive)
REMARK    1  A    between atoms: C_1  and  C_2
REMARK    2  A    between atoms: C_2  and  C_3
REMARK    3  A    between atoms: C_2  and  S_4
REMARK    4  A    between atoms: S_4  and  C_5
REMARK    5  A    between atoms: C_7  and  C_8
REMARK    6  A    between atoms: C_18  and  C_19
REMARK    7  A    between atoms: C_18  and  C_20
REMARK                            x       y       z     vdW  Elec       q    Type
REMARK                         _______ _______ _______ _____ _____    ______ ____
ROOT
ATOM      1  C   UNL     1       5.207   5.315  18.229  0.00  0.00    +0.000 A 
ATOM      2  S   UNL     1       4.767   6.922  17.837  0.00  0.00    +0.000 S 
ATOM      3  C   UNL     1       3.205   6.751  18.499  0.00  0.00    +0.000 A 
ATOM      4  C   UNL     1       2.964   5.446  18.902  0.00  0.00    +0.000 A 
ATOM      5  C   UNL     1       4.128   4.598  18.710  0.00  0.00    +0.000 A 
ATOM      6  C   UNL     1       4.091   3.170  19.066  0.00  0.00    +0.000 C 
ATOM      7  O   UNL     1       5.078   2.438  19.066  0.00  0.00    +0.000 OA
ATOM      8  C   UNL     1       2.717   2.596  19.398  0.00  0.00    +0.000 C 
ATOM      9  C   UNL     1       1.855   3.567  20.227  0.00  0.00    +0.000 C 
ATOM     10  C   UNL     1       0.457   2.960  20.452  0.00  0.00    +0.000 C 
ATOM     11  C   UNL     1       2.496   3.809  21.611  0.00  0.00    +0.000 C 
ATOM     12  C   UNL     1       1.681   4.904  19.471  0.00  0.00    +0.000 C 
ENDROOT
BRANCH   3  13
ATOM     13  C   UNL     1       2.248   7.911  18.625  0.00  0.00    +0.000 A 
ATOM     14  C   UNL     1       1.798   8.751  17.580  0.00  0.00    +0.000 A 
ATOM     15  C   UNL     1       1.017   9.705  18.189  0.00  0.00    +0.000 A 
ATOM     16  N   UNL     1       1.032   9.400  19.516  0.00  0.00    +0.000 N 
ATOM     17  N   UNL     1       1.739   8.299  19.802  0.00  0.00    +0.000 NA
ATOM     18  H   UNL     1       0.589   9.896  20.282  0.00  0.00    +0.000 HD
ENDBRANCH   3  13
BRANCH   1  19
ATOM     19  S   UNL     1       6.864   4.768  17.974  0.00  0.00    +0.000 S 
BRANCH  19  21
ATOM     20  C   UNL     1       5.514   3.727  15.771  0.00  0.00    +0.000 C 
ATOM     21  C   UNL     1       6.844   4.349  16.190  0.00  0.00    +0.000 C 
ATOM     22  C   UNL     1       7.115   5.613  15.376  0.00  0.00    +0.000 C 
ENDBRANCH  19  21
ENDBRANCH   1  19
TORSDOF 3
ENDMDL
MODEL 9
REMARK VINA RESULT:      -5.9      2.051      4.364
REMARK  Name = 
REMARK  7 active torsions:
REMARK  status: ('A' for Active; 'I' for Inactive)
REMARK    1  A    between atoms: C_1  and  C_2
REMARK    2  A    between atoms: C_2  and  C_3
REMARK    3  A    between atoms: C_2  and  S_4
REMARK    4  A    between atoms: S_4  and  C_5
REMARK    5  A    between atoms: C_7  and  C_8
REMARK    6  A    between atoms: C_18  and  C_19
REMARK    7  A    between atoms: C_18  and  C_20
REMARK                            x       y       z     vdW  Elec       q    Type
REMARK                         _______ _______ _______ _____ _____    ______ ____
ROOT
ATOM      1  C   UNL     1       2.438   4.305  18.298  0.00  0.00    +0.000 A 
ATOM      2  S   UNL     1       1.374   5.558  18.780  0.00  0.00    +0.000 S 
ATOM      3  C   UNL     1       2.479   6.783  18.351  0.00  0.00    +0.000 A 
ATOM      4  C   UNL     1       3.701   6.252  17.964  0.00  0.00    +0.000 A 
ATOM      5  C   UNL     1       3.685   4.800  17.968  0.00  0.00    +0.000 A 
ATOM      6  C   UNL     1       4.882   4.029  17.595  0.00  0.00    +0.000 C 
ATOM      7  O   UNL     1       4.890   2.810  17.438  0.00  0.00    +0.000 OA
ATOM      8  C   UNL     1       6.177   4.824  17.458  0.00  0.00    +0.000 C 
ATOM      9  C   UNL     1       5.962   6.191  16.781  0.00  0.00    +0.000 C 
ATOM     10  C   UNL     1       7.291   6.972  16.753  0.00  0.00    +0.000 C 
ATOM     11  C   UNL     1       5.490   6.003  15.323  0.00  0.00    +0.000 C 
ATOM     12  C   UNL     1       4.934   7.025  17.580  0.00  0.00    +0.000 C 
ENDROOT
BRANCH   3  13
ATOM     13  C   UNL     1       2.117   8.247  18.387  0.00  0.00    +0.000 A 
ATOM     14  C   UNL     1       1.503   8.938  19.458  0.00  0.00    +0.000 A 
ATOM     15  C   UNL     1       1.298  10.217  18.996  0.00  0.00    +0.000 A 
ATOM     16  N   UNL     1       1.784  10.232  17.724  0.00  0.00    +0.000 N 
ATOM     17  N   UNL     1       2.318   9.065  17.345  0.00  0.00    +0.000 NA
ATOM     18  H   UNL     1       1.782  10.997  17.057  0.00  0.00    +0.000 HD
ENDBRANCH   3  13
BRANCH   1  19
ATOM     19  S   UNL     1       1.884   2.631  18.299  0.00  0.00    +0.000 S 
BRANCH  19  21
ATOM     20  C   UNL     1       3.493   2.483  20.568  0.00  0.00    +0.000 C 
ATOM     21  C   UNL     1       2.085   2.176  20.063  0.00  0.00    +0.000 C 
ATOM     22  C   UNL     1       1.049   2.929  20.895  0.00  0.00    +0.000 C 
ENDBRANCH  19  21
ENDBRANCH   1  19
TORSDOF 3
ENDMDL
