MODEL 1
REMARK VINA RESULT:      -8.4      0.000      0.000
REMARK  Name = 
REMARK  7 active torsions:
REMARK  status: ('A' for Active; 'I' for Inactive)
REMARK    1  A    between atoms: C_1  and  O_2
REMARK    2  A    between atoms: O_2  and  C_3
REMARK    3  A    between atoms: C_8  and  N_9
REMARK    4  A    between atoms: C_13  and  C_15
REMARK    5  A    between atoms: C_15  and  S_16
REMARK    6  A    between atoms: S_16  and  C_17
REMARK    7  A    between atoms: C_24  and  C_25
REMARK                            x       y       z     vdW  Elec       q    Type
REMARK                         _______ _______ _______ _____ _____    ______ ____
ROOT
ATOM      1  C   UNL     1       1.456   7.731  20.596  0.00  0.00    +0.000 C 
ENDROOT
BRANCH   1   6
ATOM      2  N   UNL     1      -1.220  11.731  22.494  0.00  0.00    +0.000 N 
ATOM      3  C   UNL     1      -1.300  11.783  21.028  0.00  0.00    +0.000 C 
ATOM      4  C   UNL     1       0.037  11.302  20.444  0.00  0.00    +0.000 C 
ATOM      5  N   UNL     1       0.400   9.967  20.937  0.00  0.00    +0.000 N 
ATOM      6  C   UNL     1       1.058   9.099  20.054  0.00  0.00    +0.000 C 
ATOM      7  O   UNL     1       1.239   9.429  18.877  0.00  0.00    +0.000 OA
ATOM      8  C   UNL     1       0.342   9.818  22.406  0.00  0.00    +0.000 C 
ATOM      9  C   UNL     1      -0.965  10.379  23.018  0.00  0.00    +0.000 C 
BRANCH   2  15
ATOM     10  C   UNL     1      -1.393  13.961  23.521  0.00  0.00    +0.000 A 
ATOM     11  C   UNL     1      -2.160  14.905  24.225  0.00  0.00    +0.000 A 
ATOM     12  C   UNL     1      -3.439  14.588  24.680  0.00  0.00    +0.000 A 
ATOM     13  C   UNL     1      -3.953  13.319  24.461  0.00  0.00    +0.000 A 
ATOM     14  C   UNL     1      -3.191  12.373  23.773  0.00  0.00    +0.000 A 
ATOM     15  C   UNL     1      -1.906  12.658  23.275  0.00  0.00    +0.000 A 
BRANCH  10  17
ATOM     16  C   UNL     1       0.122  15.589  22.652  0.00  0.00    +0.000 C 
ATOM     17  O   UNL     1      -0.137  14.244  23.031  0.00  0.00    +0.000 OA
ENDBRANCH  10  17
ENDBRANCH   2  15
ENDBRANCH   1   6
BRANCH   1  18
ATOM     18  S   UNL     1       2.804   6.977  19.629  0.00  0.00    +0.000 S 
BRANCH  18  19
ATOM     19  C   UNL     1       2.364   5.266  19.744  0.00  0.00    +0.000 A 
ATOM     20  N   UNL     1       1.238   4.994  20.445  0.00  0.00    +0.000 NA
ATOM     21  C   UNL     1       0.773   3.745  20.453  0.00  0.00    +0.000 A 
ATOM     22  N   UNL     1       1.298   2.701  19.830  0.00  0.00    +0.000 NA
ATOM     23  C   UNL     1       2.431   2.993  19.170  0.00  0.00    +0.000 A 
ATOM     24  S   UNL     1       3.199   1.755  18.298  0.00  0.00    +0.000 S 
ATOM     25  C   UNL     1       4.458   2.793  17.834  0.00  0.00    +0.000 A 
ATOM     26  C   UNL     1       4.316   4.089  18.310  0.00  0.00    +0.000 A 
ATOM     27  C   UNL     1       3.072   4.230  19.087  0.00  0.00    +0.000 A 
BRANCH  26  28
ATOM     28  C   UNL     1       5.369   5.069  17.988  0.00  0.00    +0.000 A 
ATOM     29  C   UNL     1       5.222   5.968  16.915  0.00  0.00    +0.000 A 
ATOM     30  C   UNL     1       6.189   6.943  16.650  0.00  0.00    +0.000 A 
ATOM     31  C   UNL     1       7.303   7.059  17.475  0.00  0.00    +0.000 A 
ATOM     32  C   UNL     1       7.490   6.147  18.508  0.00  0.00    +0.000 A 
ATOM     33  C   UNL     1       6.557   5.128  18.724  0.00  0.00    +0.000 A 
ENDBRANCH  26  28
ENDBRANCH  18  19
ENDBRANCH   1  18
TORSDOF 6
ENDMDL
MODEL 2
REMARK VINA RESULT:      -8.0      1.835      2.548
REMARK  Name = 
REMARK  7 active torsions:
REMARK  status: ('A' for Active; 'I' for Inactive)
REMARK    1  A    between atoms: C_1  and  O_2
REMARK    2  A    between atoms: O_2  and  C_3
REMARK    3  A    between atoms: C_8  and  N_9
REMARK    4  A    between atoms: C_13  and  C_15
REMARK    5  A    between atoms: C_15  and  S_16
REMARK    6  A    between atoms: S_16  and  C_17
REMARK    7  A    between atoms: C_24  and  C_25
REMARK                            x       y       z     vdW  Elec       q    Type
REMARK                         _______ _______ _______ _____ _____    ______ ____
ROOT
ATOM      1  C   UNL     1       1.950   8.409  17.539  0.00  0.00    +0.000 C 
ENDROOT
BRANCH   1   6
ATOM      2  N   UNL     1      -0.935  11.690  20.310  0.00  0.00    +0.000 N 
ATOM      3  C   UNL     1      -0.114  12.477  19.380  0.00  0.00    +0.000 C 
ATOM      4  C   UNL     1       1.253  11.793  19.227  0.00  0.00    +0.000 C 
ATOM      5  N   UNL     1       1.119  10.392  18.806  0.00  0.00    +0.000 N 
ATOM      6  C   UNL     1       2.088   9.874  17.936  0.00  0.00    +0.000 C 
ATOM      7  O   UNL     1       2.969  10.610  17.477  0.00  0.00    +0.000 OA
ATOM      8  C   UNL     1       0.178   9.594  19.620  0.00  0.00    +0.000 C 
ATOM      9  C   UNL     1      -1.174  10.310  19.855  0.00  0.00    +0.000 C 
BRANCH   2  15
ATOM     10  C   UNL     1      -1.698  12.348  22.555  0.00  0.00    +0.000 A 
ATOM     11  C   UNL     1      -2.594  13.077  23.355  0.00  0.00    +0.000 A 
ATOM     12  C   UNL     1      -3.645  13.790  22.780  0.00  0.00    +0.000 A 
ATOM     13  C   UNL     1      -3.828  13.760  21.406  0.00  0.00    +0.000 A 
ATOM     14  C   UNL     1      -2.948  13.028  20.607  0.00  0.00    +0.000 A 
ATOM     15  C   UNL     1      -1.860  12.314  21.143  0.00  0.00    +0.000 A 
BRANCH  10  17
ATOM     16  C   UNL     1      -0.812  10.262  23.306  0.00  0.00    +0.000 C 
ATOM     17  O   UNL     1      -0.631  11.654  23.082  0.00  0.00    +0.000 OA
ENDBRANCH  10  17
ENDBRANCH   2  15
ENDBRANCH   1   6
BRANCH   1  18
ATOM     18  S   UNL     1       3.490   7.475  17.821  0.00  0.00    +0.000 S 
BRANCH  18  19
ATOM     19  C   UNL     1       2.941   6.310  19.035  0.00  0.00    +0.000 A 
ATOM     20  N   UNL     1       2.120   6.801  19.994  0.00  0.00    +0.000 NA
ATOM     21  C   UNL     1       1.558   5.952  20.854  0.00  0.00    +0.000 A 
ATOM     22  N   UNL     1       1.709   4.637  20.881  0.00  0.00    +0.000 NA
ATOM     23  C   UNL     1       2.552   4.181  19.941  0.00  0.00    +0.000 A 
ATOM     24  S   UNL     1       2.818   2.507  19.837  0.00  0.00    +0.000 S 
ATOM     25  C   UNL     1       3.929   2.710  18.571  0.00  0.00    +0.000 A 
ATOM     26  C   UNL     1       4.108   4.033  18.193  0.00  0.00    +0.000 A 
ATOM     27  C   UNL     1       3.250   4.928  18.989  0.00  0.00    +0.000 A 
BRANCH  26  28
ATOM     28  C   UNL     1       5.073   4.328  17.118  0.00  0.00    +0.000 A 
ATOM     29  C   UNL     1       6.404   4.678  17.412  0.00  0.00    +0.000 A 
ATOM     30  C   UNL     1       7.338   4.892  16.393  0.00  0.00    +0.000 A 
ATOM     31  C   UNL     1       6.966   4.725  15.064  0.00  0.00    +0.000 A 
ATOM     32  C   UNL     1       5.643   4.431  14.753  0.00  0.00    +0.000 A 
ATOM     33  C   UNL     1       4.695   4.290  15.772  0.00  0.00    +0.000 A 
ENDBRANCH  26  28
ENDBRANCH  18  19
ENDBRANCH   1  18
TORSDOF 6
ENDMDL
MODEL 3
REMARK VINA RESULT:      -7.9      0.978      1.566
REMARK  Name = 
REMARK  7 active torsions:
REMARK  status: ('A' for Active; 'I' for Inactive)
REMARK    1  A    between atoms: C_1  and  O_2
REMARK    2  A    between atoms: O_2  and  C_3
REMARK    3  A    between atoms: C_8  and  N_9
REMARK    4  A    between atoms: C_13  and  C_15
REMARK    5  A    between atoms: C_15  and  S_16
REMARK    6  A    between atoms: S_16  and  C_17
REMARK    7  A    between atoms: C_24  and  C_25
REMARK                            x       y       z     vdW  Elec       q    Type
REMARK                         _______ _______ _______ _____ _____    ______ ____
ROOT
ATOM      1  C   UNL     1       1.341   7.919  20.513  0.00  0.00    +0.000 C 
ENDROOT
BRANCH   1   6
ATOM      2  N   UNL     1      -1.171  12.099  22.237  0.00  0.00    +0.000 N 
ATOM      3  C   UNL     1      -1.253  12.091  20.771  0.00  0.00    +0.000 C 
ATOM      4  C   UNL     1       0.062  11.533  20.207  0.00  0.00    +0.000 C 
ATOM      5  N   UNL     1       0.374  10.207  20.757  0.00  0.00    +0.000 N 
ATOM      6  C   UNL     1       0.995   9.276  19.912  0.00  0.00    +0.000 C 
ATOM      7  O   UNL     1       1.185   9.547  18.722  0.00  0.00    +0.000 OA
ATOM      8  C   UNL     1       0.315  10.125  22.232  0.00  0.00    +0.000 C 
ATOM      9  C   UNL     1      -0.967  10.763  22.820  0.00  0.00    +0.000 C 
BRANCH   2  15
ATOM     10  C   UNL     1      -3.231  13.111  23.127  0.00  0.00    +0.000 A 
ATOM     11  C   UNL     1      -3.840  14.058  23.966  0.00  0.00    +0.000 A 
ATOM     12  C   UNL     1      -3.072  14.978  24.679  0.00  0.00    +0.000 A 
ATOM     13  C   UNL     1      -1.693  14.979  24.539  0.00  0.00    +0.000 A 
ATOM     14  C   UNL     1      -1.082  14.048  23.697  0.00  0.00    +0.000 A 
ATOM     15  C   UNL     1      -1.818  13.086  22.978  0.00  0.00    +0.000 A 
BRANCH  10  17
ATOM     16  C   UNL     1      -5.062  12.632  21.671  0.00  0.00    +0.000 C 
ATOM     17  O   UNL     1      -3.953  12.168  22.428  0.00  0.00    +0.000 OA
ENDBRANCH  10  17
ENDBRANCH   2  15
ENDBRANCH   1   6
BRANCH   1  18
ATOM     18  S   UNL     1       2.763   7.142  19.678  0.00  0.00    +0.000 S 
BRANCH  18  19
ATOM     19  C   UNL     1       2.301   5.436  19.777  0.00  0.00    +0.000 A 
ATOM     20  N   UNL     1       1.168   5.172  20.471  0.00  0.00    +0.000 NA
ATOM     21  C   UNL     1       0.688   3.929  20.467  0.00  0.00    +0.000 A 
ATOM     22  N   UNL     1       1.202   2.884  19.836  0.00  0.00    +0.000 NA
ATOM     23  C   UNL     1       2.341   3.167  19.183  0.00  0.00    +0.000 A 
ATOM     24  S   UNL     1       3.096   1.927  18.303  0.00  0.00    +0.000 S 
ATOM     25  C   UNL     1       4.370   2.953  17.852  0.00  0.00    +0.000 A 
ATOM     26  C   UNL     1       4.243   4.247  18.339  0.00  0.00    +0.000 A 
ATOM     27  C   UNL     1       2.998   4.397  19.113  0.00  0.00    +0.000 A 
BRANCH  26  28
ATOM     28  C   UNL     1       5.309   5.216  18.030  0.00  0.00    +0.000 A 
ATOM     29  C   UNL     1       5.153   6.166  17.002  0.00  0.00    +0.000 A 
ATOM     30  C   UNL     1       6.135   7.129  16.752  0.00  0.00    +0.000 A 
ATOM     31  C   UNL     1       7.275   7.182  17.548  0.00  0.00    +0.000 A 
ATOM     32  C   UNL     1       7.469   6.221  18.532  0.00  0.00    +0.000 A 
ATOM     33  C   UNL     1       6.519   5.214  18.732  0.00  0.00    +0.000 A 
ENDBRANCH  26  28
ENDBRANCH  18  19
ENDBRANCH   1  18
TORSDOF 6
ENDMDL
MODEL 4
REMARK VINA RESULT:      -7.8      1.597      2.018
REMARK  Name = 
REMARK  7 active torsions:
REMARK  status: ('A' for Active; 'I' for Inactive)
REMARK    1  A    between atoms: C_1  and  O_2
REMARK    2  A    between atoms: O_2  and  C_3
REMARK    3  A    between atoms: C_8  and  N_9
REMARK    4  A    between atoms: C_13  and  C_15
REMARK    5  A    between atoms: C_15  and  S_16
REMARK    6  A    between atoms: S_16  and  C_17
REMARK    7  A    between atoms: C_24  and  C_25
REMARK                            x       y       z     vdW  Elec       q    Type
REMARK                         _______ _______ _______ _____ _____    ______ ____
ROOT
ATOM      1  C   UNL     1       1.721   8.485  17.796  0.00  0.00    +0.000 C 
ENDROOT
BRANCH   1   6
ATOM      2  N   UNL     1      -0.456  11.962  20.948  0.00  0.00    +0.000 N 
ATOM      3  C   UNL     1       0.088  12.677  19.786  0.00  0.00    +0.000 C 
ATOM      4  C   UNL     1       1.389  11.988  19.348  0.00  0.00    +0.000 C 
ATOM      5  N   UNL     1       1.187  10.558  19.079  0.00  0.00    +0.000 N 
ATOM      6  C   UNL     1       1.920   9.977  18.035  0.00  0.00    +0.000 C 
ATOM      7  O   UNL     1       2.641  10.678  17.317  0.00  0.00    +0.000 OA
ATOM      8  C   UNL     1       0.497   9.822  20.160  0.00  0.00    +0.000 C 
ATOM      9  C   UNL     1      -0.770  10.550  20.672  0.00  0.00    +0.000 C 
BRANCH   2  15
ATOM     10  C   UNL     1      -0.573  13.711  22.676  0.00  0.00    +0.000 A 
ATOM     11  C   UNL     1      -1.343  14.447  23.592  0.00  0.00    +0.000 A 
ATOM     12  C   UNL     1      -2.694  14.159  23.781  0.00  0.00    +0.000 A 
ATOM     13  C   UNL     1      -3.281  13.117  23.080  0.00  0.00    +0.000 A 
ATOM     14  C   UNL     1      -2.518  12.374  22.178  0.00  0.00    +0.000 A 
ATOM     15  C   UNL     1      -1.158  12.646  21.938  0.00  0.00    +0.000 A 
BRANCH  10  17
ATOM     16  C   UNL     1       1.090  15.313  22.068  0.00  0.00    +0.000 C 
ATOM     17  O   UNL     1       0.757  13.982  22.439  0.00  0.00    +0.000 OA
ENDBRANCH  10  17
ENDBRANCH   2  15
ENDBRANCH   1   6
BRANCH   1  18
ATOM     18  S   UNL     1       3.287   7.559  17.903  0.00  0.00    +0.000 S 
BRANCH  18  19
ATOM     19  C   UNL     1       2.870   6.365  19.141  0.00  0.00    +0.000 A 
ATOM     20  N   UNL     1       2.031   6.793  20.115  0.00  0.00    +0.000 NA
ATOM     21  C   UNL     1       1.566   5.909  20.996  0.00  0.00    +0.000 A 
ATOM     22  N   UNL     1       1.831   4.612  21.032  0.00  0.00    +0.000 NA
ATOM     23  C   UNL     1       2.689   4.221  20.076  0.00  0.00    +0.000 A 
ATOM     24  S   UNL     1       3.098   2.575  19.982  0.00  0.00    +0.000 S 
ATOM     25  C   UNL     1       4.157   2.859  18.688  0.00  0.00    +0.000 A 
ATOM     26  C   UNL     1       4.211   4.189  18.293  0.00  0.00    +0.000 A 
ATOM     27  C   UNL     1       3.297   5.015  19.101  0.00  0.00    +0.000 A 
BRANCH  26  28
ATOM     28  C   UNL     1       5.121   4.553  17.193  0.00  0.00    +0.000 A 
ATOM     29  C   UNL     1       6.270   5.333  17.427  0.00  0.00    +0.000 A 
ATOM     30  C   UNL     1       7.170   5.624  16.397  0.00  0.00    +0.000 A 
ATOM     31  C   UNL     1       6.956   5.110  15.123  0.00  0.00    +0.000 A 
ATOM     32  C   UNL     1       5.801   4.382  14.861  0.00  0.00    +0.000 A 
ATOM     33  C   UNL     1       4.866   4.156  15.876  0.00  0.00    +0.000 A 
ENDBRANCH  26  28
ENDBRANCH  18  19
ENDBRANCH   1  18
TORSDOF 6
ENDMDL
MODEL 5
REMARK VINA RESULT:      -7.8      1.032      1.487
REMARK  Name = 
REMARK  7 active torsions:
REMARK  status: ('A' for Active; 'I' for Inactive)
REMARK    1  A    between atoms: C_1  and  O_2
REMARK    2  A    between atoms: O_2  and  C_3
REMARK    3  A    between atoms: C_8  and  N_9
REMARK    4  A    between atoms: C_13  and  C_15
REMARK    5  A    between atoms: C_15  and  S_16
REMARK    6  A    between atoms: S_16  and  C_17
REMARK    7  A    between atoms: C_24  and  C_25
REMARK                            x       y       z     vdW  Elec       q    Type
REMARK                         _______ _______ _______ _____ _____    ______ ____
ROOT
ATOM      1  C   UNL     1       1.706   7.487  18.449  0.00  0.00    +0.000 C 
ENDROOT
BRANCH   1   6
ATOM      2  N   UNL     1      -0.351  11.406  21.127  0.00  0.00    +0.000 N 
ATOM      3  C   UNL     1      -0.118  11.866  19.751  0.00  0.00    +0.000 C 
ATOM      4  C   UNL     1       1.170  11.215  19.225  0.00  0.00    +0.000 C 
ATOM      5  N   UNL     1       1.122   9.750  19.324  0.00  0.00    +0.000 N 
ATOM      6  C   UNL     1       1.738   9.004  18.309  0.00  0.00    +0.000 C 
ATOM      7  O   UNL     1       2.222   9.574  17.325  0.00  0.00    +0.000 OA
ATOM      8  C   UNL     1       0.736   9.237  20.655  0.00  0.00    +0.000 C 
ATOM      9  C   UNL     1      -0.512   9.946  21.236  0.00  0.00    +0.000 C 
BRANCH   2  15
ATOM     10  C   UNL     1      -0.373  13.472  22.465  0.00  0.00    +0.000 A 
ATOM     11  C   UNL     1      -1.064  14.338  23.329  0.00  0.00    +0.000 A 
ATOM     12  C   UNL     1      -2.339  14.016  23.790  0.00  0.00    +0.000 A 
ATOM     13  C   UNL     1      -2.925  12.816  23.418  0.00  0.00    +0.000 A 
ATOM     14  C   UNL     1      -2.238  11.945  22.570  0.00  0.00    +0.000 A 
ATOM     15  C   UNL     1      -0.960  12.242  22.061  0.00  0.00    +0.000 A 
BRANCH  10  17
ATOM     16  C   UNL     1       1.245  15.138  21.909  0.00  0.00    +0.000 C 
ATOM     17  O   UNL     1       0.877  13.766  21.964  0.00  0.00    +0.000 OA
ENDBRANCH  10  17
ENDBRANCH   2  15
ENDBRANCH   1   6
BRANCH   1  18
ATOM     18  S   UNL     1       2.733   6.906  19.838  0.00  0.00    +0.000 S 
BRANCH  18  19
ATOM     19  C   UNL     1       2.350   5.178  19.819  0.00  0.00    +0.000 A 
ATOM     20  N   UNL     1       1.225   4.816  20.482  0.00  0.00    +0.000 NA
ATOM     21  C   UNL     1       0.802   3.556  20.390  0.00  0.00    +0.000 A 
ATOM     22  N   UNL     1       1.369   2.580  19.698  0.00  0.00    +0.000 NA
ATOM     23  C   UNL     1       2.499   2.957  19.077  0.00  0.00    +0.000 A 
ATOM     24  S   UNL     1       3.318   1.815  18.125  0.00  0.00    +0.000 S 
ATOM     25  C   UNL     1       4.546   2.925  17.757  0.00  0.00    +0.000 A 
ATOM     26  C   UNL     1       4.355   4.176  18.327  0.00  0.00    +0.000 A 
ATOM     27  C   UNL     1       3.099   4.218  19.096  0.00  0.00    +0.000 A 
BRANCH  26  28
ATOM     28  C   UNL     1       5.378   5.212  18.095  0.00  0.00    +0.000 A 
ATOM     29  C   UNL     1       6.552   5.262  18.870  0.00  0.00    +0.000 A 
ATOM     30  C   UNL     1       7.553   6.202  18.607  0.00  0.00    +0.000 A 
ATOM     31  C   UNL     1       7.414   7.085  17.542  0.00  0.00    +0.000 A 
ATOM     32  C   UNL     1       6.239   7.085  16.799  0.00  0.00    +0.000 A 
ATOM     33  C   UNL     1       5.209   6.192  17.111  0.00  0.00    +0.000 A 
ENDBRANCH  26  28
ENDBRANCH  18  19
ENDBRANCH   1  18
TORSDOF 6
ENDMDL
MODEL 6
REMARK VINA RESULT:      -7.7      1.938      2.577
REMARK  Name = 
REMARK  7 active torsions:
REMARK  status: ('A' for Active; 'I' for Inactive)
REMARK    1  A    between atoms: C_1  and  O_2
REMARK    2  A    between atoms: O_2  and  C_3
REMARK    3  A    between atoms: C_8  and  N_9
REMARK    4  A    between atoms: C_13  and  C_15
REMARK    5  A    between atoms: C_15  and  S_16
REMARK    6  A    between atoms: S_16  and  C_17
REMARK    7  A    between atoms: C_24  and  C_25
REMARK                            x       y       z     vdW  Elec       q    Type
REMARK                         _______ _______ _______ _____ _____    ______ ____
ROOT
ATOM      1  C   UNL     1       1.883   8.072  17.836  0.00  0.00    +0.000 C 
ENDROOT
BRANCH   1   6
ATOM      2  N   UNL     1      -0.575  11.768  20.493  0.00  0.00    +0.000 N 
ATOM      3  C   UNL     1       0.055  12.391  19.321  0.00  0.00    +0.000 C 
ATOM      4  C   UNL     1       1.394  11.689  19.049  0.00  0.00    +0.000 C 
ATOM      5  N   UNL     1       1.227  10.238  18.889  0.00  0.00    +0.000 N 
ATOM      6  C   UNL     1       2.048   9.582  17.961  0.00  0.00    +0.000 C 
ATOM      7  O   UNL     1       2.819  10.231  17.246  0.00  0.00    +0.000 OA
ATOM      8  C   UNL     1       0.459   9.586  19.970  0.00  0.00    +0.000 C 
ATOM      9  C   UNL     1      -0.852  10.333  20.315  0.00  0.00    +0.000 C 
BRANCH   2  15
ATOM     10  C   UNL     1      -2.711  12.854  21.058  0.00  0.00    +0.000 A 
ATOM     11  C   UNL     1      -3.505  13.525  22.002  0.00  0.00    +0.000 A 
ATOM     12  C   UNL     1      -2.993  13.864  23.254  0.00  0.00    +0.000 A 
ATOM     13  C   UNL     1      -1.677  13.562  23.564  0.00  0.00    +0.000 A 
ATOM     14  C   UNL     1      -0.878  12.906  22.626  0.00  0.00    +0.000 A 
ATOM     15  C   UNL     1      -1.362  12.523  21.361  0.00  0.00    +0.000 A 
BRANCH  10  17
ATOM     16  C   UNL     1      -4.599  12.435  19.658  0.00  0.00    +0.000 C 
ATOM     17  O   UNL     1      -3.188  12.476  19.822  0.00  0.00    +0.000 OA
ENDBRANCH  10  17
ENDBRANCH   2  15
ENDBRANCH   1   6
BRANCH   1  18
ATOM     18  S   UNL     1       3.434   7.182  18.189  0.00  0.00    +0.000 S 
BRANCH  18  19
ATOM     19  C   UNL     1       2.811   5.805  19.110  0.00  0.00    +0.000 A 
ATOM     20  N   UNL     1       1.959   6.108  20.119  0.00  0.00    +0.000 NA
ATOM     21  C   UNL     1       1.345   5.115  20.761  0.00  0.00    +0.000 A 
ATOM     22  N   UNL     1       1.469   3.819  20.517  0.00  0.00    +0.000 NA
ATOM     23  C   UNL     1       2.344   3.546  19.535  0.00  0.00    +0.000 A 
ATOM     24  S   UNL     1       2.582   1.924  19.094  0.00  0.00    +0.000 S 
ATOM     25  C   UNL     1       3.750   2.355  17.942  0.00  0.00    +0.000 A 
ATOM     26  C   UNL     1       3.970   3.723  17.856  0.00  0.00    +0.000 A 
ATOM     27  C   UNL     1       3.095   4.455  18.789  0.00  0.00    +0.000 A 
BRANCH  26  28
ATOM     28  C   UNL     1       4.985   4.207  16.904  0.00  0.00    +0.000 A 
ATOM     29  C   UNL     1       6.236   4.676  17.351  0.00  0.00    +0.000 A 
ATOM     30  C   UNL     1       7.225   5.074  16.446  0.00  0.00    +0.000 A 
ATOM     31  C   UNL     1       6.994   4.976  15.078  0.00  0.00    +0.000 A 
ATOM     32  C   UNL     1       5.748   4.566  14.620  0.00  0.00    +0.000 A 
ATOM     33  C   UNL     1       4.736   4.238  15.528  0.00  0.00    +0.000 A 
ENDBRANCH  26  28
ENDBRANCH  18  19
ENDBRANCH   1  18
TORSDOF 6
ENDMDL
MODEL 7
REMARK VINA RESULT:      -7.7      1.391      1.633
REMARK  Name = 
REMARK  7 active torsions:
REMARK  status: ('A' for Active; 'I' for Inactive)
REMARK    1  A    between atoms: C_1  and  O_2
REMARK    2  A    between atoms: O_2  and  C_3
REMARK    3  A    between atoms: C_8  and  N_9
REMARK    4  A    between atoms: C_13  and  C_15
REMARK    5  A    between atoms: C_15  and  S_16
REMARK    6  A    between atoms: S_16  and  C_17
REMARK    7  A    between atoms: C_24  and  C_25
REMARK                            x       y       z     vdW  Elec       q    Type
REMARK                         _______ _______ _______ _____ _____    ______ ____
ROOT
ATOM      1  C   UNL     1       1.812   7.672  18.083  0.00  0.00    +0.000 C 
ENDROOT
BRANCH   1   6
ATOM      2  N   UNL     1      -0.235  11.437  20.981  0.00  0.00    +0.000 N 
ATOM      3  C   UNL     1       0.081  11.998  19.661  0.00  0.00    +0.000 C 
ATOM      4  C   UNL     1       1.370  11.343  19.143  0.00  0.00    +0.000 C 
ATOM      5  N   UNL     1       1.266   9.878  19.116  0.00  0.00    +0.000 N 
ATOM      6  C   UNL     1       1.904   9.194  18.072  0.00  0.00    +0.000 C 
ATOM      7  O   UNL     1       2.456   9.823  17.163  0.00  0.00    +0.000 OA
ATOM      8  C   UNL     1       0.796   9.273  20.381  0.00  0.00    +0.000 C 
ATOM      9  C   UNL     1      -0.452   9.981  20.961  0.00  0.00    +0.000 C 
BRANCH   2  15
ATOM     10  C   UNL     1      -0.311  13.452  22.393  0.00  0.00    +0.000 A 
ATOM     11  C   UNL     1      -1.019  14.261  23.296  0.00  0.00    +0.000 A 
ATOM     12  C   UNL     1      -2.276  13.878  23.763  0.00  0.00    +0.000 A 
ATOM     13  C   UNL     1      -2.824  12.672  23.356  0.00  0.00    +0.000 A 
ATOM     14  C   UNL     1      -2.119  11.856  22.468  0.00  0.00    +0.000 A 
ATOM     15  C   UNL     1      -0.859  12.217  21.953  0.00  0.00    +0.000 A 
BRANCH  10  17
ATOM     16  C   UNL     1       1.278  15.182  21.962  0.00  0.00    +0.000 C 
ATOM     17  O   UNL     1       0.920  13.808  21.886  0.00  0.00    +0.000 OA
ENDBRANCH  10  17
ENDBRANCH   2  15
ENDBRANCH   1   6
BRANCH   1  18
ATOM     18  S   UNL     1       3.317   6.900  18.763  0.00  0.00    +0.000 S 
BRANCH  18  19
ATOM     19  C   UNL     1       2.644   5.394  19.404  0.00  0.00    +0.000 A 
ATOM     20  N   UNL     1       1.698   5.533  20.364  0.00  0.00    +0.000 NA
ATOM     21  C   UNL     1       1.051   4.448  20.789  0.00  0.00    +0.000 A 
ATOM     22  N   UNL     1       1.224   3.206  20.364  0.00  0.00    +0.000 NA
ATOM     23  C   UNL     1       2.189   3.093  19.436  0.00  0.00    +0.000 A 
ATOM     24  S   UNL     1       2.501   1.559  18.778  0.00  0.00    +0.000 S 
ATOM     25  C   UNL     1       3.758   2.170  17.817  0.00  0.00    +0.000 A 
ATOM     26  C   UNL     1       3.955   3.537  17.960  0.00  0.00    +0.000 A 
ATOM     27  C   UNL     1       2.984   4.112  18.909  0.00  0.00    +0.000 A 
BRANCH  26  28
ATOM     28  C   UNL     1       5.041   4.169  17.190  0.00  0.00    +0.000 A 
ATOM     29  C   UNL     1       4.953   4.313  15.792  0.00  0.00    +0.000 A 
ATOM     30  C   UNL     1       5.952   4.972  15.068  0.00  0.00    +0.000 A 
ATOM     31  C   UNL     1       7.038   5.530  15.734  0.00  0.00    +0.000 A 
ATOM     32  C   UNL     1       7.167   5.352  17.107  0.00  0.00    +0.000 A 
ATOM     33  C   UNL     1       6.203   4.629  17.817  0.00  0.00    +0.000 A 
ENDBRANCH  26  28
ENDBRANCH  18  19
ENDBRANCH   1  18
TORSDOF 6
ENDMDL
MODEL 8
REMARK VINA RESULT:      -7.5      3.442      9.846
REMARK  Name = 
REMARK  7 active torsions:
REMARK  status: ('A' for Active; 'I' for Inactive)
REMARK    1  A    between atoms: C_1  and  O_2
REMARK    2  A    between atoms: O_2  and  C_3
REMARK    3  A    between atoms: C_8  and  N_9
REMARK    4  A    between atoms: C_13  and  C_15
REMARK    5  A    between atoms: C_15  and  S_16
REMARK    6  A    between atoms: S_16  and  C_17
REMARK    7  A    between atoms: C_24  and  C_25
REMARK                            x       y       z     vdW  Elec       q    Type
REMARK                         _______ _______ _______ _____ _____    ______ ____
ROOT
ATOM      1  C   UNL     1       1.038  11.767  19.649  0.00  0.00    +0.000 C 
ENDROOT
BRANCH   1   6
ATOM      2  N   UNL     1       2.075   6.699  19.619  0.00  0.00    +0.000 N 
ATOM      3  C   UNL     1       2.860   7.331  18.550  0.00  0.00    +0.000 C 
ATOM      4  C   UNL     1       2.031   8.469  17.937  0.00  0.00    +0.000 C 
ATOM      5  N   UNL     1       1.591   9.434  18.953  0.00  0.00    +0.000 N 
ATOM      6  C   UNL     1       1.531  10.787  18.590  0.00  0.00    +0.000 C 
ATOM      7  O   UNL     1       1.924  11.150  17.476  0.00  0.00    +0.000 OA
ATOM      8  C   UNL     1       0.932   8.829  20.129  0.00  0.00    +0.000 C 
ATOM      9  C   UNL     1       1.713   7.624  20.706  0.00  0.00    +0.000 C 
BRANCH   2  15
ATOM     10  C   UNL     1       3.433   4.647  19.694  0.00  0.00    +0.000 A 
ATOM     11  C   UNL     1       3.554   3.299  20.071  0.00  0.00    +0.000 A 
ATOM     12  C   UNL     1       2.482   2.620  20.648  0.00  0.00    +0.000 A 
ATOM     13  C   UNL     1       1.272   3.271  20.829  0.00  0.00    +0.000 A 
ATOM     14  C   UNL     1       1.140   4.606  20.446  0.00  0.00    +0.000 A 
ATOM     15  C   UNL     1       2.204   5.337  19.883  0.00  0.00    +0.000 A 
BRANCH  10  17
ATOM     16  C   UNL     1       5.774   4.789  19.248  0.00  0.00    +0.000 C 
ATOM     17  O   UNL     1       4.476   5.361  19.148  0.00  0.00    +0.000 OA
ENDBRANCH  10  17
ENDBRANCH   2  15
ENDBRANCH   1   6
BRANCH   1  18
ATOM     18  S   UNL     1      -0.058  13.042  18.945  0.00  0.00    +0.000 S 
BRANCH  18  19
ATOM     19  C   UNL     1      -1.142  13.324  20.315  0.00  0.00    +0.000 A 
ATOM     20  N   UNL     1      -0.606  13.996  21.362  0.00  0.00    +0.000 NA
ATOM     21  C   UNL     1      -1.403  14.365  22.364  0.00  0.00    +0.000 A 
ATOM     22  N   UNL     1      -2.707  14.149  22.459  0.00  0.00    +0.000 NA
ATOM     23  C   UNL     1      -3.206  13.455  21.424  0.00  0.00    +0.000 A 
ATOM     24  S   UNL     1      -4.872  13.131  21.397  0.00  0.00    +0.000 S 
ATOM     25  C   UNL     1      -4.731  12.258  19.949  0.00  0.00    +0.000 A 
ATOM     26  C   UNL     1      -3.436  12.208  19.452  0.00  0.00    +0.000 A 
ATOM     27  C   UNL     1      -2.512  12.963  20.317  0.00  0.00    +0.000 A 
BRANCH  26  28
ATOM     28  C   UNL     1      -3.194  11.452  18.210  0.00  0.00    +0.000 A 
ATOM     29  C   UNL     1      -2.119  10.548  18.107  0.00  0.00    +0.000 A 
ATOM     30  C   UNL     1      -1.927   9.781  16.954  0.00  0.00    +0.000 A 
ATOM     31  C   UNL     1      -2.827   9.877  15.898  0.00  0.00    +0.000 A 
ATOM     32  C   UNL     1      -3.864  10.801  15.961  0.00  0.00    +0.000 A 
ATOM     33  C   UNL     1      -4.009  11.620  17.086  0.00  0.00    +0.000 A 
ENDBRANCH  26  28
ENDBRANCH  18  19
ENDBRANCH   1  18
TORSDOF 6
ENDMDL
MODEL 9
REMARK VINA RESULT:      -7.5      1.530      2.235
REMARK  Name = 
REMARK  7 active torsions:
REMARK  status: ('A' for Active; 'I' for Inactive)
REMARK    1  A    between atoms: C_1  and  O_2
REMARK    2  A    between atoms: O_2  and  C_3
REMARK    3  A    between atoms: C_8  and  N_9
REMARK    4  A    between atoms: C_13  and  C_15
REMARK    5  A    between atoms: C_15  and  S_16
REMARK    6  A    between atoms: S_16  and  C_17
REMARK    7  A    between atoms: C_24  and  C_25
REMARK                            x       y       z     vdW  Elec       q    Type
REMARK                         _______ _______ _______ _____ _____    ______ ____
ROOT
ATOM      1  C   UNL     1       1.757   7.478  18.376  0.00  0.00    +0.000 C 
ENDROOT
BRANCH   1   6
ATOM      2  N   UNL     1      -0.578  11.530  20.587  0.00  0.00    +0.000 N 
ATOM      3  C   UNL     1      -0.140  11.933  19.244  0.00  0.00    +0.000 C 
ATOM      4  C   UNL     1       1.196  11.242  18.933  0.00  0.00    +0.000 C 
ATOM      5  N   UNL     1       1.103   9.782  19.076  0.00  0.00    +0.000 N 
ATOM      6  C   UNL     1       1.841   8.988  18.188  0.00  0.00    +0.000 C 
ATOM      7  O   UNL     1       2.474   9.512  17.265  0.00  0.00    +0.000 OA
ATOM      8  C   UNL     1       0.518   9.328  20.355  0.00  0.00    +0.000 C 
ATOM      9  C   UNL     1      -0.784  10.079  20.724  0.00  0.00    +0.000 C 
BRANCH   2  15
ATOM     10  C   UNL     1      -2.648  12.753  21.116  0.00  0.00    +0.000 A 
ATOM     11  C   UNL     1      -3.373  13.561  22.008  0.00  0.00    +0.000 A 
ATOM     12  C   UNL     1      -2.788  14.027  23.184  0.00  0.00    +0.000 A 
ATOM     13  C   UNL     1      -1.467  13.715  23.467  0.00  0.00    +0.000 A 
ATOM     14  C   UNL     1      -0.737  12.924  22.579  0.00  0.00    +0.000 A 
ATOM     15  C   UNL     1      -1.296  12.411  21.393  0.00  0.00    +0.000 A 
BRANCH  10  17
ATOM     16  C   UNL     1      -4.568  12.539  19.712  0.00  0.00    +0.000 C 
ATOM     17  O   UNL     1      -3.198  12.248  19.958  0.00  0.00    +0.000 OA
ENDBRANCH  10  17
ENDBRANCH   2  15
ENDBRANCH   1   6
BRANCH   1  18
ATOM     18  S   UNL     1       2.719   6.912  19.817  0.00  0.00    +0.000 S 
BRANCH  18  19
ATOM     19  C   UNL     1       2.333   5.185  19.803  0.00  0.00    +0.000 A 
ATOM     20  N   UNL     1       1.203   4.828  20.459  0.00  0.00    +0.000 NA
ATOM     21  C   UNL     1       0.779   3.568  20.369  0.00  0.00    +0.000 A 
ATOM     22  N   UNL     1       1.350   2.588  19.685  0.00  0.00    +0.000 NA
ATOM     23  C   UNL     1       2.484   2.961  19.070  0.00  0.00    +0.000 A 
ATOM     24  S   UNL     1       3.308   1.813  18.129  0.00  0.00    +0.000 S 
ATOM     25  C   UNL     1       4.541   2.920  17.766  0.00  0.00    +0.000 A 
ATOM     26  C   UNL     1       4.348   4.174  18.329  0.00  0.00    +0.000 A 
ATOM     27  C   UNL     1       3.086   4.221  19.089  0.00  0.00    +0.000 A 
BRANCH  26  28
ATOM     28  C   UNL     1       5.374   5.207  18.099  0.00  0.00    +0.000 A 
ATOM     29  C   UNL     1       6.542   5.258  18.883  0.00  0.00    +0.000 A 
ATOM     30  C   UNL     1       7.547   6.196  18.624  0.00  0.00    +0.000 A 
ATOM     31  C   UNL     1       7.417   7.076  17.554  0.00  0.00    +0.000 A 
ATOM     32  C   UNL     1       6.247   7.074  16.803  0.00  0.00    +0.000 A 
ATOM     33  C   UNL     1       5.213   6.184  17.111  0.00  0.00    +0.000 A 
ENDBRANCH  26  28
ENDBRANCH  18  19
ENDBRANCH   1  18
TORSDOF 6
ENDMDL
