MODEL 1
REMARK VINA RESULT:      -7.0      0.000      0.000
REMARK  Name = 
REMARK  5 active torsions:
REMARK  status: ('A' for Active; 'I' for Inactive)
REMARK    1  A    between atoms: C_1  and  C_2
REMARK    2  A    between atoms: C_2  and  O_3
REMARK    3  A    between atoms: O_3  and  C_4
REMARK    4  A    between atoms: C_4  and  C_6
REMARK    5  A    between atoms: C_6  and  N_7
REMARK                            x       y       z     vdW  Elec       q    Type
REMARK                         _______ _______ _______ _____ _____    ______ ____
ROOT
ATOM      1  N   UNL     1       5.692   4.542  15.676  0.00  0.00    +0.000 N 
ATOM      2  N   UNL     1       5.224   3.379  16.237  0.00  0.00    +0.000 NA
ATOM      3  C   UNL     1       4.359   3.484  17.184  0.00  0.00    +0.000 A 
ATOM      4  S   UNL     1       3.671   2.070  17.966  0.00  0.00    +0.000 S 
ATOM      5  C   UNL     1       2.719   3.101  19.042  0.00  0.00    +0.000 A 
ATOM      6  C   UNL     1       1.850   2.684  20.039  0.00  0.00    +0.000 A 
ATOM      7  C   UNL     1       1.195   3.655  20.795  0.00  0.00    +0.000 A 
ATOM      8  C   UNL     1       1.416   5.015  20.542  0.00  0.00    +0.000 A 
ATOM      9  C   UNL     1       2.292   5.424  19.529  0.00  0.00    +0.000 A 
ATOM     10  C   UNL     1       2.947   4.456  18.776  0.00  0.00    +0.000 A 
ATOM     11  N   UNL     1       3.867   4.654  17.715  0.00  0.00    +0.000 N 
ATOM     12  C   UNL     1       4.293   5.873  17.240  0.00  0.00    +0.000 A 
ATOM     13  O   UNL     1       3.977   6.975  17.682  0.00  0.00    +0.000 OA
ATOM     14  C   UNL     1       5.267   5.813  16.057  0.00  0.00    +0.000 A 
ATOM     15  O   UNL     1       5.648   6.847  15.520  0.00  0.00    +0.000 OA
ENDROOT
BRANCH   1  16
ATOM     16  C   UNL     1       6.560   4.406  14.515  0.00  0.00    +0.000 C 
BRANCH  16  17
ATOM     17  C   UNL     1       5.771   3.880  13.328  0.00  0.00    +0.000 C 
ATOM     18  O   UNL     1       4.590   4.099  13.093  0.00  0.00    +0.000 OA
BRANCH  17  19
ATOM     19  O   UNL     1       6.576   3.045  12.604  0.00  0.00    +0.000 OA
BRANCH  19  21
ATOM     20  C   UNL     1       6.936   1.342  10.975  0.00  0.00    +0.000 C 
ATOM     21  C   UNL     1       5.900   2.238  11.630  0.00  0.00    +0.000 C 
ENDBRANCH  19  21
ENDBRANCH  17  19
ENDBRANCH  16  17
ENDBRANCH   1  16
TORSDOF 4
ENDMDL
MODEL 2
REMARK VINA RESULT:      -6.8      1.708      1.934
REMARK  Name = 
REMARK  5 active torsions:
REMARK  status: ('A' for Active; 'I' for Inactive)
REMARK    1  A    between atoms: C_1  and  C_2
REMARK    2  A    between atoms: C_2  and  O_3
REMARK    3  A    between atoms: O_3  and  C_4
REMARK    4  A    between atoms: C_4  and  C_6
REMARK    5  A    between atoms: C_6  and  N_7
REMARK                            x       y       z     vdW  Elec       q    Type
REMARK                         _______ _______ _______ _____ _____    ______ ____
ROOT
ATOM      1  N   UNL     1       5.181   4.756  15.812  0.00  0.00    +0.000 N 
ATOM      2  N   UNL     1       4.808   3.523  16.288  0.00  0.00    +0.000 NA
ATOM      3  C   UNL     1       4.005   3.493  17.292  0.00  0.00    +0.000 A 
ATOM      4  S   UNL     1       3.441   1.978  17.978  0.00  0.00    +0.000 S 
ATOM      5  C   UNL     1       2.514   2.852  19.205  0.00  0.00    +0.000 A 
ATOM      6  C   UNL     1       1.735   2.299  20.210  0.00  0.00    +0.000 A 
ATOM      7  C   UNL     1       1.086   3.160  21.094  0.00  0.00    +0.000 A 
ATOM      8  C   UNL     1       1.224   4.547  20.958  0.00  0.00    +0.000 A 
ATOM      9  C   UNL     1       2.009   5.095  19.935  0.00  0.00    +0.000 A 
ATOM     10  C   UNL     1       2.657   4.237  19.055  0.00  0.00    +0.000 A 
ATOM     11  N   UNL     1       3.494   4.581  17.962  0.00  0.00    +0.000 N 
ATOM     12  C   UNL     1       3.827   5.860  17.579  0.00  0.00    +0.000 A 
ATOM     13  O   UNL     1       3.488   6.898  18.142  0.00  0.00    +0.000 OA
ATOM     14  C   UNL     1       4.721   5.962  16.337  0.00  0.00    +0.000 A 
ATOM     15  O   UNL     1       5.014   7.060  15.878  0.00  0.00    +0.000 OA
ENDROOT
BRANCH   1  16
ATOM     16  C   UNL     1       5.974   4.774  14.591  0.00  0.00    +0.000 C 
BRANCH  16  17
ATOM     17  C   UNL     1       7.449   4.912  14.926  0.00  0.00    +0.000 C 
ATOM     18  O   UNL     1       7.982   4.601  15.983  0.00  0.00    +0.000 OA
BRANCH  17  19
ATOM     19  O   UNL     1       8.079   5.526  13.878  0.00  0.00    +0.000 OA
BRANCH  19  21
ATOM     20  C   UNL     1       7.933   6.202  11.597  0.00  0.00    +0.000 C 
ATOM     21  C   UNL     1       7.687   5.068  12.577  0.00  0.00    +0.000 C 
ENDBRANCH  19  21
ENDBRANCH  17  19
ENDBRANCH  16  17
ENDBRANCH   1  16
TORSDOF 4
ENDMDL
MODEL 3
REMARK VINA RESULT:      -6.8      1.899      2.293
REMARK  Name = 
REMARK  5 active torsions:
REMARK  status: ('A' for Active; 'I' for Inactive)
REMARK    1  A    between atoms: C_1  and  C_2
REMARK    2  A    between atoms: C_2  and  O_3
REMARK    3  A    between atoms: O_3  and  C_4
REMARK    4  A    between atoms: C_4  and  C_6
REMARK    5  A    between atoms: C_6  and  N_7
REMARK                            x       y       z     vdW  Elec       q    Type
REMARK                         _______ _______ _______ _____ _____    ______ ____
ROOT
ATOM      1  N   UNL     1       5.202   5.274  16.460  0.00  0.00    +0.000 N 
ATOM      2  N   UNL     1       3.849   5.044  16.441  0.00  0.00    +0.000 NA
ATOM      3  C   UNL     1       3.315   4.556  17.506  0.00  0.00    +0.000 A 
ATOM      4  S   UNL     1       1.592   4.236  17.611  0.00  0.00    +0.000 S 
ATOM      5  C   UNL     1       1.785   3.610  19.253  0.00  0.00    +0.000 A 
ATOM      6  C   UNL     1       0.787   3.111  20.076  0.00  0.00    +0.000 A 
ATOM      7  C   UNL     1       1.142   2.649  21.343  0.00  0.00    +0.000 A 
ATOM      8  C   UNL     1       2.478   2.695  21.762  0.00  0.00    +0.000 A 
ATOM      9  C   UNL     1       3.477   3.206  20.924  0.00  0.00    +0.000 A 
ATOM     10  C   UNL     1       3.123   3.665  19.660  0.00  0.00    +0.000 A 
ATOM     11  N   UNL     1       3.972   4.213  18.665  0.00  0.00    +0.000 N 
ATOM     12  C   UNL     1       5.333   4.381  18.775  0.00  0.00    +0.000 A 
ATOM     13  O   UNL     1       6.030   4.048  19.731  0.00  0.00    +0.000 OA
ATOM     14  C   UNL     1       6.015   5.032  17.566  0.00  0.00    +0.000 A 
ATOM     15  O   UNL     1       7.213   5.287  17.598  0.00  0.00    +0.000 OA
ENDROOT
BRANCH   1  16
ATOM     16  C   UNL     1       5.767   5.956  15.305  0.00  0.00    +0.000 C 
BRANCH  16  17
ATOM     17  C   UNL     1       6.654   5.008  14.516  0.00  0.00    +0.000 C 
ATOM     18  O   UNL     1       7.856   5.135  14.326  0.00  0.00    +0.000 OA
BRANCH  17  19
ATOM     19  O   UNL     1       5.871   4.025  13.975  0.00  0.00    +0.000 OA
BRANCH  19  21
ATOM     20  C   UNL     1       5.009   3.246  11.894  0.00  0.00    +0.000 C 
ATOM     21  C   UNL     1       6.270   3.575  12.674  0.00  0.00    +0.000 C 
ENDBRANCH  19  21
ENDBRANCH  17  19
ENDBRANCH  16  17
ENDBRANCH   1  16
TORSDOF 4
ENDMDL
MODEL 4
REMARK VINA RESULT:      -6.8      1.530      1.746
REMARK  Name = 
REMARK  5 active torsions:
REMARK  status: ('A' for Active; 'I' for Inactive)
REMARK    1  A    between atoms: C_1  and  C_2
REMARK    2  A    between atoms: C_2  and  O_3
REMARK    3  A    between atoms: O_3  and  C_4
REMARK    4  A    between atoms: C_4  and  C_6
REMARK    5  A    between atoms: C_6  and  N_7
REMARK                            x       y       z     vdW  Elec       q    Type
REMARK                         _______ _______ _______ _____ _____    ______ ____
ROOT
ATOM      1  N   UNL     1       6.282   4.160  16.631  0.00  0.00    +0.000 N 
ATOM      2  N   UNL     1       5.146   3.418  16.427  0.00  0.00    +0.000 NA
ATOM      3  C   UNL     1       4.267   3.408  17.368  0.00  0.00    +0.000 A 
ATOM      4  S   UNL     1       2.764   2.512  17.217  0.00  0.00    +0.000 S 
ATOM      5  C   UNL     1       2.277   3.014  18.842  0.00  0.00    +0.000 A 
ATOM      6  C   UNL     1       1.105   2.674  19.501  0.00  0.00    +0.000 A 
ATOM      7  C   UNL     1       0.906   3.162  20.791  0.00  0.00    +0.000 A 
ATOM      8  C   UNL     1       1.871   3.977  21.395  0.00  0.00    +0.000 A 
ATOM      9  C   UNL     1       3.049   4.319  20.717  0.00  0.00    +0.000 A 
ATOM     10  C   UNL     1       3.248   3.830  19.431  0.00  0.00    +0.000 A 
ATOM     11  N   UNL     1       4.361   4.052  18.579  0.00  0.00    +0.000 N 
ATOM     12  C   UNL     1       5.473   4.802  18.891  0.00  0.00    +0.000 A 
ATOM     13  O   UNL     1       5.694   5.360  19.963  0.00  0.00    +0.000 OA
ATOM     14  C   UNL     1       6.522   4.915  17.778  0.00  0.00    +0.000 A 
ATOM     15  O   UNL     1       7.512   5.618  17.935  0.00  0.00    +0.000 OA
ENDROOT
BRANCH   1  16
ATOM     16  C   UNL     1       7.199   4.277  15.506  0.00  0.00    +0.000 C 
BRANCH  16  17
ATOM     17  C   UNL     1       6.530   5.011  14.356  0.00  0.00    +0.000 C 
ATOM     18  O   UNL     1       5.891   6.051  14.439  0.00  0.00    +0.000 OA
BRANCH  17  19
ATOM     19  O   UNL     1       6.684   4.272  13.217  0.00  0.00    +0.000 OA
BRANCH  19  21
ATOM     20  C   UNL     1       5.937   2.537  11.762  0.00  0.00    +0.000 C 
ATOM     21  C   UNL     1       5.505   3.591  12.766  0.00  0.00    +0.000 C 
ENDBRANCH  19  21
ENDBRANCH  17  19
ENDBRANCH  16  17
ENDBRANCH   1  16
TORSDOF 4
ENDMDL
MODEL 5
REMARK VINA RESULT:      -6.8      1.151      1.572
REMARK  Name = 
REMARK  5 active torsions:
REMARK  status: ('A' for Active; 'I' for Inactive)
REMARK    1  A    between atoms: C_1  and  C_2
REMARK    2  A    between atoms: C_2  and  O_3
REMARK    3  A    between atoms: O_3  and  C_4
REMARK    4  A    between atoms: C_4  and  C_6
REMARK    5  A    between atoms: C_6  and  N_7
REMARK                            x       y       z     vdW  Elec       q    Type
REMARK                         _______ _______ _______ _____ _____    ______ ____
ROOT
ATOM      1  N   UNL     1       4.940   5.136  16.193  0.00  0.00    +0.000 N 
ATOM      2  N   UNL     1       4.657   3.828  16.497  0.00  0.00    +0.000 NA
ATOM      3  C   UNL     1       3.966   3.601  17.559  0.00  0.00    +0.000 A 
ATOM      4  S   UNL     1       3.522   1.972  18.041  0.00  0.00    +0.000 S 
ATOM      5  C   UNL     1       2.707   2.596  19.481  0.00  0.00    +0.000 A 
ATOM      6  C   UNL     1       2.055   1.855  20.455  0.00  0.00    +0.000 A 
ATOM      7  C   UNL     1       1.480   2.533  21.529  0.00  0.00    +0.000 A 
ATOM      8  C   UNL     1       1.562   3.929  21.608  0.00  0.00    +0.000 A 
ATOM      9  C   UNL     1       2.218   4.668  20.615  0.00  0.00    +0.000 A 
ATOM     10  C   UNL     1       2.793   3.992  19.545  0.00  0.00    +0.000 A 
ATOM     11  N   UNL     1       3.498   4.544  18.445  0.00  0.00    +0.000 N 
ATOM     12  C   UNL     1       3.752   5.882  18.244  0.00  0.00    +0.000 A 
ATOM     13  O   UNL     1       3.445   6.799  19.001  0.00  0.00    +0.000 OA
ATOM     14  C   UNL     1       4.505   6.221  16.953  0.00  0.00    +0.000 A 
ATOM     15  O   UNL     1       4.715   7.390  16.652  0.00  0.00    +0.000 OA
ENDROOT
BRANCH   1  16
ATOM     16  C   UNL     1       5.598   5.385  14.919  0.00  0.00    +0.000 C 
BRANCH  16  17
ATOM     17  C   UNL     1       6.899   4.605  14.838  0.00  0.00    +0.000 C 
ATOM     18  O   UNL     1       7.812   4.638  15.652  0.00  0.00    +0.000 OA
BRANCH  17  19
ATOM     19  O   UNL     1       6.925   3.921  13.654  0.00  0.00    +0.000 OA
BRANCH  19  21
ATOM     20  C   UNL     1       5.855   2.805  11.840  0.00  0.00    +0.000 C 
ATOM     21  C   UNL     1       5.643   3.695  13.051  0.00  0.00    +0.000 C 
ENDBRANCH  19  21
ENDBRANCH  17  19
ENDBRANCH  16  17
ENDBRANCH   1  16
TORSDOF 4
ENDMDL
MODEL 6
REMARK VINA RESULT:      -6.8      0.968      1.212
REMARK  Name = 
REMARK  5 active torsions:
REMARK  status: ('A' for Active; 'I' for Inactive)
REMARK    1  A    between atoms: C_1  and  C_2
REMARK    2  A    between atoms: C_2  and  O_3
REMARK    3  A    between atoms: O_3  and  C_4
REMARK    4  A    between atoms: C_4  and  C_6
REMARK    5  A    between atoms: C_6  and  N_7
REMARK                            x       y       z     vdW  Elec       q    Type
REMARK                         _______ _______ _______ _____ _____    ______ ____
ROOT
ATOM      1  N   UNL     1       6.148   4.485  16.316  0.00  0.00    +0.000 N 
ATOM      2  N   UNL     1       5.521   3.319  16.680  0.00  0.00    +0.000 NA
ATOM      3  C   UNL     1       4.497   3.413  17.454  0.00  0.00    +0.000 A 
ATOM      4  S   UNL     1       3.599   1.995  17.971  0.00  0.00    +0.000 S 
ATOM      5  C   UNL     1       2.514   3.007  18.934  0.00  0.00    +0.000 A 
ATOM      6  C   UNL     1       1.449   2.578  19.712  0.00  0.00    +0.000 A 
ATOM      7  C   UNL     1       0.713   3.534  20.411  0.00  0.00    +0.000 A 
ATOM      8  C   UNL     1       1.049   4.890  20.320  0.00  0.00    +0.000 A 
ATOM      9  C   UNL     1       2.124   5.312  19.526  0.00  0.00    +0.000 A 
ATOM     10  C   UNL     1       2.859   4.359  18.830  0.00  0.00    +0.000 A 
ATOM     11  N   UNL     1       3.975   4.571  17.980  0.00  0.00    +0.000 N 
ATOM     12  C   UNL     1       4.547   5.791  17.697  0.00  0.00    +0.000 A 
ATOM     13  O   UNL     1       4.210   6.876  18.164  0.00  0.00    +0.000 OA
ATOM     14  C   UNL     1       5.726   5.751  16.717  0.00  0.00    +0.000 A 
ATOM     15  O   UNL     1       6.255   6.793  16.349  0.00  0.00    +0.000 OA
ENDROOT
BRANCH   1  16
ATOM     16  C   UNL     1       7.214   4.376  15.331  0.00  0.00    +0.000 C 
BRANCH  16  17
ATOM     17  C   UNL     1       6.700   4.766  13.955  0.00  0.00    +0.000 C 
ATOM     18  O   UNL     1       7.087   5.712  13.282  0.00  0.00    +0.000 OA
BRANCH  17  19
ATOM     19  O   UNL     1       5.665   3.936  13.624  0.00  0.00    +0.000 OA
BRANCH  19  21
ATOM     20  C   UNL     1       4.523   3.340  11.618  0.00  0.00    +0.000 C 
ATOM     21  C   UNL     1       5.825   3.222  12.391  0.00  0.00    +0.000 C 
ENDBRANCH  19  21
ENDBRANCH  17  19
ENDBRANCH  16  17
ENDBRANCH   1  16
TORSDOF 4
ENDMDL
MODEL 7
REMARK VINA RESULT:      -6.8      3.189      4.636
REMARK  Name = 
REMARK  5 active torsions:
REMARK  status: ('A' for Active; 'I' for Inactive)
REMARK    1  A    between atoms: C_1  and  C_2
REMARK    2  A    between atoms: C_2  and  O_3
REMARK    3  A    between atoms: O_3  and  C_4
REMARK    4  A    between atoms: C_4  and  C_6
REMARK    5  A    between atoms: C_6  and  N_7
REMARK                            x       y       z     vdW  Elec       q    Type
REMARK                         _______ _______ _______ _____ _____    ______ ____
ROOT
ATOM      1  N   UNL     1       3.973   4.805  18.075  0.00  0.00    +0.000 N 
ATOM      2  N   UNL     1       3.685   6.044  17.560  0.00  0.00    +0.000 NA
ATOM      3  C   UNL     1       2.986   6.842  18.290  0.00  0.00    +0.000 A 
ATOM      4  S   UNL     1       2.569   8.460  17.750  0.00  0.00    +0.000 S 
ATOM      5  C   UNL     1       1.666   8.749  19.242  0.00  0.00    +0.000 A 
ATOM      6  C   UNL     1       0.979   9.903  19.588  0.00  0.00    +0.000 A 
ATOM      7  C   UNL     1       0.314   9.935  20.812  0.00  0.00    +0.000 A 
ATOM      8  C   UNL     1       0.348   8.824  21.665  0.00  0.00    +0.000 A 
ATOM      9  C   UNL     1       1.050   7.666  21.307  0.00  0.00    +0.000 A 
ATOM     10  C   UNL     1       1.713   7.633  20.085  0.00  0.00    +0.000 A 
ATOM     11  N   UNL     1       2.472   6.569  19.536  0.00  0.00    +0.000 N 
ATOM     12  C   UNL     1       2.684   5.345  20.129  0.00  0.00    +0.000 A 
ATOM     13  O   UNL     1       2.218   4.969  21.202  0.00  0.00    +0.000 OA
ATOM     14  C   UNL     1       3.575   4.378  19.341  0.00  0.00    +0.000 A 
ATOM     15  O   UNL     1       3.879   3.291  19.819  0.00  0.00    +0.000 OA
ENDROOT
BRANCH   1  16
ATOM     16  C   UNL     1       4.880   3.969  17.301  0.00  0.00    +0.000 C 
BRANCH  16  17
ATOM     17  C   UNL     1       6.318   4.399  17.533  0.00  0.00    +0.000 C 
ATOM     18  O   UNL     1       6.795   4.784  18.593  0.00  0.00    +0.000 OA
BRANCH  17  19
ATOM     19  O   UNL     1       6.981   4.371  16.337  0.00  0.00    +0.000 OA
BRANCH  19  21
ATOM     20  C   UNL     1       6.353   4.094  14.055  0.00  0.00    +0.000 C 
ATOM     21  C   UNL     1       6.311   5.026  15.252  0.00  0.00    +0.000 C 
ENDBRANCH  19  21
ENDBRANCH  17  19
ENDBRANCH  16  17
ENDBRANCH   1  16
TORSDOF 4
ENDMDL
MODEL 8
REMARK VINA RESULT:      -6.8      3.095      5.091
REMARK  Name = 
REMARK  5 active torsions:
REMARK  status: ('A' for Active; 'I' for Inactive)
REMARK    1  A    between atoms: C_1  and  C_2
REMARK    2  A    between atoms: C_2  and  O_3
REMARK    3  A    between atoms: O_3  and  C_4
REMARK    4  A    between atoms: C_4  and  C_6
REMARK    5  A    between atoms: C_6  and  N_7
REMARK                            x       y       z     vdW  Elec       q    Type
REMARK                         _______ _______ _______ _____ _____    ______ ____
ROOT
ATOM      1  N   UNL     1       6.204   6.345  17.368  0.00  0.00    +0.000 N 
ATOM      2  N   UNL     1       5.186   6.656  18.234  0.00  0.00    +0.000 NA
ATOM      3  C   UNL     1       4.275   5.766  18.423  0.00  0.00    +0.000 A 
ATOM      4  S   UNL     1       2.933   6.038  19.522  0.00  0.00    +0.000 S 
ATOM      5  C   UNL     1       2.262   4.449  19.131  0.00  0.00    +0.000 A 
ATOM      6  C   UNL     1       1.100   3.888  19.639  0.00  0.00    +0.000 A 
ATOM      7  C   UNL     1       0.728   2.620  19.197  0.00  0.00    +0.000 A 
ATOM      8  C   UNL     1       1.519   1.937  18.264  0.00  0.00    +0.000 A 
ATOM      9  C   UNL     1       2.694   2.511  17.762  0.00  0.00    +0.000 A 
ATOM     10  C   UNL     1       3.064   3.777  18.202  0.00  0.00    +0.000 A 
ATOM     11  N   UNL     1       4.204   4.531  17.821  0.00  0.00    +0.000 N 
ATOM     12  C   UNL     1       5.163   4.135  16.917  0.00  0.00    +0.000 A 
ATOM     13  O   UNL     1       5.163   3.090  16.271  0.00  0.00    +0.000 OA
ATOM     14  C   UNL     1       6.317   5.123  16.708  0.00  0.00    +0.000 A 
ATOM     15  O   UNL     1       7.254   4.828  15.977  0.00  0.00    +0.000 OA
ENDROOT
BRANCH   1  16
ATOM     16  C   UNL     1       7.298   7.301  17.273  0.00  0.00    +0.000 C 
BRANCH  16  17
ATOM     17  C   UNL     1       8.173   7.223  18.512  0.00  0.00    +0.000 C 
ATOM     18  O   UNL     1       8.312   6.248  19.237  0.00  0.00    +0.000 OA
BRANCH  17  19
ATOM     19  O   UNL     1       8.720   8.456  18.739  0.00  0.00    +0.000 OA
BRANCH  19  21
ATOM     20  C   UNL     1       9.031  10.757  18.200  0.00  0.00    +0.000 C 
ATOM     21  C   UNL     1       8.215   9.510  17.908  0.00  0.00    +0.000 C 
ENDBRANCH  19  21
ENDBRANCH  17  19
ENDBRANCH  16  17
ENDBRANCH   1  16
TORSDOF 4
ENDMDL
MODEL 9
REMARK VINA RESULT:      -6.6      3.573      5.151
REMARK  Name = 
REMARK  5 active torsions:
REMARK  status: ('A' for Active; 'I' for Inactive)
REMARK    1  A    between atoms: C_1  and  C_2
REMARK    2  A    between atoms: C_2  and  O_3
REMARK    3  A    between atoms: O_3  and  C_4
REMARK    4  A    between atoms: C_4  and  C_6
REMARK    5  A    between atoms: C_6  and  N_7
REMARK                            x       y       z     vdW  Elec       q    Type
REMARK                         _______ _______ _______ _____ _____    ______ ____
ROOT
ATOM      1  N   UNL     1       4.465   5.804  17.257  0.00  0.00    +0.000 N 
ATOM      2  N   UNL     1       3.879   7.015  16.985  0.00  0.00    +0.000 NA
ATOM      3  C   UNL     1       3.103   7.513  17.884  0.00  0.00    +0.000 A 
ATOM      4  S   UNL     1       2.312   9.065  17.662  0.00  0.00    +0.000 S 
ATOM      5  C   UNL     1       1.514   8.908  19.232  0.00  0.00    +0.000 A 
ATOM      6  C   UNL     1       0.639   9.812  19.815  0.00  0.00    +0.000 A 
ATOM      7  C   UNL     1       0.100   9.502  21.062  0.00  0.00    +0.000 A 
ATOM      8  C   UNL     1       0.444   8.305  21.702  0.00  0.00    +0.000 A 
ATOM      9  C   UNL     1       1.333   7.401  21.106  0.00  0.00    +0.000 A 
ATOM     10  C   UNL     1       1.869   7.709  19.861  0.00  0.00    +0.000 A 
ATOM     11  N   UNL     1       2.777   6.939  19.090  0.00  0.00    +0.000 N 
ATOM     12  C   UNL     1       3.291   5.713  19.445  0.00  0.00    +0.000 A 
ATOM     13  O   UNL     1       3.017   5.077  20.460  0.00  0.00    +0.000 OA
ATOM     14  C   UNL     1       4.285   5.104  18.448  0.00  0.00    +0.000 A 
ATOM     15  O   UNL     1       4.849   4.048  18.709  0.00  0.00    +0.000 OA
ENDROOT
BRANCH   1  16
ATOM     16  C   UNL     1       5.447   5.321  16.297  0.00  0.00    +0.000 C 
BRANCH  16  17
ATOM     17  C   UNL     1       6.853   5.618  16.790  0.00  0.00    +0.000 C 
ATOM     18  O   UNL     1       7.700   4.790  17.097  0.00  0.00    +0.000 OA
BRANCH  17  19
ATOM     19  O   UNL     1       6.994   6.972  16.920  0.00  0.00    +0.000 OA
BRANCH  19  21
ATOM     20  C   UNL     1       8.068   8.889  17.845  0.00  0.00    +0.000 C 
ATOM     21  C   UNL     1       7.828   7.399  18.006  0.00  0.00    +0.000 C 
ENDBRANCH  19  21
ENDBRANCH  17  19
ENDBRANCH  16  17
ENDBRANCH   1  16
TORSDOF 4
ENDMDL
