MODEL 1
REMARK VINA RESULT:      -7.2      0.000      0.000
REMARK  Name = 
REMARK  6 active torsions:
REMARK  status: ('A' for Active; 'I' for Inactive)
REMARK    1  A    between atoms: C_1  and  C_2
REMARK    2  A    between atoms: C_3  and  C_4
REMARK    3  A    between atoms: N_12  and  C_13
REMARK    4  A    between atoms: C_13  and  C_14
REMARK    5  A    between atoms: N_16  and  C_17
REMARK    6  A    between atoms: C_17  and  C_18
REMARK                            x       y       z     vdW  Elec       q    Type
REMARK                         _______ _______ _______ _____ _____    ______ ____
ROOT
ATOM      1  C   UNL     1       2.739   1.555  18.824  0.00  0.00    +0.000 C 
ATOM      2  C   UNL     1       2.540   3.010  19.096  0.00  0.00    +0.000 A 
ATOM      3  C   UNL     1       2.039   3.623  20.229  0.00  0.00    +0.000 A 
ATOM      4  C   UNL     1       2.033   5.025  20.008  0.00  0.00    +0.000 A 
ATOM      5  C   UNL     1       1.619   6.122  20.796  0.00  0.00    +0.000 A 
ATOM      6  C   UNL     1       1.748   7.421  20.308  0.00  0.00    +0.000 A 
ATOM      7  C   UNL     1       2.312   7.641  19.061  0.00  0.00    +0.000 A 
ATOM      8  C   UNL     1       2.742   6.572  18.265  0.00  0.00    +0.000 A 
ATOM      9  C   UNL     1       2.574   5.254  18.732  0.00  0.00    +0.000 A 
ATOM     10  N   UNL     1       2.847   4.012  18.175  0.00  0.00    +0.000 N 
ENDROOT
BRANCH   3  11
ATOM     11  C   UNL     1       1.597   2.956  21.417  0.00  0.00    +0.000 C 
ATOM     12  N   UNL     1       1.235   2.422  22.383  0.00  0.00    +0.000 NA
ENDBRANCH   3  11
BRANCH  10  13
ATOM     13  C   UNL     1       3.314   3.684  16.821  0.00  0.00    +0.000 C 
BRANCH  13  14
ATOM     14  C   UNL     1       4.689   4.138  16.401  0.00  0.00    +0.000 C 
ATOM     15  O   UNL     1       4.894   4.664  15.308  0.00  0.00    +0.000 OA
ATOM     16  N   UNL     1       5.698   3.967  17.332  0.00  0.00    +0.000 N 
ATOM     17  H   UNL     1       5.544   3.393  18.152  0.00  0.00    +0.000 HD
BRANCH  16  18
ATOM     18  C   UNL     1       7.049   4.361  16.986  0.00  0.00    +0.000 C 
BRANCH  18  19
ATOM     19  C   UNL     1       7.433   5.713  17.508  0.00  0.00    +0.000 A 
ATOM     20  C   UNL     1       8.012   5.882  18.769  0.00  0.00    +0.000 A 
ATOM     21  C   UNL     1       8.408   7.151  19.186  0.00  0.00    +0.000 A 
ATOM     22  C   UNL     1       8.217   8.216  18.322  0.00  0.00    +0.000 A 
ATOM     23  N   UNL     1       7.668   8.095  17.096  0.00  0.00    +0.000 NA
ATOM     24  C   UNL     1       7.293   6.851  16.716  0.00  0.00    +0.000 A 
ENDBRANCH  18  19
ENDBRANCH  16  18
ENDBRANCH  13  14
ENDBRANCH  10  13
TORSDOF 5
ENDMDL
MODEL 2
REMARK VINA RESULT:      -6.9      3.015      5.700
REMARK  Name = 
REMARK  6 active torsions:
REMARK  status: ('A' for Active; 'I' for Inactive)
REMARK    1  A    between atoms: C_1  and  C_2
REMARK    2  A    between atoms: C_3  and  C_4
REMARK    3  A    between atoms: N_12  and  C_13
REMARK    4  A    between atoms: C_13  and  C_14
REMARK    5  A    between atoms: N_16  and  C_17
REMARK    6  A    between atoms: C_17  and  C_18
REMARK                            x       y       z     vdW  Elec       q    Type
REMARK                         _______ _______ _______ _____ _____    ______ ____
ROOT
ATOM      1  C   UNL     1       5.392   5.118  19.374  0.00  0.00    +0.000 C 
ATOM      2  C   UNL     1       5.645   4.860  17.924  0.00  0.00    +0.000 A 
ATOM      3  C   UNL     1       4.960   4.032  17.055  0.00  0.00    +0.000 A 
ATOM      4  C   UNL     1       5.582   4.114  15.783  0.00  0.00    +0.000 A 
ATOM      5  C   UNL     1       5.328   3.483  14.545  0.00  0.00    +0.000 A 
ATOM      6  C   UNL     1       6.119   3.775  13.436  0.00  0.00    +0.000 A 
ATOM      7  C   UNL     1       7.139   4.710  13.538  0.00  0.00    +0.000 A 
ATOM      8  C   UNL     1       7.404   5.359  14.751  0.00  0.00    +0.000 A 
ATOM      9  C   UNL     1       6.638   5.035  15.887  0.00  0.00    +0.000 A 
ATOM     10  N   UNL     1       6.683   5.456  17.209  0.00  0.00    +0.000 N 
ENDROOT
BRANCH   3  11
ATOM     11  C   UNL     1       3.822   3.227  17.387  0.00  0.00    +0.000 C 
ATOM     12  N   UNL     1       2.896   2.577  17.649  0.00  0.00    +0.000 NA
ENDBRANCH   3  11
BRANCH  10  13
ATOM     13  C   UNL     1       7.664   6.326  17.873  0.00  0.00    +0.000 C 
BRANCH  13  14
ATOM     14  C   UNL     1       7.573   7.815  17.655  0.00  0.00    +0.000 C 
ATOM     15  O   UNL     1       6.709   8.316  16.935  0.00  0.00    +0.000 OA
ATOM     16  N   UNL     1       8.491   8.589  18.342  0.00  0.00    +0.000 N 
ATOM     17  H   UNL     1       9.286   8.156  18.797  0.00  0.00    +0.000 HD
BRANCH  16  18
ATOM     18  C   UNL     1       8.475  10.028  18.162  0.00  0.00    +0.000 C 
BRANCH  18  19
ATOM     19  C   UNL     1       9.588  10.735  18.874  0.00  0.00    +0.000 A 
ATOM     20  C   UNL     1      10.735  11.172  18.204  0.00  0.00    +0.000 A 
ATOM     21  C   UNL     1      11.715  11.880  18.897  0.00  0.00    +0.000 A 
ATOM     22  C   UNL     1      11.514  12.134  20.244  0.00  0.00    +0.000 A 
ATOM     23  N   UNL     1      10.421  11.734  20.925  0.00  0.00    +0.000 NA
ATOM     24  C   UNL     1       9.485  11.051  20.227  0.00  0.00    +0.000 A 
ENDBRANCH  18  19
ENDBRANCH  16  18
ENDBRANCH  13  14
ENDBRANCH  10  13
TORSDOF 5
ENDMDL
MODEL 3
REMARK VINA RESULT:      -6.8      0.633      1.025
REMARK  Name = 
REMARK  6 active torsions:
REMARK  status: ('A' for Active; 'I' for Inactive)
REMARK    1  A    between atoms: C_1  and  C_2
REMARK    2  A    between atoms: C_3  and  C_4
REMARK    3  A    between atoms: N_12  and  C_13
REMARK    4  A    between atoms: C_13  and  C_14
REMARK    5  A    between atoms: N_16  and  C_17
REMARK    6  A    between atoms: C_17  and  C_18
REMARK                            x       y       z     vdW  Elec       q    Type
REMARK                         _______ _______ _______ _____ _____    ______ ____
ROOT
ATOM      1  C   UNL     1       2.774   1.681  18.786  0.00  0.00    +0.000 C 
ATOM      2  C   UNL     1       2.521   3.122  19.089  0.00  0.00    +0.000 A 
ATOM      3  C   UNL     1       2.016   3.694  20.241  0.00  0.00    +0.000 A 
ATOM      4  C   UNL     1       1.950   5.098  20.046  0.00  0.00    +0.000 A 
ATOM      5  C   UNL     1       1.505   6.163  20.861  0.00  0.00    +0.000 A 
ATOM      6  C   UNL     1       1.572   7.474  20.395  0.00  0.00    +0.000 A 
ATOM      7  C   UNL     1       2.105   7.739  19.142  0.00  0.00    +0.000 A 
ATOM      8  C   UNL     1       2.565   6.703  18.320  0.00  0.00    +0.000 A 
ATOM      9  C   UNL     1       2.458   5.372  18.766  0.00  0.00    +0.000 A 
ATOM     10  N   UNL     1       2.772   4.152  18.182  0.00  0.00    +0.000 N 
ENDROOT
BRANCH   3  11
ATOM     11  C   UNL     1       1.622   2.988  21.423  0.00  0.00    +0.000 C 
ATOM     12  N   UNL     1       1.298   2.409  22.377  0.00  0.00    +0.000 NA
ENDBRANCH   3  11
BRANCH  10  13
ATOM     13  C   UNL     1       3.228   3.867  16.814  0.00  0.00    +0.000 C 
BRANCH  13  14
ATOM     14  C   UNL     1       4.689   4.049  16.487  0.00  0.00    +0.000 C 
ATOM     15  O   UNL     1       5.098   4.063  15.327  0.00  0.00    +0.000 OA
ATOM     16  N   UNL     1       5.535   4.239  17.565  0.00  0.00    +0.000 N 
ATOM     17  H   UNL     1       5.209   4.065  18.508  0.00  0.00    +0.000 HD
BRANCH  16  18
ATOM     18  C   UNL     1       6.956   4.398  17.324  0.00  0.00    +0.000 C 
BRANCH  18  19
ATOM     19  C   UNL     1       7.477   5.758  17.681  0.00  0.00    +0.000 A 
ATOM     20  C   UNL     1       7.299   6.862  16.841  0.00  0.00    +0.000 A 
ATOM     21  C   UNL     1       7.746   8.119  17.244  0.00  0.00    +0.000 A 
ATOM     22  C   UNL     1       8.357   8.233  18.482  0.00  0.00    +0.000 A 
ATOM     23  N   UNL     1       8.543   7.195  19.322  0.00  0.00    +0.000 NA
ATOM     24  C   UNL     1       8.098   5.987  18.907  0.00  0.00    +0.000 A 
ENDBRANCH  18  19
ENDBRANCH  16  18
ENDBRANCH  13  14
ENDBRANCH  10  13
TORSDOF 5
ENDMDL
MODEL 4
REMARK VINA RESULT:      -6.7      3.704      7.192
REMARK  Name = 
REMARK  6 active torsions:
REMARK  status: ('A' for Active; 'I' for Inactive)
REMARK    1  A    between atoms: C_1  and  C_2
REMARK    2  A    between atoms: C_3  and  C_4
REMARK    3  A    between atoms: N_12  and  C_13
REMARK    4  A    between atoms: C_13  and  C_14
REMARK    5  A    between atoms: N_16  and  C_17
REMARK    6  A    between atoms: C_17  and  C_18
REMARK                            x       y       z     vdW  Elec       q    Type
REMARK                         _______ _______ _______ _____ _____    ______ ____
ROOT
ATOM      1  C   UNL     1       5.862   7.580  17.271  0.00  0.00    +0.000 C 
ATOM      2  C   UNL     1       5.049   6.335  17.422  0.00  0.00    +0.000 A 
ATOM      3  C   UNL     1       5.461   5.017  17.390  0.00  0.00    +0.000 A 
ATOM      4  C   UNL     1       4.321   4.191  17.570  0.00  0.00    +0.000 A 
ATOM      5  C   UNL     1       4.142   2.791  17.604  0.00  0.00    +0.000 A 
ATOM      6  C   UNL     1       2.874   2.253  17.814  0.00  0.00    +0.000 A 
ATOM      7  C   UNL     1       1.790   3.093  18.021  0.00  0.00    +0.000 A 
ATOM      8  C   UNL     1       1.942   4.485  18.004  0.00  0.00    +0.000 A 
ATOM      9  C   UNL     1       3.212   5.035  17.747  0.00  0.00    +0.000 A 
ATOM     10  N   UNL     1       3.668   6.341  17.621  0.00  0.00    +0.000 N 
ENDROOT
BRANCH   3  11
ATOM     11  C   UNL     1       6.807   4.564  17.201  0.00  0.00    +0.000 C 
ATOM     12  N   UNL     1       7.902   4.205  17.050  0.00  0.00    +0.000 NA
ENDBRANCH   3  11
BRANCH  10  13
ATOM     13  C   UNL     1       2.902   7.595  17.607  0.00  0.00    +0.000 C 
BRANCH  13  14
ATOM     14  C   UNL     1       2.213   8.034  18.875  0.00  0.00    +0.000 C 
ATOM     15  O   UNL     1       2.314   7.398  19.924  0.00  0.00    +0.000 OA
ATOM     16  N   UNL     1       1.494   9.214  18.801  0.00  0.00    +0.000 N 
ATOM     17  H   UNL     1       1.292   9.633  17.901  0.00  0.00    +0.000 HD
BRANCH  16  18
ATOM     18  C   UNL     1       0.789   9.683  19.976  0.00  0.00    +0.000 C 
BRANCH  18  19
ATOM     19  C   UNL     1      -0.449  10.469  19.661  0.00  0.00    +0.000 A 
ATOM     20  C   UNL     1      -0.942  11.451  20.524  0.00  0.00    +0.000 A 
ATOM     21  C   UNL     1      -2.061  12.198  20.159  0.00  0.00    +0.000 A 
ATOM     22  C   UNL     1      -2.651  11.941  18.933  0.00  0.00    +0.000 A 
ATOM     23  N   UNL     1      -2.203  11.006  18.070  0.00  0.00    +0.000 NA
ATOM     24  C   UNL     1      -1.115  10.297  18.449  0.00  0.00    +0.000 A 
ENDBRANCH  18  19
ENDBRANCH  16  18
ENDBRANCH  13  14
ENDBRANCH  10  13
TORSDOF 5
ENDMDL
MODEL 5
REMARK VINA RESULT:      -6.6      4.033      7.047
REMARK  Name = 
REMARK  6 active torsions:
REMARK  status: ('A' for Active; 'I' for Inactive)
REMARK    1  A    between atoms: C_1  and  C_2
REMARK    2  A    between atoms: C_3  and  C_4
REMARK    3  A    between atoms: N_12  and  C_13
REMARK    4  A    between atoms: C_13  and  C_14
REMARK    5  A    between atoms: N_16  and  C_17
REMARK    6  A    between atoms: C_17  and  C_18
REMARK                            x       y       z     vdW  Elec       q    Type
REMARK                         _______ _______ _______ _____ _____    ______ ____
ROOT
ATOM      1  C   UNL     1       1.008   5.198  20.339  0.00  0.00    +0.000 C 
ATOM      2  C   UNL     1       2.048   5.266  19.269  0.00  0.00    +0.000 A 
ATOM      3  C   UNL     1       2.625   4.236  18.550  0.00  0.00    +0.000 A 
ATOM      4  C   UNL     1       3.571   4.799  17.653  0.00  0.00    +0.000 A 
ATOM      5  C   UNL     1       4.454   4.234  16.707  0.00  0.00    +0.000 A 
ATOM      6  C   UNL     1       5.278   5.057  15.941  0.00  0.00    +0.000 A 
ATOM      7  C   UNL     1       5.209   6.435  16.086  0.00  0.00    +0.000 A 
ATOM      8  C   UNL     1       4.333   7.021  17.008  0.00  0.00    +0.000 A 
ATOM      9  C   UNL     1       3.531   6.193  17.817  0.00  0.00    +0.000 A 
ATOM     10  N   UNL     1       2.620   6.460  18.831  0.00  0.00    +0.000 N 
ENDROOT
BRANCH   3  11
ATOM     11  C   UNL     1       2.324   2.843  18.692  0.00  0.00    +0.000 C 
ATOM     12  N   UNL     1       2.088   1.711  18.803  0.00  0.00    +0.000 NA
ENDBRANCH   3  11
BRANCH  10  13
ATOM     13  C   UNL     1       2.289   7.742  19.468  0.00  0.00    +0.000 C 
BRANCH  13  14
ATOM     14  C   UNL     1       1.782   8.869  18.604  0.00  0.00    +0.000 C 
ATOM     15  O   UNL     1       2.066   8.950  17.409  0.00  0.00    +0.000 OA
ATOM     16  N   UNL     1       0.947   9.782  19.222  0.00  0.00    +0.000 N 
ATOM     17  H   UNL     1       0.855   9.790  20.230  0.00  0.00    +0.000 HD
BRANCH  16  18
ATOM     18  C   UNL     1       0.440  10.903  18.455  0.00  0.00    +0.000 C 
BRANCH  18  19
ATOM     19  C   UNL     1      -1.037  10.842  18.205  0.00  0.00    +0.000 A 
ATOM     20  C   UNL     1      -1.608   9.862  17.388  0.00  0.00    +0.000 A 
ATOM     21  C   UNL     1      -2.992   9.807  17.234  0.00  0.00    +0.000 A 
ATOM     22  C   UNL     1      -3.766  10.736  17.911  0.00  0.00    +0.000 A 
ATOM     23  N   UNL     1      -3.254  11.693  18.712  0.00  0.00    +0.000 NA
ATOM     24  C   UNL     1      -1.907  11.722  18.844  0.00  0.00    +0.000 A 
ENDBRANCH  18  19
ENDBRANCH  16  18
ENDBRANCH  13  14
ENDBRANCH  10  13
TORSDOF 5
ENDMDL
MODEL 6
REMARK VINA RESULT:      -6.6      3.958      7.149
REMARK  Name = 
REMARK  6 active torsions:
REMARK  status: ('A' for Active; 'I' for Inactive)
REMARK    1  A    between atoms: C_1  and  C_2
REMARK    2  A    between atoms: C_3  and  C_4
REMARK    3  A    between atoms: N_12  and  C_13
REMARK    4  A    between atoms: C_13  and  C_14
REMARK    5  A    between atoms: N_16  and  C_17
REMARK    6  A    between atoms: C_17  and  C_18
REMARK                            x       y       z     vdW  Elec       q    Type
REMARK                         _______ _______ _______ _____ _____    ______ ____
ROOT
ATOM      1  C   UNL     1       5.226   7.226  17.014  0.00  0.00    +0.000 C 
ATOM      2  C   UNL     1       4.661   6.130  17.857  0.00  0.00    +0.000 A 
ATOM      3  C   UNL     1       5.293   5.016  18.376  0.00  0.00    +0.000 A 
ATOM      4  C   UNL     1       4.336   4.262  19.103  0.00  0.00    +0.000 A 
ATOM      5  C   UNL     1       4.409   3.043  19.814  0.00  0.00    +0.000 A 
ATOM      6  C   UNL     1       3.279   2.539  20.455  0.00  0.00    +0.000 A 
ATOM      7  C   UNL     1       2.088   3.249  20.421  0.00  0.00    +0.000 A 
ATOM      8  C   UNL     1       1.992   4.466  19.734  0.00  0.00    +0.000 A 
ATOM      9  C   UNL     1       3.117   4.958  19.046  0.00  0.00    +0.000 A 
ATOM     10  N   UNL     1       3.325   6.080  18.254  0.00  0.00    +0.000 N 
ENDROOT
BRANCH   3  11
ATOM     11  C   UNL     1       6.675   4.680  18.201  0.00  0.00    +0.000 C 
ATOM     12  N   UNL     1       7.797   4.412  18.067  0.00  0.00    +0.000 NA
ENDBRANCH   3  11
BRANCH  10  13
ATOM     13  C   UNL     1       2.353   7.077  17.784  0.00  0.00    +0.000 C 
BRANCH  13  14
ATOM     14  C   UNL     1       1.879   8.134  18.749  0.00  0.00    +0.000 C 
ATOM     15  O   UNL     1       2.010   8.009  19.967  0.00  0.00    +0.000 OA
ATOM     16  N   UNL     1       1.327   9.271  18.186  0.00  0.00    +0.000 N 
ATOM     17  H   UNL     1       1.083   9.287  17.203  0.00  0.00    +0.000 HD
BRANCH  16  18
ATOM     18  C   UNL     1       0.831  10.318  19.056  0.00  0.00    +0.000 C 
BRANCH  18  19
ATOM     19  C   UNL     1      -0.580  10.729  18.758  0.00  0.00    +0.000 A 
ATOM     20  C   UNL     1      -1.342  10.095  17.772  0.00  0.00    +0.000 A 
ATOM     21  C   UNL     1      -2.670  10.470  17.573  0.00  0.00    +0.000 A 
ATOM     22  C   UNL     1      -3.198  11.469  18.375  0.00  0.00    +0.000 A 
ATOM     23  N   UNL     1      -2.498  12.100  19.340  0.00  0.00    +0.000 NA
ATOM     24  C   UNL     1      -1.212  11.715  19.512  0.00  0.00    +0.000 A 
ENDBRANCH  18  19
ENDBRANCH  16  18
ENDBRANCH  13  14
ENDBRANCH  10  13
TORSDOF 5
ENDMDL
MODEL 7
REMARK VINA RESULT:      -6.5      3.901      7.000
REMARK  Name = 
REMARK  6 active torsions:
REMARK  status: ('A' for Active; 'I' for Inactive)
REMARK    1  A    between atoms: C_1  and  C_2
REMARK    2  A    between atoms: C_3  and  C_4
REMARK    3  A    between atoms: N_12  and  C_13
REMARK    4  A    between atoms: C_13  and  C_14
REMARK    5  A    between atoms: N_16  and  C_17
REMARK    6  A    between atoms: C_17  and  C_18
REMARK                            x       y       z     vdW  Elec       q    Type
REMARK                         _______ _______ _______ _____ _____    ______ ____
ROOT
ATOM      1  C   UNL     1       1.027   5.221  20.442  0.00  0.00    +0.000 C 
ATOM      2  C   UNL     1       2.052   5.251  19.356  0.00  0.00    +0.000 A 
ATOM      3  C   UNL     1       2.597   4.199  18.644  0.00  0.00    +0.000 A 
ATOM      4  C   UNL     1       3.541   4.728  17.726  0.00  0.00    +0.000 A 
ATOM      5  C   UNL     1       4.397   4.130  16.775  0.00  0.00    +0.000 A 
ATOM      6  C   UNL     1       5.227   4.925  15.985  0.00  0.00    +0.000 A 
ATOM      7  C   UNL     1       5.190   6.305  16.111  0.00  0.00    +0.000 A 
ATOM      8  C   UNL     1       4.341   6.924  17.037  0.00  0.00    +0.000 A 
ATOM      9  C   UNL     1       3.533   6.125  17.869  0.00  0.00    +0.000 A 
ATOM     10  N   UNL     1       2.643   6.426  18.892  0.00  0.00    +0.000 N 
ENDROOT
BRANCH   3  11
ATOM     11  C   UNL     1       2.268   2.815  18.811  0.00  0.00    +0.000 C 
ATOM     12  N   UNL     1       1.994   1.694  18.942  0.00  0.00    +0.000 NA
ENDBRANCH   3  11
BRANCH  10  13
ATOM     13  C   UNL     1       2.349   7.724  19.515  0.00  0.00    +0.000 C 
BRANCH  13  14
ATOM     14  C   UNL     1       1.798   8.831  18.653  0.00  0.00    +0.000 C 
ATOM     15  O   UNL     1       2.020   8.885  17.443  0.00  0.00    +0.000 OA
ATOM     16  N   UNL     1       0.996   9.760  19.291  0.00  0.00    +0.000 N 
ATOM     17  H   UNL     1       0.957   9.791  20.303  0.00  0.00    +0.000 HD
BRANCH  16  18
ATOM     18  C   UNL     1       0.451  10.864  18.526  0.00  0.00    +0.000 C 
BRANCH  18  19
ATOM     19  C   UNL     1      -1.030  10.773  18.312  0.00  0.00    +0.000 A 
ATOM     20  C   UNL     1      -1.923  11.651  18.933  0.00  0.00    +0.000 A 
ATOM     21  C   UNL     1      -3.286  11.567  18.654  0.00  0.00    +0.000 A 
ATOM     22  C   UNL     1      -3.715  10.605  17.755  0.00  0.00    +0.000 A 
ATOM     23  N   UNL     1      -2.886   9.742  17.132  0.00  0.00    +0.000 NA
ATOM     24  C   UNL     1      -1.568   9.848  17.419  0.00  0.00    +0.000 A 
ENDBRANCH  18  19
ENDBRANCH  16  18
ENDBRANCH  13  14
ENDBRANCH  10  13
TORSDOF 5
ENDMDL
MODEL 8
REMARK VINA RESULT:      -6.5      2.872      4.645
REMARK  Name = 
REMARK  6 active torsions:
REMARK  status: ('A' for Active; 'I' for Inactive)
REMARK    1  A    between atoms: C_1  and  C_2
REMARK    2  A    between atoms: C_3  and  C_4
REMARK    3  A    between atoms: N_12  and  C_13
REMARK    4  A    between atoms: C_13  and  C_14
REMARK    5  A    between atoms: N_16  and  C_17
REMARK    6  A    between atoms: C_17  and  C_18
REMARK                            x       y       z     vdW  Elec       q    Type
REMARK                         _______ _______ _______ _____ _____    ______ ____
ROOT
ATOM      1  C   UNL     1       7.008   4.238  16.987  0.00  0.00    +0.000 C 
ATOM      2  C   UNL     1       5.748   4.995  17.255  0.00  0.00    +0.000 A 
ATOM      3  C   UNL     1       4.488   4.512  17.554  0.00  0.00    +0.000 A 
ATOM      4  C   UNL     1       3.615   5.619  17.714  0.00  0.00    +0.000 A 
ATOM      5  C   UNL     1       2.236   5.723  18.001  0.00  0.00    +0.000 A 
ATOM      6  C   UNL     1       1.639   6.978  18.112  0.00  0.00    +0.000 A 
ATOM      7  C   UNL     1       2.404   8.126  17.972  0.00  0.00    +0.000 A 
ATOM      8  C   UNL     1       3.776   8.050  17.699  0.00  0.00    +0.000 A 
ATOM      9  C   UNL     1       4.377   6.786  17.541  0.00  0.00    +0.000 A 
ATOM     10  N   UNL     1       5.670   6.388  17.228  0.00  0.00    +0.000 N 
ENDROOT
BRANCH   3  11
ATOM     11  C   UNL     1       4.128   3.131  17.675  0.00  0.00    +0.000 C 
ATOM     12  N   UNL     1       3.839   2.011  17.782  0.00  0.00    +0.000 NA
ENDBRANCH   3  11
BRANCH  10  13
ATOM     13  C   UNL     1       6.827   7.208  16.842  0.00  0.00    +0.000 C 
BRANCH  13  14
ATOM     14  C   UNL     1       7.763   7.690  17.921  0.00  0.00    +0.000 C 
ATOM     15  O   UNL     1       8.234   6.925  18.762  0.00  0.00    +0.000 OA
ATOM     16  N   UNL     1       8.094   9.033  17.886  0.00  0.00    +0.000 N 
ATOM     17  H   UNL     1       7.577   9.671  17.293  0.00  0.00    +0.000 HD
BRANCH  16  18
ATOM     18  C   UNL     1       8.972   9.568  18.908  0.00  0.00    +0.000 C 
BRANCH  18  19
ATOM     19  C   UNL     1       9.497  10.936  18.591  0.00  0.00    +0.000 A 
ATOM     20  C   UNL     1      10.786  11.337  18.956  0.00  0.00    +0.000 A 
ATOM     21  C   UNL     1      11.252  12.597  18.586  0.00  0.00    +0.000 A 
ATOM     22  C   UNL     1      10.412  13.419  17.854  0.00  0.00    +0.000 A 
ATOM     23  N   UNL     1       9.164  13.069  17.479  0.00  0.00    +0.000 NA
ATOM     24  C   UNL     1       8.738  11.840  17.850  0.00  0.00    +0.000 A 
ENDBRANCH  18  19
ENDBRANCH  16  18
ENDBRANCH  13  14
ENDBRANCH  10  13
TORSDOF 5
ENDMDL
MODEL 9
REMARK VINA RESULT:      -6.5      3.229      6.299
REMARK  Name = 
REMARK  6 active torsions:
REMARK  status: ('A' for Active; 'I' for Inactive)
REMARK    1  A    between atoms: C_1  and  C_2
REMARK    2  A    between atoms: C_3  and  C_4
REMARK    3  A    between atoms: N_12  and  C_13
REMARK    4  A    between atoms: C_13  and  C_14
REMARK    5  A    between atoms: N_16  and  C_17
REMARK    6  A    between atoms: C_17  and  C_18
REMARK                            x       y       z     vdW  Elec       q    Type
REMARK                         _______ _______ _______ _____ _____    ______ ____
ROOT
ATOM      1  C   UNL     1       1.767   4.011  19.304  0.00  0.00    +0.000 C 
ATOM      2  C   UNL     1       3.094   4.568  18.903  0.00  0.00    +0.000 A 
ATOM      3  C   UNL     1       4.359   4.076  19.163  0.00  0.00    +0.000 A 
ATOM      4  C   UNL     1       5.306   4.960  18.585  0.00  0.00    +0.000 A 
ATOM      5  C   UNL     1       6.718   4.971  18.553  0.00  0.00    +0.000 A 
ATOM      6  C   UNL     1       7.394   5.988  17.881  0.00  0.00    +0.000 A 
ATOM      7  C   UNL     1       6.680   6.975  17.218  0.00  0.00    +0.000 A 
ATOM      8  C   UNL     1       5.280   6.981  17.224  0.00  0.00    +0.000 A 
ATOM      9  C   UNL     1       4.591   5.981  17.938  0.00  0.00    +0.000 A 
ATOM     10  N   UNL     1       3.242   5.746  18.170  0.00  0.00    +0.000 N 
ENDROOT
BRANCH   3  11
ATOM     11  C   UNL     1       4.659   2.882  19.895  0.00  0.00    +0.000 C 
ATOM     12  N   UNL     1       4.911   1.916  20.490  0.00  0.00    +0.000 NA
ENDBRANCH   3  11
BRANCH  10  13
ATOM     13  C   UNL     1       2.081   6.572  17.814  0.00  0.00    +0.000 C 
BRANCH  13  14
ATOM     14  C   UNL     1       2.114   8.044  18.141  0.00  0.00    +0.000 C 
ATOM     15  O   UNL     1       2.568   8.874  17.354  0.00  0.00    +0.000 OA
ATOM     16  N   UNL     1       1.568   8.411  19.358  0.00  0.00    +0.000 N 
ATOM     17  H   UNL     1       1.349   7.707  20.052  0.00  0.00    +0.000 HD
BRANCH  16  18
ATOM     18  C   UNL     1       1.586   9.807  19.746  0.00  0.00    +0.000 C 
BRANCH  18  19
ATOM     19  C   UNL     1       0.763  10.104  20.963  0.00  0.00    +0.000 A 
ATOM     20  C   UNL     1      -0.323  10.983  20.925  0.00  0.00    +0.000 A 
ATOM     21  C   UNL     1      -1.097  11.179  22.067  0.00  0.00    +0.000 A 
ATOM     22  C   UNL     1      -0.760  10.483  23.217  0.00  0.00    +0.000 A 
ATOM     23  N   UNL     1       0.276   9.623  23.293  0.00  0.00    +0.000 NA
ATOM     24  C   UNL     1       1.009   9.450  22.169  0.00  0.00    +0.000 A 
ENDBRANCH  18  19
ENDBRANCH  16  18
ENDBRANCH  13  14
ENDBRANCH  10  13
TORSDOF 5
ENDMDL
