MODEL 1
REMARK VINA RESULT:      -8.6      0.000      0.000
REMARK  Name = 
REMARK  3 active torsions:
REMARK  status: ('A' for Active; 'I' for Inactive)
REMARK    1  A    between atoms: C_2  and  C_17
REMARK    2  A    between atoms: C_6  and  C_7
REMARK    3  A    between atoms: C_17  and  N_18
REMARK                            x       y       z     vdW  Elec       q    Type
REMARK                         _______ _______ _______ _____ _____    ______ ____
ROOT
ATOM      1  O   UNL     1       2.210   9.136  18.043  0.00  0.00    +0.000 OA
ATOM      2  C   UNL     1       1.568   8.985  19.084  0.00  0.00    +0.000 C 
ATOM      3  N   UNL     1       1.639   7.871  19.896  0.00  0.00    +0.000 N 
ATOM      4  C   UNL     1       2.419   6.792  19.584  0.00  0.00    +0.000 A 
ATOM      5  N   UNL     1       3.331   6.663  18.661  0.00  0.00    +0.000 NA
ATOM      6  C   UNL     1       3.881   5.391  18.716  0.00  0.00    +0.000 A 
ATOM      7  C   UNL     1       3.286   4.553  19.643  0.00  0.00    +0.000 A 
ATOM      8  S   UNL     1       2.116   5.421  20.552  0.00  0.00    +0.000 S 
ATOM      9  H   UNL     1       1.067   7.756  20.719  0.00  0.00    +0.000 HD
ENDROOT
BRANCH   6  10
ATOM     10  C   UNL     1       4.978   5.017  17.831  0.00  0.00    +0.000 A 
ATOM     11  C   UNL     1       4.696   4.682  16.498  0.00  0.00    +0.000 A 
ATOM     12  C   UNL     1       5.731   4.348  15.627  0.00  0.00    +0.000 A 
ATOM     13  F   UNL     1       5.447   4.026  14.359  0.00  0.00    +0.000 F 
ATOM     14  C   UNL     1       7.056   4.347  16.048  0.00  0.00    +0.000 A 
ATOM     15  C   UNL     1       7.352   4.687  17.366  0.00  0.00    +0.000 A 
ATOM     16  C   UNL     1       6.319   5.019  18.243  0.00  0.00    +0.000 A 
ATOM     17  F   UNL     1       6.657   5.366  19.495  0.00  0.00    +0.000 F 
ENDBRANCH   6  10
BRANCH   2  18
ATOM     18  C   UNL     1       0.637  10.124  19.566  0.00  0.00    +0.000 C 
ATOM     19  C   UNL     1      -0.710  10.183  18.796  0.00  0.00    +0.000 C 
ATOM     20  C   UNL     1      -1.479  11.459  19.114  0.00  0.00    +0.000 C 
ATOM     21  O   UNL     1      -0.692  12.588  18.759  0.00  0.00    +0.000 OA
ATOM     22  C   UNL     1       0.503  12.679  19.524  0.00  0.00    +0.000 C 
ATOM     23  C   UNL     1       1.380  11.462  19.275  0.00  0.00    +0.000 C 
BRANCH  18  24
ATOM     24  N   UNL     1       0.433   9.912  20.997  0.00  0.00    +0.000 N 
ATOM     25  C   UNL     1      -0.679   9.520  21.677  0.00  0.00    +0.000 A 
ATOM     26  N   UNL     1      -0.376   9.411  22.950  0.00  0.00    +0.000 NA
ATOM     27  N   UNL     1       0.937   9.790  23.059  0.00  0.00    +0.000 NA
ATOM     28  N   UNL     1       1.436  10.116  21.875  0.00  0.00    +0.000 NA
ENDBRANCH  18  24
ENDBRANCH   2  18
TORSDOF 3
ENDMDL
MODEL 2
REMARK VINA RESULT:      -8.3      3.537      8.100
REMARK  Name = 
REMARK  3 active torsions:
REMARK  status: ('A' for Active; 'I' for Inactive)
REMARK    1  A    between atoms: C_2  and  C_17
REMARK    2  A    between atoms: C_6  and  C_7
REMARK    3  A    between atoms: C_17  and  N_18
REMARK                            x       y       z     vdW  Elec       q    Type
REMARK                         _______ _______ _______ _____ _____    ______ ____
ROOT
ATOM      1  O   UNL     1       4.059   7.744  17.119  0.00  0.00    +0.000 OA
ATOM      2  C   UNL     1       4.012   6.727  17.814  0.00  0.00    +0.000 C 
ATOM      3  N   UNL     1       3.167   6.549  18.890  0.00  0.00    +0.000 N 
ATOM      4  C   UNL     1       2.314   7.529  19.315  0.00  0.00    +0.000 A 
ATOM      5  N   UNL     1       1.988   8.655  18.742  0.00  0.00    +0.000 NA
ATOM      6  C   UNL     1       1.072   9.337  19.529  0.00  0.00    +0.000 A 
ATOM      7  C   UNL     1       0.800   8.729  20.743  0.00  0.00    +0.000 A 
ATOM      8  S   UNL     1       1.600   7.212  20.831  0.00  0.00    +0.000 S 
ATOM      9  H   UNL     1       3.183   5.723  19.468  0.00  0.00    +0.000 HD
ENDROOT
BRANCH   6  10
ATOM     10  C   UNL     1       0.493  10.595  19.075  0.00  0.00    +0.000 A 
ATOM     11  C   UNL     1       1.310  11.734  18.996  0.00  0.00    +0.000 A 
ATOM     12  C   UNL     1       0.786  12.941  18.539  0.00  0.00    +0.000 A 
ATOM     13  F   UNL     1       1.576  14.020  18.473  0.00  0.00    +0.000 F 
ATOM     14  C   UNL     1      -0.543  13.046  18.144  0.00  0.00    +0.000 A 
ATOM     15  C   UNL     1      -1.363  11.923  18.207  0.00  0.00    +0.000 A 
ATOM     16  C   UNL     1      -0.844  10.712  18.668  0.00  0.00    +0.000 A 
ATOM     17  F   UNL     1      -1.667   9.653  18.685  0.00  0.00    +0.000 F 
ENDBRANCH   6  10
BRANCH   2  18
ATOM     18  C   UNL     1       4.924   5.529  17.455  0.00  0.00    +0.000 C 
ATOM     19  C   UNL     1       6.320   5.595  18.134  0.00  0.00    +0.000 C 
ATOM     20  C   UNL     1       7.270   4.551  17.560  0.00  0.00    +0.000 C 
ATOM     21  O   UNL     1       7.422   4.766  16.163  0.00  0.00    +0.000 OA
ATOM     22  C   UNL     1       6.204   4.586  15.451  0.00  0.00    +0.000 C 
ATOM     23  C   UNL     1       5.168   5.596  15.919  0.00  0.00    +0.000 C 
BRANCH  18  24
ATOM     24  N   UNL     1       4.193   4.324  17.841  0.00  0.00    +0.000 N 
ATOM     25  C   UNL     1       3.316   3.564  17.129  0.00  0.00    +0.000 A 
ATOM     26  N   UNL     1       2.950   2.542  17.869  0.00  0.00    +0.000 NA
ATOM     27  N   UNL     1       3.580   2.705  19.075  0.00  0.00    +0.000 NA
ATOM     28  N   UNL     1       4.327   3.800  19.075  0.00  0.00    +0.000 NA
ENDBRANCH  18  24
ENDBRANCH   2  18
TORSDOF 3
ENDMDL
MODEL 3
REMARK VINA RESULT:      -8.3      3.492      8.001
REMARK  Name = 
REMARK  3 active torsions:
REMARK  status: ('A' for Active; 'I' for Inactive)
REMARK    1  A    between atoms: C_2  and  C_17
REMARK    2  A    between atoms: C_6  and  C_7
REMARK    3  A    between atoms: C_17  and  N_18
REMARK                            x       y       z     vdW  Elec       q    Type
REMARK                         _______ _______ _______ _____ _____    ______ ____
ROOT
ATOM      1  O   UNL     1       4.011   7.532  17.101  0.00  0.00    +0.000 OA
ATOM      2  C   UNL     1       4.078   6.561  17.857  0.00  0.00    +0.000 C 
ATOM      3  N   UNL     1       3.307   6.392  18.988  0.00  0.00    +0.000 N 
ATOM      4  C   UNL     1       2.404   7.333  19.401  0.00  0.00    +0.000 A 
ATOM      5  N   UNL     1       1.964   8.393  18.781  0.00  0.00    +0.000 NA
ATOM      6  C   UNL     1       1.041   9.055  19.576  0.00  0.00    +0.000 A 
ATOM      7  C   UNL     1       0.880   8.509  20.838  0.00  0.00    +0.000 A 
ATOM      8  S   UNL     1       1.797   7.064  20.972  0.00  0.00    +0.000 S 
ATOM      9  H   UNL     1       3.416   5.608  19.614  0.00  0.00    +0.000 HD
ENDROOT
BRANCH   6  10
ATOM     10  C   UNL     1       0.345  10.236  19.080  0.00  0.00    +0.000 A 
ATOM     11  C   UNL     1      -0.699  10.076  18.155  0.00  0.00    +0.000 A 
ATOM     12  C   UNL     1      -1.396  11.188  17.688  0.00  0.00    +0.000 A 
ATOM     13  F   UNL     1      -2.386  11.021  16.801  0.00  0.00    +0.000 F 
ATOM     14  C   UNL     1      -1.087  12.470  18.128  0.00  0.00    +0.000 A 
ATOM     15  C   UNL     1      -0.061  12.644  19.054  0.00  0.00    +0.000 A 
ATOM     16  C   UNL     1       0.643  11.534  19.522  0.00  0.00    +0.000 A 
ATOM     17  F   UNL     1       1.604  11.750  20.433  0.00  0.00    +0.000 F 
ENDBRANCH   6  10
BRANCH   2  18
ATOM     18  C   UNL     1       5.060   5.412  17.520  0.00  0.00    +0.000 C 
ATOM     19  C   UNL     1       6.461   5.594  18.163  0.00  0.00    +0.000 C 
ATOM     20  C   UNL     1       7.466   4.594  17.605  0.00  0.00    +0.000 C 
ATOM     21  O   UNL     1       7.574   4.765  16.198  0.00  0.00    +0.000 OA
ATOM     22  C   UNL     1       6.356   4.480  15.521  0.00  0.00    +0.000 C 
ATOM     23  C   UNL     1       5.266   5.438  15.977  0.00  0.00    +0.000 C 
BRANCH  18  24
ATOM     24  N   UNL     1       4.417   4.178  17.966  0.00  0.00    +0.000 N 
ATOM     25  C   UNL     1       3.581   3.334  17.301  0.00  0.00    +0.000 A 
ATOM     26  N   UNL     1       3.297   2.320  18.086  0.00  0.00    +0.000 NA
ATOM     27  N   UNL     1       3.935   2.572  19.273  0.00  0.00    +0.000 NA
ATOM     28  N   UNL     1       4.607   3.713  19.217  0.00  0.00    +0.000 NA
ENDBRANCH  18  24
ENDBRANCH   2  18
TORSDOF 3
ENDMDL
MODEL 4
REMARK VINA RESULT:      -8.2      3.735      8.463
REMARK  Name = 
REMARK  3 active torsions:
REMARK  status: ('A' for Active; 'I' for Inactive)
REMARK    1  A    between atoms: C_2  and  C_17
REMARK    2  A    between atoms: C_6  and  C_7
REMARK    3  A    between atoms: C_17  and  N_18
REMARK                            x       y       z     vdW  Elec       q    Type
REMARK                         _______ _______ _______ _____ _____    ______ ____
ROOT
ATOM      1  O   UNL     1       1.835   5.876  20.537  0.00  0.00    +0.000 OA
ATOM      2  C   UNL     1       2.477   5.923  19.486  0.00  0.00    +0.000 C 
ATOM      3  N   UNL     1       2.599   7.044  18.690  0.00  0.00    +0.000 N 
ATOM      4  C   UNL     1       1.968   8.220  18.989  0.00  0.00    +0.000 A 
ATOM      5  N   UNL     1       1.343   8.577  20.077  0.00  0.00    +0.000 NA
ATOM      6  C   UNL     1       0.866   9.873  19.943  0.00  0.00    +0.000 A 
ATOM      7  C   UNL     1       1.072  10.430  18.694  0.00  0.00    +0.000 A 
ATOM      8  S   UNL     1       2.003   9.362  17.722  0.00  0.00    +0.000 S 
ATOM      9  H   UNL     1       3.093   7.041  17.811  0.00  0.00    +0.000 HD
ENDROOT
BRANCH   6  10
ATOM     10  C   UNL     1       0.191  10.534  21.053  0.00  0.00    +0.000 A 
ATOM     11  C   UNL     1       0.126  11.936  21.076  0.00  0.00    +0.000 A 
ATOM     12  C   UNL     1      -0.538  12.588  22.113  0.00  0.00    +0.000 A 
ATOM     13  F   UNL     1      -0.588  13.926  22.124  0.00  0.00    +0.000 F 
ATOM     14  C   UNL     1      -1.154  11.877  23.135  0.00  0.00    +0.000 A 
ATOM     15  C   UNL     1      -1.107  10.484  23.121  0.00  0.00    +0.000 A 
ATOM     16  C   UNL     1      -0.440   9.826  22.087  0.00  0.00    +0.000 A 
ATOM     17  F   UNL     1      -0.445   8.484  22.104  0.00  0.00    +0.000 F 
ENDBRANCH   6  10
BRANCH   2  18
ATOM     18  C   UNL     1       3.246   4.664  19.016  0.00  0.00    +0.000 C 
ATOM     19  C   UNL     1       2.503   3.870  17.907  0.00  0.00    +0.000 C 
ATOM     20  C   UNL     1       3.155   2.516  17.659  0.00  0.00    +0.000 C 
ATOM     21  O   UNL     1       3.145   1.756  18.861  0.00  0.00    +0.000 OA
ATOM     22  C   UNL     1       3.924   2.357  19.888  0.00  0.00    +0.000 C 
ATOM     23  C   UNL     1       3.356   3.720  20.249  0.00  0.00    +0.000 C 
BRANCH  18  24
ATOM     24  N   UNL     1       4.556   5.127  18.563  0.00  0.00    +0.000 N 
ATOM     25  C   UNL     1       5.719   5.279  19.252  0.00  0.00    +0.000 A 
ATOM     26  N   UNL     1       6.654   5.670  18.416  0.00  0.00    +0.000 NA
ATOM     27  N   UNL     1       6.039   5.805  17.199  0.00  0.00    +0.000 NA
ATOM     28  N   UNL     1       4.753   5.493  17.281  0.00  0.00    +0.000 NA
ENDBRANCH  18  24
ENDBRANCH   2  18
TORSDOF 3
ENDMDL
MODEL 5
REMARK VINA RESULT:      -8.2      1.062      1.542
REMARK  Name = 
REMARK  3 active torsions:
REMARK  status: ('A' for Active; 'I' for Inactive)
REMARK    1  A    between atoms: C_2  and  C_17
REMARK    2  A    between atoms: C_6  and  C_7
REMARK    3  A    between atoms: C_17  and  N_18
REMARK                            x       y       z     vdW  Elec       q    Type
REMARK                         _______ _______ _______ _____ _____    ______ ____
ROOT
ATOM      1  O   UNL     1       1.903   9.480  18.116  0.00  0.00    +0.000 OA
ATOM      2  C   UNL     1       1.351   9.277  19.199  0.00  0.00    +0.000 C 
ATOM      3  N   UNL     1       1.502   8.134  19.956  0.00  0.00    +0.000 N 
ATOM      4  C   UNL     1       2.269   7.081  19.538  0.00  0.00    +0.000 A 
ATOM      5  N   UNL     1       3.104   7.005  18.539  0.00  0.00    +0.000 NA
ATOM      6  C   UNL     1       3.675   5.741  18.497  0.00  0.00    +0.000 A 
ATOM      7  C   UNL     1       3.169   4.856  19.434  0.00  0.00    +0.000 A 
ATOM      8  S   UNL     1       2.065   5.667  20.470  0.00  0.00    +0.000 S 
ATOM      9  H   UNL     1       1.001   7.975  20.817  0.00  0.00    +0.000 HD
ENDROOT
BRANCH   6  10
ATOM     10  C   UNL     1       4.701   5.421  17.512  0.00  0.00    +0.000 A 
ATOM     11  C   UNL     1       5.862   6.209  17.454  0.00  0.00    +0.000 A 
ATOM     12  C   UNL     1       6.867   5.905  16.540  0.00  0.00    +0.000 A 
ATOM     13  F   UNL     1       7.967   6.668  16.492  0.00  0.00    +0.000 F 
ATOM     14  C   UNL     1       6.755   4.822  15.676  0.00  0.00    +0.000 A 
ATOM     15  C   UNL     1       5.613   4.025  15.729  0.00  0.00    +0.000 A 
ATOM     16  C   UNL     1       4.601   4.326  16.641  0.00  0.00    +0.000 A 
ATOM     17  F   UNL     1       3.534   3.513  16.672  0.00  0.00    +0.000 F 
ENDBRANCH   6  10
BRANCH   2  18
ATOM     18  C   UNL     1       0.447  10.381  19.802  0.00  0.00    +0.000 C 
ATOM     19  C   UNL     1      -0.937  10.488  19.105  0.00  0.00    +0.000 C 
ATOM     20  C   UNL     1      -1.688  11.739  19.545  0.00  0.00    +0.000 C 
ATOM     21  O   UNL     1      -0.917  12.891  19.227  0.00  0.00    +0.000 OA
ATOM     22  C   UNL     1       0.315  12.932  19.937  0.00  0.00    +0.000 C 
ATOM     23  C   UNL     1       1.176  11.736  19.564  0.00  0.00    +0.000 C 
BRANCH  18  24
ATOM     24  N   UNL     1       0.313  10.073  21.224  0.00  0.00    +0.000 N 
ATOM     25  C   UNL     1      -0.781   9.703  21.943  0.00  0.00    +0.000 A 
ATOM     26  N   UNL     1      -0.412   9.477  23.183  0.00  0.00    +0.000 NA
ATOM     27  N   UNL     1       0.928   9.762  23.235  0.00  0.00    +0.000 NA
ATOM     28  N   UNL     1       1.377  10.144  22.048  0.00  0.00    +0.000 NA
ENDBRANCH  18  24
ENDBRANCH   2  18
TORSDOF 3
ENDMDL
MODEL 6
REMARK VINA RESULT:      -8.1      3.816      8.523
REMARK  Name = 
REMARK  3 active torsions:
REMARK  status: ('A' for Active; 'I' for Inactive)
REMARK    1  A    between atoms: C_2  and  C_17
REMARK    2  A    between atoms: C_6  and  C_7
REMARK    3  A    between atoms: C_17  and  N_18
REMARK                            x       y       z     vdW  Elec       q    Type
REMARK                         _______ _______ _______ _____ _____    ______ ____
ROOT
ATOM      1  O   UNL     1       2.261   5.115  20.408  0.00  0.00    +0.000 OA
ATOM      2  C   UNL     1       2.969   5.200  19.402  0.00  0.00    +0.000 C 
ATOM      3  N   UNL     1       3.106   6.337  18.632  0.00  0.00    +0.000 N 
ATOM      4  C   UNL     1       2.418   7.487  18.904  0.00  0.00    +0.000 A 
ATOM      5  N   UNL     1       1.711   7.806  19.953  0.00  0.00    +0.000 NA
ATOM      6  C   UNL     1       1.201   9.088  19.806  0.00  0.00    +0.000 A 
ATOM      7  C   UNL     1       1.471   9.671  18.580  0.00  0.00    +0.000 A 
ATOM      8  S   UNL     1       2.498   8.649  17.658  0.00  0.00    +0.000 S 
ATOM      9  H   UNL     1       3.657   6.364  17.787  0.00  0.00    +0.000 HD
ENDROOT
BRANCH   6  10
ATOM     10  C   UNL     1       0.433   9.709  20.877  0.00  0.00    +0.000 A 
ATOM     11  C   UNL     1       0.569   9.222  22.187  0.00  0.00    +0.000 A 
ATOM     12  C   UNL     1      -0.134   9.818  23.231  0.00  0.00    +0.000 A 
ATOM     13  F   UNL     1       0.001   9.340  24.474  0.00  0.00    +0.000 F 
ATOM     14  C   UNL     1      -0.973  10.904  23.009  0.00  0.00    +0.000 A 
ATOM     15  C   UNL     1      -1.110  11.405  21.717  0.00  0.00    +0.000 A 
ATOM     16  C   UNL     1      -0.411  10.810  20.666  0.00  0.00    +0.000 A 
ATOM     17  F   UNL     1      -0.556  11.345  19.444  0.00  0.00    +0.000 F 
ENDBRANCH   6  10
BRANCH   2  18
ATOM     18  C   UNL     1       3.808   3.974  18.967  0.00  0.00    +0.000 C 
ATOM     19  C   UNL     1       3.214   3.227  17.741  0.00  0.00    +0.000 C 
ATOM     20  C   UNL     1       3.913   1.894  17.508  0.00  0.00    +0.000 C 
ATOM     21  O   UNL     1       3.774   1.076  18.663  0.00  0.00    +0.000 OA
ATOM     22  C   UNL     1       4.417   1.634  19.802  0.00  0.00    +0.000 C 
ATOM     23  C   UNL     1       3.787   2.972  20.158  0.00  0.00    +0.000 C 
BRANCH  18  24
ATOM     24  N   UNL     1       5.155   4.472  18.695  0.00  0.00    +0.000 N 
ATOM     25  C   UNL     1       5.827   4.586  17.517  0.00  0.00    +0.000 A 
ATOM     26  N   UNL     1       6.995   5.141  17.753  0.00  0.00    +0.000 NA
ATOM     27  N   UNL     1       7.057   5.326  19.110  0.00  0.00    +0.000 NA
ATOM     28  N   UNL     1       5.946   4.905  19.697  0.00  0.00    +0.000 NA
ENDBRANCH  18  24
ENDBRANCH   2  18
TORSDOF 3
ENDMDL
MODEL 7
REMARK VINA RESULT:      -8.1      3.757      8.408
REMARK  Name = 
REMARK  3 active torsions:
REMARK  status: ('A' for Active; 'I' for Inactive)
REMARK    1  A    between atoms: C_2  and  C_17
REMARK    2  A    between atoms: C_6  and  C_7
REMARK    3  A    between atoms: C_17  and  N_18
REMARK                            x       y       z     vdW  Elec       q    Type
REMARK                         _______ _______ _______ _____ _____    ______ ____
ROOT
ATOM      1  O   UNL     1       2.061   5.342  20.424  0.00  0.00    +0.000 OA
ATOM      2  C   UNL     1       2.769   5.419  19.418  0.00  0.00    +0.000 C 
ATOM      3  N   UNL     1       2.922   6.556  18.651  0.00  0.00    +0.000 N 
ATOM      4  C   UNL     1       2.250   7.715  18.927  0.00  0.00    +0.000 A 
ATOM      5  N   UNL     1       1.550   8.042  19.977  0.00  0.00    +0.000 NA
ATOM      6  C   UNL     1       1.058   9.331  19.834  0.00  0.00    +0.000 A 
ATOM      7  C   UNL     1       1.335   9.914  18.610  0.00  0.00    +0.000 A 
ATOM      8  S   UNL     1       2.346   8.880  17.684  0.00  0.00    +0.000 S 
ATOM      9  H   UNL     1       3.472   6.578  17.806  0.00  0.00    +0.000 HD
ENDROOT
BRANCH   6  10
ATOM     10  C   UNL     1       0.300   9.961  20.908  0.00  0.00    +0.000 A 
ATOM     11  C   UNL     1      -0.578  11.012  20.600  0.00  0.00    +0.000 A 
ATOM     12  C   UNL     1      -1.333  11.610  21.607  0.00  0.00    +0.000 A 
ATOM     13  F   UNL     1      -2.162  12.616  21.299  0.00  0.00    +0.000 F 
ATOM     14  C   UNL     1      -1.246  11.181  22.926  0.00  0.00    +0.000 A 
ATOM     15  C   UNL     1      -0.387  10.131  23.245  0.00  0.00    +0.000 A 
ATOM     16  C   UNL     1       0.374   9.531  22.241  0.00  0.00    +0.000 A 
ATOM     17  F   UNL     1       1.166   8.507  22.595  0.00  0.00    +0.000 F 
ENDBRANCH   6  10
BRANCH   2  18
ATOM     18  C   UNL     1       3.590   4.183  18.979  0.00  0.00    +0.000 C 
ATOM     19  C   UNL     1       3.012   3.478  17.721  0.00  0.00    +0.000 C 
ATOM     20  C   UNL     1       3.685   2.133  17.477  0.00  0.00    +0.000 C 
ATOM     21  O   UNL     1       3.495   1.294  18.610  0.00  0.00    +0.000 OA
ATOM     22  C   UNL     1       4.119   1.811  19.778  0.00  0.00    +0.000 C 
ATOM     23  C   UNL     1       3.512   3.156  20.146  0.00  0.00    +0.000 C 
BRANCH  18  24
ATOM     24  N   UNL     1       4.955   4.653  18.754  0.00  0.00    +0.000 N 
ATOM     25  C   UNL     1       5.653   4.802  17.595  0.00  0.00    +0.000 A 
ATOM     26  N   UNL     1       6.831   5.310  17.877  0.00  0.00    +0.000 NA
ATOM     27  N   UNL     1       6.873   5.431  19.242  0.00  0.00    +0.000 NA
ATOM     28  N   UNL     1       5.739   5.016  19.789  0.00  0.00    +0.000 NA
ENDBRANCH  18  24
ENDBRANCH   2  18
TORSDOF 3
ENDMDL
MODEL 8
REMARK VINA RESULT:      -8.0      3.649      8.350
REMARK  Name = 
REMARK  3 active torsions:
REMARK  status: ('A' for Active; 'I' for Inactive)
REMARK    1  A    between atoms: C_2  and  C_17
REMARK    2  A    between atoms: C_6  and  C_7
REMARK    3  A    between atoms: C_17  and  N_18
REMARK                            x       y       z     vdW  Elec       q    Type
REMARK                         _______ _______ _______ _____ _____    ______ ____
ROOT
ATOM      1  O   UNL     1       3.437   5.767  20.013  0.00  0.00    +0.000 OA
ATOM      2  C   UNL     1       3.858   5.994  18.877  0.00  0.00    +0.000 C 
ATOM      3  N   UNL     1       3.478   7.067  18.097  0.00  0.00    +0.000 N 
ATOM      4  C   UNL     1       2.544   7.974  18.515  0.00  0.00    +0.000 A 
ATOM      5  N   UNL     1       2.009   8.136  19.693  0.00  0.00    +0.000 NA
ATOM      6  C   UNL     1       1.113   9.195  19.663  0.00  0.00    +0.000 A 
ATOM      7  C   UNL     1       0.930   9.750  18.409  0.00  0.00    +0.000 A 
ATOM      8  S   UNL     1       2.004   9.023  17.283  0.00  0.00    +0.000 S 
ATOM      9  H   UNL     1       3.806   7.201  17.153  0.00  0.00    +0.000 HD
ENDROOT
BRANCH   6  10
ATOM     10  C   UNL     1       0.433   9.627  20.877  0.00  0.00    +0.000 A 
ATOM     11  C   UNL     1       0.302  11.001  21.135  0.00  0.00    +0.000 A 
ATOM     12  C   UNL     1      -0.368  11.438  22.276  0.00  0.00    +0.000 A 
ATOM     13  F   UNL     1      -0.481  12.751  22.511  0.00  0.00    +0.000 F 
ATOM     14  C   UNL     1      -0.928  10.536  23.174  0.00  0.00    +0.000 A 
ATOM     15  C   UNL     1      -0.815   9.170  22.926  0.00  0.00    +0.000 A 
ATOM     16  C   UNL     1      -0.141   8.726  21.787  0.00  0.00    +0.000 A 
ATOM     17  F   UNL     1      -0.083   7.402  21.579  0.00  0.00    +0.000 F 
ENDBRANCH   6  10
BRANCH   2  18
ATOM     18  C   UNL     1       4.922   5.048  18.268  0.00  0.00    +0.000 C 
ATOM     19  C   UNL     1       6.376   5.422  18.666  0.00  0.00    +0.000 C 
ATOM     20  C   UNL     1       7.397   4.641  17.849  0.00  0.00    +0.000 C 
ATOM     21  O   UNL     1       7.208   4.915  16.466  0.00  0.00    +0.000 OA
ATOM     22  C   UNL     1       5.942   4.473  15.993  0.00  0.00    +0.000 C 
ATOM     23  C   UNL     1       4.825   5.204  16.721  0.00  0.00    +0.000 C 
BRANCH  18  24
ATOM     24  N   UNL     1       4.572   3.698  18.704  0.00  0.00    +0.000 N 
ATOM     25  C   UNL     1       3.678   2.812  18.186  0.00  0.00    +0.000 A 
ATOM     26  N   UNL     1       3.743   1.698  18.879  0.00  0.00    +0.000 NA
ATOM     27  N   UNL     1       4.662   1.923  19.870  0.00  0.00    +0.000 NA
ATOM     28  N   UNL     1       5.161   3.148  19.784  0.00  0.00    +0.000 NA
ENDBRANCH  18  24
ENDBRANCH   2  18
TORSDOF 3
ENDMDL
MODEL 9
REMARK VINA RESULT:      -7.9      3.995      8.360
REMARK  Name = 
REMARK  3 active torsions:
REMARK  status: ('A' for Active; 'I' for Inactive)
REMARK    1  A    between atoms: C_2  and  C_17
REMARK    2  A    between atoms: C_6  and  C_7
REMARK    3  A    between atoms: C_17  and  N_18
REMARK                            x       y       z     vdW  Elec       q    Type
REMARK                         _______ _______ _______ _____ _____    ______ ____
ROOT
ATOM      1  O   UNL     1       1.515   6.370  20.814  0.00  0.00    +0.000 OA
ATOM      2  C   UNL     1       2.181   6.359  19.776  0.00  0.00    +0.000 C 
ATOM      3  N   UNL     1       2.361   7.447  18.947  0.00  0.00    +0.000 N 
ATOM      4  C   UNL     1       1.766   8.654  19.191  0.00  0.00    +0.000 A 
ATOM      5  N   UNL     1       1.131   9.070  20.252  0.00  0.00    +0.000 NA
ATOM      6  C   UNL     1       0.705  10.377  20.063  0.00  0.00    +0.000 A 
ATOM      7  C   UNL     1       0.959  10.883  18.801  0.00  0.00    +0.000 A 
ATOM      8  S   UNL     1       1.871   9.749  17.888  0.00  0.00    +0.000 S 
ATOM      9  H   UNL     1       2.874   7.396  18.080  0.00  0.00    +0.000 HD
ENDROOT
BRANCH   6  10
ATOM     10  C   UNL     1       0.030  11.099  21.135  0.00  0.00    +0.000 A 
ATOM     11  C   UNL     1       0.043  12.503  21.127  0.00  0.00    +0.000 A 
ATOM     12  C   UNL     1      -0.618  13.214  22.125  0.00  0.00    +0.000 A 
ATOM     13  F   UNL     1      -0.593  14.553  22.107  0.00  0.00    +0.000 F 
ATOM     14  C   UNL     1      -1.310  12.561  23.139  0.00  0.00    +0.000 A 
ATOM     15  C   UNL     1      -1.341  11.169  23.154  0.00  0.00    +0.000 A 
ATOM     16  C   UNL     1      -0.677  10.451  22.159  0.00  0.00    +0.000 A 
ATOM     17  F   UNL     1      -0.758   9.112  22.203  0.00  0.00    +0.000 F 
ENDBRANCH   6  10
BRANCH   2  18
ATOM     18  C   UNL     1       2.913   5.058  19.367  0.00  0.00    +0.000 C 
ATOM     19  C   UNL     1       4.459   5.165  19.474  0.00  0.00    +0.000 C 
ATOM     20  C   UNL     1       5.147   3.972  18.823  0.00  0.00    +0.000 C 
ATOM     21  O   UNL     1       4.779   3.901  17.451  0.00  0.00    +0.000 OA
ATOM     22  C   UNL     1       3.388   3.666  17.274  0.00  0.00    +0.000 C 
ATOM     23  C   UNL     1       2.582   4.811  17.866  0.00  0.00    +0.000 C 
BRANCH  18  24
ATOM     24  N   UNL     1       2.385   4.000  20.225  0.00  0.00    +0.000 N 
ATOM     25  C   UNL     1       2.888   3.466  21.372  0.00  0.00    +0.000 A 
ATOM     26  N   UNL     1       2.038   2.574  21.827  0.00  0.00    +0.000 NA
ATOM     27  N   UNL     1       1.016   2.527  20.915  0.00  0.00    +0.000 NA
ATOM     28  N   UNL     1       1.226   3.381  19.923  0.00  0.00    +0.000 NA
ENDBRANCH  18  24
ENDBRANCH   2  18
TORSDOF 3
ENDMDL
