MODEL 1
REMARK VINA RESULT:      -8.4      0.000      0.000
REMARK  Name = 
REMARK  8 active torsions:
REMARK  status: ('A' for Active; 'I' for Inactive)
REMARK    1  A    between atoms: C_1  and  C_2
REMARK    2  A    between atoms: C_7  and  O_8
REMARK    3  A    between atoms: O_8  and  C_9
REMARK    4  A    between atoms: C_9  and  C_10
REMARK    5  A    between atoms: C_10  and  C_11
REMARK    6  A    between atoms: C_10  and  N_12
REMARK    7  A    between atoms: N_15  and  C_16
REMARK    8  A    between atoms: C_16  and  C_17
REMARK                            x       y       z     vdW  Elec       q    Type
REMARK                         _______ _______ _______ _____ _____    ______ ____
ROOT
ATOM      1  N   UNL     1       5.638   5.868  18.407  0.00  0.00    +0.000 N 
ATOM      2  C   UNL     1       4.697   4.875  18.353  0.00  0.00    +0.000 C 
ATOM      3  O   UNL     1       4.368   4.273  17.344  0.00  0.00    +0.000 OA
ATOM      4  N   UNL     1       4.121   4.626  19.567  0.00  0.00    +0.000 N 
ATOM      5  H   UNL     1       6.072   5.997  19.308  0.00  0.00    +0.000 HD
ATOM      6  H   UNL     1       4.472   5.100  20.383  0.00  0.00    +0.000 HD
ENDROOT
BRANCH   4   7
ATOM      7  C   UNL     1       3.123   3.561  19.769  0.00  0.00    +0.000 C 
ATOM      8  C   UNL     1       2.599   3.607  21.213  0.00  0.00    +0.000 C 
ATOM      9  C   UNL     1       1.254   2.888  21.171  0.00  0.00    +0.000 C 
ATOM     10  C   UNL     1       0.735   3.044  19.747  0.00  0.00    +0.000 C 
ATOM     11  C   UNL     1       1.825   3.768  18.967  0.00  0.00    +0.000 C 
BRANCH   7  12
ATOM     12  C   UNL     1       3.775   2.180  19.451  0.00  0.00    +0.000 C 
ATOM     13  N   UNL     1       4.886   1.860  20.178  0.00  0.00    +0.000 N 
ATOM     14  O   UNL     1       3.351   1.398  18.605  0.00  0.00    +0.000 OA
ATOM     15  H   UNL     1       5.219   2.468  20.925  0.00  0.00    +0.000 HD
ATOM     16  H   UNL     1       5.345   0.975  20.017  0.00  0.00    +0.000 HD
ENDBRANCH   7  12
ENDBRANCH   4   7
BRANCH   1  17
ATOM     17  C   UNL     1       6.387   6.413  17.257  0.00  0.00    +0.000 C 
ATOM     18  C   UNL     1       7.328   7.580  17.566  0.00  0.00    +0.000 C 
BRANCH  17  19
ATOM     19  C   UNL     1       7.172   5.274  16.562  0.00  0.00    +0.000 C 
BRANCH  19  20
ATOM     20  O   UNL     1       7.607   5.688  15.272  0.00  0.00    +0.000 OA
BRANCH  20  27
ATOM     21  C   UNL     1       8.746   6.070  12.344  0.00  0.00    +0.000 C 
ATOM     22  C   UNL     1       7.659   5.149  12.818  0.00  0.00    +0.000 A 
ATOM     23  C   UNL     1       7.085   4.311  11.834  0.00  0.00    +0.000 A 
ATOM     24  C   UNL     1       6.075   3.400  12.138  0.00  0.00    +0.000 A 
ATOM     25  C   UNL     1       5.608   3.310  13.440  0.00  0.00    +0.000 A 
ATOM     26  C   UNL     1       6.166   4.123  14.426  0.00  0.00    +0.000 A 
ATOM     27  C   UNL     1       7.193   5.042  14.140  0.00  0.00    +0.000 A 
ENDBRANCH  20  27
ENDBRANCH  19  20
ENDBRANCH  17  19
ENDBRANCH   1  17
TORSDOF 6
ENDMDL
MODEL 2
REMARK VINA RESULT:      -8.0      3.121      7.131
REMARK  Name = 
REMARK  8 active torsions:
REMARK  status: ('A' for Active; 'I' for Inactive)
REMARK    1  A    between atoms: C_1  and  C_2
REMARK    2  A    between atoms: C_7  and  O_8
REMARK    3  A    between atoms: O_8  and  C_9
REMARK    4  A    between atoms: C_9  and  C_10
REMARK    5  A    between atoms: C_10  and  C_11
REMARK    6  A    between atoms: C_10  and  N_12
REMARK    7  A    between atoms: N_15  and  C_16
REMARK    8  A    between atoms: C_16  and  C_17
REMARK                            x       y       z     vdW  Elec       q    Type
REMARK                         _______ _______ _______ _____ _____    ______ ____
ROOT
ATOM      1  N   UNL     1       3.550   4.179  19.776  0.00  0.00    +0.000 N 
ATOM      2  C   UNL     1       3.896   4.332  18.461  0.00  0.00    +0.000 C 
ATOM      3  O   UNL     1       3.131   4.225  17.516  0.00  0.00    +0.000 OA
ATOM      4  N   UNL     1       5.226   4.598  18.291  0.00  0.00    +0.000 N 
ATOM      5  H   UNL     1       4.150   4.654  20.434  0.00  0.00    +0.000 HD
ATOM      6  H   UNL     1       5.805   4.743  19.103  0.00  0.00    +0.000 HD
ENDROOT
BRANCH   4   7
ATOM      7  C   UNL     1       5.822   4.858  16.969  0.00  0.00    +0.000 C 
ATOM      8  C   UNL     1       5.673   3.614  16.079  0.00  0.00    +0.000 C 
ATOM      9  C   UNL     1       5.799   4.131  14.649  0.00  0.00    +0.000 C 
ATOM     10  C   UNL     1       5.351   5.586  14.685  0.00  0.00    +0.000 C 
ATOM     11  C   UNL     1       5.063   5.914  16.145  0.00  0.00    +0.000 C 
BRANCH   7  12
ATOM     12  C   UNL     1       7.321   5.245  17.150  0.00  0.00    +0.000 C 
ATOM     13  N   UNL     1       8.128   4.284  17.689  0.00  0.00    +0.000 N 
ATOM     14  O   UNL     1       7.792   6.337  16.843  0.00  0.00    +0.000 OA
ATOM     15  H   UNL     1       7.771   3.352  17.896  0.00  0.00    +0.000 HD
ATOM     16  H   UNL     1       9.110   4.479  17.822  0.00  0.00    +0.000 HD
ENDBRANCH   7  12
ENDBRANCH   4   7
BRANCH   1  17
ATOM     17  C   UNL     1       2.210   3.821  20.282  0.00  0.00    +0.000 C 
ATOM     18  C   UNL     1       2.180   3.019  21.585  0.00  0.00    +0.000 C 
BRANCH  17  19
ATOM     19  C   UNL     1       1.353   5.102  20.433  0.00  0.00    +0.000 C 
BRANCH  19  20
ATOM     20  O   UNL     1       2.191   6.245  20.557  0.00  0.00    +0.000 OA
BRANCH  20  27
ATOM     21  C   UNL     1       0.640   8.718  21.782  0.00  0.00    +0.000 C 
ATOM     22  C   UNL     1       1.221   8.560  20.407  0.00  0.00    +0.000 A 
ATOM     23  C   UNL     1       1.090   9.675  19.548  0.00  0.00    +0.000 A 
ATOM     24  C   UNL     1       1.593   9.669  18.248  0.00  0.00    +0.000 A 
ATOM     25  C   UNL     1       2.237   8.538  17.772  0.00  0.00    +0.000 A 
ATOM     26  C   UNL     1       2.382   7.430  18.606  0.00  0.00    +0.000 A 
ATOM     27  C   UNL     1       1.888   7.420  19.925  0.00  0.00    +0.000 A 
ENDBRANCH  20  27
ENDBRANCH  19  20
ENDBRANCH  17  19
ENDBRANCH   1  17
TORSDOF 6
ENDMDL
MODEL 3
REMARK VINA RESULT:      -8.0      1.157      1.174
REMARK  Name = 
REMARK  8 active torsions:
REMARK  status: ('A' for Active; 'I' for Inactive)
REMARK    1  A    between atoms: C_1  and  C_2
REMARK    2  A    between atoms: C_7  and  O_8
REMARK    3  A    between atoms: O_8  and  C_9
REMARK    4  A    between atoms: C_9  and  C_10
REMARK    5  A    between atoms: C_10  and  C_11
REMARK    6  A    between atoms: C_10  and  N_12
REMARK    7  A    between atoms: N_15  and  C_16
REMARK    8  A    between atoms: C_16  and  C_17
REMARK                            x       y       z     vdW  Elec       q    Type
REMARK                         _______ _______ _______ _____ _____    ______ ____
ROOT
ATOM      1  N   UNL     1       5.381   5.715  18.027  0.00  0.00    +0.000 N 
ATOM      2  C   UNL     1       4.904   4.603  18.667  0.00  0.00    +0.000 C 
ATOM      3  O   UNL     1       5.594   3.712  19.135  0.00  0.00    +0.000 OA
ATOM      4  N   UNL     1       3.539   4.565  18.714  0.00  0.00    +0.000 N 
ATOM      5  H   UNL     1       4.765   6.513  18.040  0.00  0.00    +0.000 HD
ATOM      6  H   UNL     1       3.014   5.355  18.374  0.00  0.00    +0.000 HD
ENDROOT
BRANCH   4   7
ATOM      7  C   UNL     1       2.798   3.494  19.403  0.00  0.00    +0.000 C 
ATOM      8  C   UNL     1       3.290   3.371  20.854  0.00  0.00    +0.000 C 
ATOM      9  C   UNL     1       2.157   2.675  21.601  0.00  0.00    +0.000 C 
ATOM     10  C   UNL     1       0.881   3.007  20.838  0.00  0.00    +0.000 C 
ATOM     11  C   UNL     1       1.306   3.809  19.613  0.00  0.00    +0.000 C 
BRANCH   7  12
ATOM     12  C   UNL     1       2.993   2.155  18.627  0.00  0.00    +0.000 C 
ATOM     13  N   UNL     1       2.198   1.975  17.531  0.00  0.00    +0.000 N 
ATOM     14  O   UNL     1       3.799   1.286  18.948  0.00  0.00    +0.000 OA
ATOM     15  H   UNL     1       1.565   2.708  17.215  0.00  0.00    +0.000 HD
ATOM     16  H   UNL     1       2.288   1.128  16.989  0.00  0.00    +0.000 HD
ENDBRANCH   7  12
ENDBRANCH   4   7
BRANCH   1  17
ATOM     17  C   UNL     1       6.801   6.013  17.754  0.00  0.00    +0.000 C 
ATOM     18  C   UNL     1       7.725   6.033  18.974  0.00  0.00    +0.000 C 
BRANCH  17  19
ATOM     19  C   UNL     1       7.347   5.022  16.697  0.00  0.00    +0.000 C 
BRANCH  19  20
ATOM     20  O   UNL     1       7.461   5.662  15.432  0.00  0.00    +0.000 OA
BRANCH  20  27
ATOM     21  C   UNL     1       8.794   5.994  12.580  0.00  0.00    +0.000 C 
ATOM     22  C   UNL     1       7.649   5.111  12.986  0.00  0.00    +0.000 A 
ATOM     23  C   UNL     1       7.111   4.288  11.970  0.00  0.00    +0.000 A 
ATOM     24  C   UNL     1       6.054   3.412  12.212  0.00  0.00    +0.000 A 
ATOM     25  C   UNL     1       5.504   3.343  13.482  0.00  0.00    +0.000 A 
ATOM     26  C   UNL     1       6.026   4.141  14.499  0.00  0.00    +0.000 A 
ATOM     27  C   UNL     1       7.098   5.025  14.277  0.00  0.00    +0.000 A 
ENDBRANCH  20  27
ENDBRANCH  19  20
ENDBRANCH  17  19
ENDBRANCH   1  17
TORSDOF 6
ENDMDL
MODEL 4
REMARK VINA RESULT:      -7.9      1.179      1.244
REMARK  Name = 
REMARK  8 active torsions:
REMARK  status: ('A' for Active; 'I' for Inactive)
REMARK    1  A    between atoms: C_1  and  C_2
REMARK    2  A    between atoms: C_7  and  O_8
REMARK    3  A    between atoms: O_8  and  C_9
REMARK    4  A    between atoms: C_9  and  C_10
REMARK    5  A    between atoms: C_10  and  C_11
REMARK    6  A    between atoms: C_10  and  N_12
REMARK    7  A    between atoms: N_15  and  C_16
REMARK    8  A    between atoms: C_16  and  C_17
REMARK                            x       y       z     vdW  Elec       q    Type
REMARK                         _______ _______ _______ _____ _____    ______ ____
ROOT
ATOM      1  N   UNL     1       5.882   5.693  18.105  0.00  0.00    +0.000 N 
ATOM      2  C   UNL     1       4.560   5.363  18.240  0.00  0.00    +0.000 C 
ATOM      3  O   UNL     1       3.628   5.983  17.752  0.00  0.00    +0.000 OA
ATOM      4  N   UNL     1       4.367   4.257  19.019  0.00  0.00    +0.000 N 
ATOM      5  H   UNL     1       6.527   4.925  18.217  0.00  0.00    +0.000 HD
ATOM      6  H   UNL     1       5.169   3.740  19.344  0.00  0.00    +0.000 HD
ENDROOT
BRANCH   4   7
ATOM      7  C   UNL     1       3.034   3.678  19.260  0.00  0.00    +0.000 C 
ATOM      8  C   UNL     1       3.082   2.758  20.490  0.00  0.00    +0.000 C 
ATOM      9  C   UNL     1       1.637   2.659  20.969  0.00  0.00    +0.000 C 
ATOM     10  C   UNL     1       0.950   3.938  20.509  0.00  0.00    +0.000 C 
ATOM     11  C   UNL     1       1.979   4.712  19.694  0.00  0.00    +0.000 C 
BRANCH   7  12
ATOM     12  C   UNL     1       2.577   2.897  17.990  0.00  0.00    +0.000 C 
ATOM     13  N   UNL     1       2.988   1.597  17.906  0.00  0.00    +0.000 N 
ATOM     14  O   UNL     1       1.891   3.381  17.095  0.00  0.00    +0.000 OA
ATOM     15  H   UNL     1       3.508   1.159  18.665  0.00  0.00    +0.000 HD
ATOM     16  H   UNL     1       2.715   1.042  17.107  0.00  0.00    +0.000 HD
ENDBRANCH   7  12
ENDBRANCH   4   7
BRANCH   1  17
ATOM     17  C   UNL     1       6.411   6.868  17.385  0.00  0.00    +0.000 C 
ATOM     18  C   UNL     1       7.842   7.279  17.740  0.00  0.00    +0.000 C 
BRANCH  17  19
ATOM     19  C   UNL     1       6.293   6.638  15.859  0.00  0.00    +0.000 C 
BRANCH  19  20
ATOM     20  O   UNL     1       7.063   5.507  15.468  0.00  0.00    +0.000 OA
BRANCH  20  27
ATOM     21  C   UNL     1       8.775   5.943  12.841  0.00  0.00    +0.000 C 
ATOM     22  C   UNL     1       7.599   5.035  13.058  0.00  0.00    +0.000 A 
ATOM     23  C   UNL     1       7.220   4.239  11.952  0.00  0.00    +0.000 A 
ATOM     24  C   UNL     1       6.153   3.344  12.018  0.00  0.00    +0.000 A 
ATOM     25  C   UNL     1       5.432   3.228  13.196  0.00  0.00    +0.000 A 
ATOM     26  C   UNL     1       5.795   4.000  14.300  0.00  0.00    +0.000 A 
ATOM     27  C   UNL     1       6.874   4.902  14.255  0.00  0.00    +0.000 A 
ENDBRANCH  20  27
ENDBRANCH  19  20
ENDBRANCH  17  19
ENDBRANCH   1  17
TORSDOF 6
ENDMDL
MODEL 5
REMARK VINA RESULT:      -7.8      1.410      1.833
REMARK  Name = 
REMARK  8 active torsions:
REMARK  status: ('A' for Active; 'I' for Inactive)
REMARK    1  A    between atoms: C_1  and  C_2
REMARK    2  A    between atoms: C_7  and  O_8
REMARK    3  A    between atoms: O_8  and  C_9
REMARK    4  A    between atoms: C_9  and  C_10
REMARK    5  A    between atoms: C_10  and  C_11
REMARK    6  A    between atoms: C_10  and  N_12
REMARK    7  A    between atoms: N_15  and  C_16
REMARK    8  A    between atoms: C_16  and  C_17
REMARK                            x       y       z     vdW  Elec       q    Type
REMARK                         _______ _______ _______ _____ _____    ______ ____
ROOT
ATOM      1  N   UNL     1       6.054   4.182  18.434  0.00  0.00    +0.000 N 
ATOM      2  C   UNL     1       4.736   4.346  18.767  0.00  0.00    +0.000 C 
ATOM      3  O   UNL     1       4.127   5.403  18.724  0.00  0.00    +0.000 OA
ATOM      4  N   UNL     1       4.150   3.188  19.193  0.00  0.00    +0.000 N 
ATOM      5  H   UNL     1       6.310   3.248  18.152  0.00  0.00    +0.000 HD
ATOM      6  H   UNL     1       4.673   2.328  19.149  0.00  0.00    +0.000 HD
ENDROOT
BRANCH   4   7
ATOM      7  C   UNL     1       2.723   3.105  19.552  0.00  0.00    +0.000 C 
ATOM      8  C   UNL     1       1.894   3.964  18.583  0.00  0.00    +0.000 C 
ATOM      9  C   UNL     1       0.477   3.407  18.672  0.00  0.00    +0.000 C 
ATOM     10  C   UNL     1       0.621   1.949  19.090  0.00  0.00    +0.000 C 
ATOM     11  C   UNL     1       2.107   1.712  19.327  0.00  0.00    +0.000 C 
BRANCH   7  12
ATOM     12  C   UNL     1       2.537   3.579  21.025  0.00  0.00    +0.000 C 
ATOM     13  N   UNL     1       2.290   4.912  21.200  0.00  0.00    +0.000 N 
ATOM     14  O   UNL     1       2.602   2.836  22.000  0.00  0.00    +0.000 OA
ATOM     15  H   UNL     1       2.174   5.534  20.402  0.00  0.00    +0.000 HD
ATOM     16  H   UNL     1       2.155   5.271  22.134  0.00  0.00    +0.000 HD
ENDBRANCH   7  12
ENDBRANCH   4   7
BRANCH   1  17
ATOM     17  C   UNL     1       6.977   5.251  18.004  0.00  0.00    +0.000 C 
ATOM     18  C   UNL     1       7.995   5.714  19.049  0.00  0.00    +0.000 C 
BRANCH  17  19
ATOM     19  C   UNL     1       7.711   4.815  16.712  0.00  0.00    +0.000 C 
BRANCH  19  20
ATOM     20  O   UNL     1       7.256   5.581  15.603  0.00  0.00    +0.000 OA
BRANCH  20  27
ATOM     21  C   UNL     1       8.851   5.901  12.888  0.00  0.00    +0.000 C 
ATOM     22  C   UNL     1       7.629   5.076  13.169  0.00  0.00    +0.000 A 
ATOM     23  C   UNL     1       7.137   4.309  12.088  0.00  0.00    +0.000 A 
ATOM     24  C   UNL     1       6.017   3.489  12.212  0.00  0.00    +0.000 A 
ATOM     25  C   UNL     1       5.353   3.423  13.427  0.00  0.00    +0.000 A 
ATOM     26  C   UNL     1       5.827   4.166  14.508  0.00  0.00    +0.000 A 
ATOM     27  C   UNL     1       6.962   4.992  14.404  0.00  0.00    +0.000 A 
ENDBRANCH  20  27
ENDBRANCH  19  20
ENDBRANCH  17  19
ENDBRANCH   1  17
TORSDOF 6
ENDMDL
MODEL 6
REMARK VINA RESULT:      -7.8      3.321      7.227
REMARK  Name = 
REMARK  8 active torsions:
REMARK  status: ('A' for Active; 'I' for Inactive)
REMARK    1  A    between atoms: C_1  and  C_2
REMARK    2  A    between atoms: C_7  and  O_8
REMARK    3  A    between atoms: O_8  and  C_9
REMARK    4  A    between atoms: C_9  and  C_10
REMARK    5  A    between atoms: C_10  and  C_11
REMARK    6  A    between atoms: C_10  and  N_12
REMARK    7  A    between atoms: N_15  and  C_16
REMARK    8  A    between atoms: C_16  and  C_17
REMARK                            x       y       z     vdW  Elec       q    Type
REMARK                         _______ _______ _______ _____ _____    ______ ____
ROOT
ATOM      1  N   UNL     1       3.455   4.257  19.857  0.00  0.00    +0.000 N 
ATOM      2  C   UNL     1       3.837   4.450  18.557  0.00  0.00    +0.000 C 
ATOM      3  O   UNL     1       3.079   4.509  17.603  0.00  0.00    +0.000 OA
ATOM      4  N   UNL     1       5.193   4.546  18.413  0.00  0.00    +0.000 N 
ATOM      5  H   UNL     1       4.102   4.604  20.548  0.00  0.00    +0.000 HD
ATOM      6  H   UNL     1       5.774   4.559  19.236  0.00  0.00    +0.000 HD
ENDROOT
BRANCH   4   7
ATOM      7  C   UNL     1       5.838   4.812  17.115  0.00  0.00    +0.000 C 
ATOM      8  C   UNL     1       5.605   3.625  16.167  0.00  0.00    +0.000 C 
ATOM      9  C   UNL     1       5.805   4.191  14.765  0.00  0.00    +0.000 C 
ATOM     10  C   UNL     1       5.480   5.676  14.858  0.00  0.00    +0.000 C 
ATOM     11  C   UNL     1       5.189   5.964  16.326  0.00  0.00    +0.000 C 
BRANCH   7  12
ATOM     12  C   UNL     1       7.360   5.062  17.340  0.00  0.00    +0.000 C 
ATOM     13  N   UNL     1       7.724   6.352  17.605  0.00  0.00    +0.000 N 
ATOM     14  O   UNL     1       8.216   4.183  17.289  0.00  0.00    +0.000 OA
ATOM     15  H   UNL     1       7.024   7.085  17.710  0.00  0.00    +0.000 HD
ATOM     16  H   UNL     1       8.697   6.568  17.766  0.00  0.00    +0.000 HD
ENDBRANCH   7  12
ENDBRANCH   4   7
BRANCH   1  17
ATOM     17  C   UNL     1       2.071   4.049  20.329  0.00  0.00    +0.000 C 
ATOM     18  C   UNL     1       1.901   3.046  21.473  0.00  0.00    +0.000 C 
BRANCH  17  19
ATOM     19  C   UNL     1       1.447   5.409  20.725  0.00  0.00    +0.000 C 
BRANCH  19  20
ATOM     20  O   UNL     1       2.279   6.479  20.292  0.00  0.00    +0.000 OA
BRANCH  20  27
ATOM     21  C   UNL     1       2.513   8.221  17.660  0.00  0.00    +0.000 C 
ATOM     22  C   UNL     1       1.827   8.557  18.952  0.00  0.00    +0.000 A 
ATOM     23  C   UNL     1       1.166   9.806  18.995  0.00  0.00    +0.000 A 
ATOM     24  C   UNL     1       0.480  10.240  20.129  0.00  0.00    +0.000 A 
ATOM     25  C   UNL     1       0.445   9.433  21.254  0.00  0.00    +0.000 A 
ATOM     26  C   UNL     1       1.086   8.194  21.229  0.00  0.00    +0.000 A 
ATOM     27  C   UNL     1       1.776   7.735  20.092  0.00  0.00    +0.000 A 
ENDBRANCH  20  27
ENDBRANCH  19  20
ENDBRANCH  17  19
ENDBRANCH   1  17
TORSDOF 6
ENDMDL
MODEL 7
REMARK VINA RESULT:      -7.7      1.504      2.494
REMARK  Name = 
REMARK  8 active torsions:
REMARK  status: ('A' for Active; 'I' for Inactive)
REMARK    1  A    between atoms: C_1  and  C_2
REMARK    2  A    between atoms: C_7  and  O_8
REMARK    3  A    between atoms: O_8  and  C_9
REMARK    4  A    between atoms: C_9  and  C_10
REMARK    5  A    between atoms: C_10  and  C_11
REMARK    6  A    between atoms: C_10  and  N_12
REMARK    7  A    between atoms: N_15  and  C_16
REMARK    8  A    between atoms: C_16  and  C_17
REMARK                            x       y       z     vdW  Elec       q    Type
REMARK                         _______ _______ _______ _____ _____    ______ ____
ROOT
ATOM      1  N   UNL     1       5.675   5.981  18.292  0.00  0.00    +0.000 N 
ATOM      2  C   UNL     1       4.983   4.925  18.821  0.00  0.00    +0.000 C 
ATOM      3  O   UNL     1       5.485   3.894  19.237  0.00  0.00    +0.000 OA
ATOM      4  N   UNL     1       3.631   5.124  18.818  0.00  0.00    +0.000 N 
ATOM      5  H   UNL     1       5.205   6.872  18.351  0.00  0.00    +0.000 HD
ATOM      6  H   UNL     1       3.267   6.017  18.527  0.00  0.00    +0.000 HD
ENDROOT
BRANCH   4   7
ATOM      7  C   UNL     1       2.684   4.150  19.390  0.00  0.00    +0.000 C 
ATOM      8  C   UNL     1       1.425   4.073  18.512  0.00  0.00    +0.000 C 
ATOM      9  C   UNL     1       0.793   2.725  18.841  0.00  0.00    +0.000 C 
ATOM     10  C   UNL     1       1.930   1.828  19.312  0.00  0.00    +0.000 C 
ATOM     11  C   UNL     1       3.183   2.695  19.336  0.00  0.00    +0.000 C 
BRANCH   7  12
ATOM     12  C   UNL     1       2.328   4.577  20.847  0.00  0.00    +0.000 C 
ATOM     13  N   UNL     1       2.012   5.894  21.027  0.00  0.00    +0.000 N 
ATOM     14  O   UNL     1       2.322   3.811  21.806  0.00  0.00    +0.000 OA
ATOM     15  H   UNL     1       1.953   6.534  20.235  0.00  0.00    +0.000 HD
ATOM     16  H   UNL     1       1.767   6.223  21.949  0.00  0.00    +0.000 HD
ENDBRANCH   7  12
ENDBRANCH   4   7
BRANCH   1  17
ATOM     17  C   UNL     1       7.137   6.045  18.094  0.00  0.00    +0.000 C 
ATOM     18  C   UNL     1       7.990   5.831  19.346  0.00  0.00    +0.000 C 
BRANCH  17  19
ATOM     19  C   UNL     1       7.556   5.042  16.993  0.00  0.00    +0.000 C 
BRANCH  19  20
ATOM     20  O   UNL     1       7.458   5.646  15.709  0.00  0.00    +0.000 OA
BRANCH  20  27
ATOM     21  C   UNL     1       4.916   3.763  15.603  0.00  0.00    +0.000 C 
ATOM     22  C   UNL     1       5.877   4.109  14.502  0.00  0.00    +0.000 A 
ATOM     23  C   UNL     1       5.595   3.549  13.235  0.00  0.00    +0.000 A 
ATOM     24  C   UNL     1       6.397   3.796  12.122  0.00  0.00    +0.000 A 
ATOM     25  C   UNL     1       7.511   4.611  12.253  0.00  0.00    +0.000 A 
ATOM     26  C   UNL     1       7.802   5.179  13.494  0.00  0.00    +0.000 A 
ATOM     27  C   UNL     1       6.998   4.948  14.626  0.00  0.00    +0.000 A 
ENDBRANCH  20  27
ENDBRANCH  19  20
ENDBRANCH  17  19
ENDBRANCH   1  17
TORSDOF 6
ENDMDL
MODEL 8
REMARK VINA RESULT:      -7.6      1.469      2.121
REMARK  Name = 
REMARK  8 active torsions:
REMARK  status: ('A' for Active; 'I' for Inactive)
REMARK    1  A    between atoms: C_1  and  C_2
REMARK    2  A    between atoms: C_7  and  O_8
REMARK    3  A    between atoms: O_8  and  C_9
REMARK    4  A    between atoms: C_9  and  C_10
REMARK    5  A    between atoms: C_10  and  C_11
REMARK    6  A    between atoms: C_10  and  N_12
REMARK    7  A    between atoms: N_15  and  C_16
REMARK    8  A    between atoms: C_16  and  C_17
REMARK                            x       y       z     vdW  Elec       q    Type
REMARK                         _______ _______ _______ _____ _____    ______ ____
ROOT
ATOM      1  N   UNL     1       6.168   4.386  18.542  0.00  0.00    +0.000 N 
ATOM      2  C   UNL     1       4.832   4.559  18.784  0.00  0.00    +0.000 C 
ATOM      3  O   UNL     1       4.217   5.600  18.617  0.00  0.00    +0.000 OA
ATOM      4  N   UNL     1       4.232   3.431  19.271  0.00  0.00    +0.000 N 
ATOM      5  H   UNL     1       6.448   3.435  18.354  0.00  0.00    +0.000 HD
ATOM      6  H   UNL     1       4.765   2.578  19.328  0.00  0.00    +0.000 HD
ENDROOT
BRANCH   4   7
ATOM      7  C   UNL     1       2.787   3.359  19.552  0.00  0.00    +0.000 C 
ATOM      8  C   UNL     1       2.543   2.477  20.787  0.00  0.00    +0.000 C 
ATOM      9  C   UNL     1       1.169   2.891  21.305  0.00  0.00    +0.000 C 
ATOM     10  C   UNL     1       0.964   4.332  20.855  0.00  0.00    +0.000 C 
ATOM     11  C   UNL     1       2.177   4.697  20.007  0.00  0.00    +0.000 C 
BRANCH   7  12
ATOM     12  C   UNL     1       2.050   2.792  18.301  0.00  0.00    +0.000 C 
ATOM     13  N   UNL     1       1.728   1.465  18.343  0.00  0.00    +0.000 N 
ATOM     14  O   UNL     1       1.758   3.460  17.313  0.00  0.00    +0.000 OA
ATOM     15  H   UNL     1       1.908   0.906  19.177  0.00  0.00    +0.000 HD
ATOM     16  H   UNL     1       1.244   1.048  17.562  0.00  0.00    +0.000 HD
ENDBRANCH   7  12
ENDBRANCH   4   7
BRANCH   1  17
ATOM     17  C   UNL     1       7.105   5.428  18.078  0.00  0.00    +0.000 C 
ATOM     18  C   UNL     1       8.113   5.929  19.114  0.00  0.00    +0.000 C 
BRANCH  17  19
ATOM     19  C   UNL     1       7.852   4.931  16.816  0.00  0.00    +0.000 C 
BRANCH  19  20
ATOM     20  O   UNL     1       7.388   5.622  15.662  0.00  0.00    +0.000 OA
BRANCH  20  27
ATOM     21  C   UNL     1       4.832   3.771  15.421  0.00  0.00    +0.000 C 
ATOM     22  C   UNL     1       5.840   4.125  14.366  0.00  0.00    +0.000 A 
ATOM     23  C   UNL     1       5.603   3.589  13.079  0.00  0.00    +0.000 A 
ATOM     24  C   UNL     1       6.453   3.846  12.004  0.00  0.00    +0.000 A 
ATOM     25  C   UNL     1       7.569   4.645  12.194  0.00  0.00    +0.000 A 
ATOM     26  C   UNL     1       7.816   5.189  13.455  0.00  0.00    +0.000 A 
ATOM     27  C   UNL     1       6.965   4.948  14.550  0.00  0.00    +0.000 A 
ENDBRANCH  20  27
ENDBRANCH  19  20
ENDBRANCH  17  19
ENDBRANCH   1  17
TORSDOF 6
ENDMDL
MODEL 9
REMARK VINA RESULT:      -7.4      1.662      2.499
REMARK  Name = 
REMARK  8 active torsions:
REMARK  status: ('A' for Active; 'I' for Inactive)
REMARK    1  A    between atoms: C_1  and  C_2
REMARK    2  A    between atoms: C_7  and  O_8
REMARK    3  A    between atoms: O_8  and  C_9
REMARK    4  A    between atoms: C_9  and  C_10
REMARK    5  A    between atoms: C_10  and  C_11
REMARK    6  A    between atoms: C_10  and  N_12
REMARK    7  A    between atoms: N_15  and  C_16
REMARK    8  A    between atoms: C_16  and  C_17
REMARK                            x       y       z     vdW  Elec       q    Type
REMARK                         _______ _______ _______ _____ _____    ______ ____
ROOT
ATOM      1  N   UNL     1       6.145   4.516  18.958  0.00  0.00    +0.000 N 
ATOM      2  C   UNL     1       4.783   4.651  18.932  0.00  0.00    +0.000 C 
ATOM      3  O   UNL     1       4.179   5.588  18.436  0.00  0.00    +0.000 OA
ATOM      4  N   UNL     1       4.138   3.620  19.556  0.00  0.00    +0.000 N 
ATOM      5  H   UNL     1       6.479   3.568  19.038  0.00  0.00    +0.000 HD
ATOM      6  H   UNL     1       4.675   2.836  19.891  0.00  0.00    +0.000 HD
ENDROOT
BRANCH   4   7
ATOM      7  C   UNL     1       2.669   3.516  19.605  0.00  0.00    +0.000 C 
ATOM      8  C   UNL     1       2.060   4.181  18.360  0.00  0.00    +0.000 C 
ATOM      9  C   UNL     1       0.669   3.570  18.224  0.00  0.00    +0.000 C 
ATOM     10  C   UNL     1       0.743   2.198  18.882  0.00  0.00    +0.000 C 
ATOM     11  C   UNL     1       2.144   2.075  19.468  0.00  0.00    +0.000 C 
BRANCH   7  12
ATOM     12  C   UNL     1       2.152   4.189  20.913  0.00  0.00    +0.000 C 
ATOM     13  N   UNL     1       2.061   3.379  22.009  0.00  0.00    +0.000 N 
ATOM     14  O   UNL     1       1.831   5.371  20.998  0.00  0.00    +0.000 OA
ATOM     15  H   UNL     1       2.376   2.411  21.975  0.00  0.00    +0.000 HD
ATOM     16  H   UNL     1       1.737   3.766  22.884  0.00  0.00    +0.000 HD
ENDBRANCH   7  12
ENDBRANCH   4   7
BRANCH   1  17
ATOM     17  C   UNL     1       7.121   5.491  18.431  0.00  0.00    +0.000 C 
ATOM     18  C   UNL     1       8.215   5.934  19.405  0.00  0.00    +0.000 C 
BRANCH  17  19
ATOM     19  C   UNL     1       7.762   4.936  17.136  0.00  0.00    +0.000 C 
BRANCH  19  20
ATOM     20  O   UNL     1       7.273   5.640  16.001  0.00  0.00    +0.000 OA
BRANCH  20  27
ATOM     21  C   UNL     1       4.838   3.662  15.576  0.00  0.00    +0.000 C 
ATOM     22  C   UNL     1       5.871   4.109  14.582  0.00  0.00    +0.000 A 
ATOM     23  C   UNL     1       5.723   3.610  13.268  0.00  0.00    +0.000 A 
ATOM     24  C   UNL     1       6.604   3.953  12.243  0.00  0.00    +0.000 A 
ATOM     25  C   UNL     1       7.664   4.804  12.513  0.00  0.00    +0.000 A 
ATOM     26  C   UNL     1       7.823   5.313  13.802  0.00  0.00    +0.000 A 
ATOM     27  C   UNL     1       6.939   4.985  14.847  0.00  0.00    +0.000 A 
ENDBRANCH  20  27
ENDBRANCH  19  20
ENDBRANCH  17  19
ENDBRANCH   1  17
TORSDOF 6
ENDMDL
