MODEL 1
REMARK VINA RESULT:      -6.2      0.000      0.000
REMARK  Name = 
REMARK  12 active torsions:
REMARK  status: ('A' for Active; 'I' for Inactive)
REMARK    1  A    between atoms: C_1  and  C_2
REMARK    2  A    between atoms: C_2  and  C_3
REMARK    3  A    between atoms: C_3  and  C_4
REMARK    4  A    between atoms: N_7  and  C_8
REMARK    5  A    between atoms: C_8  and  C_9
REMARK    6  A    between atoms: C_9  and  N_10
REMARK    7  A    between atoms: N_10  and  C_11
REMARK    8  A    between atoms: N_10  and  C_12
REMARK    9  A    between atoms: C_16  and  C_17
REMARK   10  A    between atoms: C_24  and  C_25
REMARK   11  A    between atoms: C_28  and  O_29
REMARK   12  A    between atoms: O_29  and  C_30
REMARK                            x       y       z     vdW  Elec       q    Type
REMARK                         _______ _______ _______ _____ _____    ______ ____
ROOT
ATOM      1  C   UNL     1      -1.253  12.102  20.194  0.00  0.00    +0.000 C 
ATOM      2  C   UNL     1      -0.868  12.471  21.637  0.00  0.00    +0.000 C 
ATOM      3  O   UNL     1       0.313  12.261  21.891  0.00  0.00    +0.000 OA
ATOM      4  N   UNL     1      -1.532  13.435  22.378  0.00  0.00    +0.000 N 
ATOM      5  C   UNL     1      -2.942  13.339  22.644  0.00  0.00    +0.000 A 
ATOM      6  C   UNL     1      -3.373  13.390  23.992  0.00  0.00    +0.000 A 
ATOM      7  C   UNL     1      -4.705  13.174  24.355  0.00  0.00    +0.000 A 
ATOM      8  C   UNL     1      -5.655  12.897  23.375  0.00  0.00    +0.000 A 
ATOM      9  C   UNL     1      -5.262  12.890  22.035  0.00  0.00    +0.000 A 
ATOM     10  C   UNL     1      -3.914  13.108  21.658  0.00  0.00    +0.000 A 
ATOM     11  C   UNL     1      -3.597  13.091  20.197  0.00  0.00    +0.000 C 
ATOM     12  C   UNL     1      -2.771  11.845  19.832  0.00  0.00    +0.000 C 
ENDROOT
BRANCH  12  13
ATOM     13  C   UNL     1      -3.057  11.341  18.372  0.00  0.00    +0.000 A 
ATOM     14  C   UNL     1      -4.229  11.703  17.672  0.00  0.00    +0.000 A 
ATOM     15  C   UNL     1      -4.493  11.247  16.377  0.00  0.00    +0.000 A 
ATOM     16  C   UNL     1      -3.578  10.442  15.703  0.00  0.00    +0.000 A 
ATOM     17  C   UNL     1      -2.380  10.106  16.344  0.00  0.00    +0.000 A 
ATOM     18  C   UNL     1      -2.121  10.551  17.643  0.00  0.00    +0.000 A 
BRANCH  16  19
ATOM     19  O   UNL     1      -3.875  10.040  14.438  0.00  0.00    +0.000 OA
ATOM     20  C   UNL     1      -2.959   9.756  13.445  0.00  0.00    +0.000 C 
ENDBRANCH  16  19
ENDBRANCH  12  13
BRANCH   8  21
ATOM     21  C   UNL     1      -7.098  12.595  23.720  0.00  0.00    +0.000 C 
ATOM     22  F   UNL     1      -7.582  13.447  24.695  0.00  0.00    +0.000 F 
ATOM     23  F   UNL     1      -7.884  12.714  22.589  0.00  0.00    +0.000 F 
ATOM     24  F   UNL     1      -7.183  11.295  24.192  0.00  0.00    +0.000 F 
ENDBRANCH   8  21
BRANCH   1  25
ATOM     25  C   UNL     1      -0.545  13.269  19.409  0.00  0.00    +0.000 C 
BRANCH  25  27
ATOM     26  C   UNL     1       1.721  14.011  18.630  0.00  0.00    +0.000 C 
ATOM     27  C   UNL     1       0.621  12.966  18.478  0.00  0.00    +0.000 C 
ENDBRANCH  25  27
ENDBRANCH   1  25
BRANCH   4  28
ATOM     28  C   UNL     1      -0.743  14.488  23.048  0.00  0.00    +0.000 C 
BRANCH  28  29
ATOM     29  C   UNL     1      -0.791  15.777  22.175  0.00  0.00    +0.000 C 
BRANCH  29  30
ATOM     30  N   UNL     1       0.522  16.439  21.966  0.00  0.00    +0.000 NA
ATOM     31  C   UNL     1       1.647  15.486  22.059  0.00  0.00    +0.000 C 
ATOM     32  C   UNL     1       0.553  17.049  20.621  0.00  0.00    +0.000 C 
ENDBRANCH  29  30
ENDBRANCH  28  29
ENDBRANCH   4  28
TORSDOF 8
ENDMDL
MODEL 2
REMARK VINA RESULT:      -6.1      3.446      4.666
REMARK  Name = 
REMARK  12 active torsions:
REMARK  status: ('A' for Active; 'I' for Inactive)
REMARK    1  A    between atoms: C_1  and  C_2
REMARK    2  A    between atoms: C_2  and  C_3
REMARK    3  A    between atoms: C_3  and  C_4
REMARK    4  A    between atoms: N_7  and  C_8
REMARK    5  A    between atoms: C_8  and  C_9
REMARK    6  A    between atoms: C_9  and  N_10
REMARK    7  A    between atoms: N_10  and  C_11
REMARK    8  A    between atoms: N_10  and  C_12
REMARK    9  A    between atoms: C_16  and  C_17
REMARK   10  A    between atoms: C_24  and  C_25
REMARK   11  A    between atoms: C_28  and  O_29
REMARK   12  A    between atoms: O_29  and  C_30
REMARK                            x       y       z     vdW  Elec       q    Type
REMARK                         _______ _______ _______ _____ _____    ______ ____
ROOT
ATOM      1  C   UNL     1       0.221  11.738  21.240  0.00  0.00    +0.000 C 
ATOM      2  C   UNL     1      -0.704  12.757  21.928  0.00  0.00    +0.000 C 
ATOM      3  O   UNL     1      -0.281  13.136  23.015  0.00  0.00    +0.000 OA
ATOM      4  N   UNL     1      -1.561  13.594  21.235  0.00  0.00    +0.000 N 
ATOM      5  C   UNL     1      -2.577  13.073  20.360  0.00  0.00    +0.000 A 
ATOM      6  C   UNL     1      -3.917  13.474  20.578  0.00  0.00    +0.000 A 
ATOM      7  C   UNL     1      -4.983  12.919  19.865  0.00  0.00    +0.000 A 
ATOM      8  C   UNL     1      -4.743  11.940  18.905  0.00  0.00    +0.000 A 
ATOM      9  C   UNL     1      -3.423  11.564  18.639  0.00  0.00    +0.000 A 
ATOM     10  C   UNL     1      -2.337  12.121  19.356  0.00  0.00    +0.000 A 
ATOM     11  C   UNL     1      -0.962  11.660  18.989  0.00  0.00    +0.000 C 
ATOM     12  C   UNL     1      -0.358  10.796  20.110  0.00  0.00    +0.000 C 
ENDROOT
BRANCH  12  13
ATOM     13  C   UNL     1       0.619   9.696  19.560  0.00  0.00    +0.000 A 
ATOM     14  C   UNL     1       1.071   9.699  18.221  0.00  0.00    +0.000 A 
ATOM     15  C   UNL     1       1.932   8.715  17.725  0.00  0.00    +0.000 A 
ATOM     16  C   UNL     1       2.415   7.705  18.552  0.00  0.00    +0.000 A 
ATOM     17  C   UNL     1       2.032   7.700  19.898  0.00  0.00    +0.000 A 
ATOM     18  C   UNL     1       1.162   8.676  20.393  0.00  0.00    +0.000 A 
BRANCH  16  19
ATOM     19  O   UNL     1       3.264   6.783  18.024  0.00  0.00    +0.000 OA
ATOM     20  C   UNL     1       3.901   5.778  18.723  0.00  0.00    +0.000 C 
ENDBRANCH  16  19
ENDBRANCH  12  13
BRANCH   8  21
ATOM     21  C   UNL     1      -5.866  11.263  18.150  0.00  0.00    +0.000 C 
ATOM     22  F   UNL     1      -7.011  12.039  18.129  0.00  0.00    +0.000 F 
ATOM     23  F   UNL     1      -5.471  11.012  16.849  0.00  0.00    +0.000 F 
ATOM     24  F   UNL     1      -6.163  10.061  18.769  0.00  0.00    +0.000 F 
ENDBRANCH   8  21
BRANCH   1  25
ATOM     25  C   UNL     1       1.406  12.683  20.810  0.00  0.00    +0.000 C 
BRANCH  25  27
ATOM     26  C   UNL     1       2.573  12.985  18.611  0.00  0.00    +0.000 C 
ATOM     27  C   UNL     1       1.371  13.385  19.460  0.00  0.00    +0.000 C 
ENDBRANCH  25  27
ENDBRANCH   1  25
BRANCH   4  28
ATOM     28  C   UNL     1      -1.540  15.041  21.532  0.00  0.00    +0.000 C 
BRANCH  28  29
ATOM     29  C   UNL     1      -1.182  15.813  20.228  0.00  0.00    +0.000 C 
BRANCH  29  30
ATOM     30  N   UNL     1      -2.074  16.958  19.916  0.00  0.00    +0.000 NA
ATOM     31  C   UNL     1      -2.172  17.911  21.041  0.00  0.00    +0.000 C 
ATOM     32  C   UNL     1      -1.540  17.688  18.747  0.00  0.00    +0.000 C 
ENDBRANCH  29  30
ENDBRANCH  28  29
ENDBRANCH   4  28
TORSDOF 8
ENDMDL
MODEL 3
REMARK VINA RESULT:      -6.0      3.211      4.400
REMARK  Name = 
REMARK  12 active torsions:
REMARK  status: ('A' for Active; 'I' for Inactive)
REMARK    1  A    between atoms: C_1  and  C_2
REMARK    2  A    between atoms: C_2  and  C_3
REMARK    3  A    between atoms: C_3  and  C_4
REMARK    4  A    between atoms: N_7  and  C_8
REMARK    5  A    between atoms: C_8  and  C_9
REMARK    6  A    between atoms: C_9  and  N_10
REMARK    7  A    between atoms: N_10  and  C_11
REMARK    8  A    between atoms: N_10  and  C_12
REMARK    9  A    between atoms: C_16  and  C_17
REMARK   10  A    between atoms: C_24  and  C_25
REMARK   11  A    between atoms: C_28  and  O_29
REMARK   12  A    between atoms: O_29  and  C_30
REMARK                            x       y       z     vdW  Elec       q    Type
REMARK                         _______ _______ _______ _____ _____    ______ ____
ROOT
ATOM      1  C   UNL     1       0.362  12.037  21.114  0.00  0.00    +0.000 C 
ATOM      2  C   UNL     1      -0.491  13.138  21.769  0.00  0.00    +0.000 C 
ATOM      3  O   UNL     1       0.034  13.627  22.764  0.00  0.00    +0.000 OA
ATOM      4  N   UNL     1      -1.407  13.907  21.071  0.00  0.00    +0.000 N 
ATOM      5  C   UNL     1      -2.502  13.307  20.358  0.00  0.00    +0.000 A 
ATOM      6  C   UNL     1      -3.815  13.747  20.655  0.00  0.00    +0.000 A 
ATOM      7  C   UNL     1      -4.945  13.133  20.109  0.00  0.00    +0.000 A 
ATOM      8  C   UNL     1      -4.799  12.052  19.244  0.00  0.00    +0.000 A 
ATOM      9  C   UNL     1      -3.512  11.632  18.898  0.00  0.00    +0.000 A 
ATOM     10  C   UNL     1      -2.361  12.248  19.446  0.00  0.00    +0.000 A 
ATOM     11  C   UNL     1      -1.029  11.731  19.005  0.00  0.00    +0.000 C 
ATOM     12  C   UNL     1      -0.324  10.986  20.153  0.00  0.00    +0.000 C 
ENDROOT
BRANCH  12  13
ATOM     13  C   UNL     1       0.593   9.819  19.638  0.00  0.00    +0.000 A 
ATOM     14  C   UNL     1       1.005   9.732  18.289  0.00  0.00    +0.000 A 
ATOM     15  C   UNL     1       1.812   8.689  17.825  0.00  0.00    +0.000 A 
ATOM     16  C   UNL     1       2.280   7.706  18.693  0.00  0.00    +0.000 A 
ATOM     17  C   UNL     1       1.936   7.789  20.048  0.00  0.00    +0.000 A 
ATOM     18  C   UNL     1       1.120   8.825  20.511  0.00  0.00    +0.000 A 
BRANCH  16  19
ATOM     19  O   UNL     1       3.076   6.723  18.194  0.00  0.00    +0.000 OA
ATOM     20  C   UNL     1       4.176   6.909  17.381  0.00  0.00    +0.000 C 
ENDBRANCH  16  19
ENDBRANCH  12  13
BRANCH   8  21
ATOM     21  C   UNL     1      -5.991  11.312  18.675  0.00  0.00    +0.000 C 
ATOM     22  F   UNL     1      -6.598  12.024  17.657  0.00  0.00    +0.000 F 
ATOM     23  F   UNL     1      -5.591  10.083  18.187  0.00  0.00    +0.000 F 
ATOM     24  F   UNL     1      -6.919  11.114  19.684  0.00  0.00    +0.000 F 
ENDBRANCH   8  21
BRANCH   1  25
ATOM     25  C   UNL     1       1.504  12.913  20.474  0.00  0.00    +0.000 C 
BRANCH  25  27
ATOM     26  C   UNL     1       2.678  13.014  18.259  0.00  0.00    +0.000 C 
ATOM     27  C   UNL     1       1.403  13.358  19.022  0.00  0.00    +0.000 C 
ENDBRANCH  25  27
ENDBRANCH   1  25
BRANCH   4  28
ATOM     28  C   UNL     1      -1.353  15.376  21.205  0.00  0.00    +0.000 C 
BRANCH  28  29
ATOM     29  C   UNL     1      -0.913  15.985  19.840  0.00  0.00    +0.000 C 
BRANCH  29  30
ATOM     30  N   UNL     1       0.186  16.980  19.926  0.00  0.00    +0.000 NA
ATOM     31  C   UNL     1       1.187  16.617  20.951  0.00  0.00    +0.000 C 
ATOM     32  C   UNL     1       0.877  17.057  18.623  0.00  0.00    +0.000 C 
ENDBRANCH  29  30
ENDBRANCH  28  29
ENDBRANCH   4  28
TORSDOF 8
ENDMDL
MODEL 4
REMARK VINA RESULT:      -6.0      5.284      7.345
REMARK  Name = 
REMARK  12 active torsions:
REMARK  status: ('A' for Active; 'I' for Inactive)
REMARK    1  A    between atoms: C_1  and  C_2
REMARK    2  A    between atoms: C_2  and  C_3
REMARK    3  A    between atoms: C_3  and  C_4
REMARK    4  A    between atoms: N_7  and  C_8
REMARK    5  A    between atoms: C_8  and  C_9
REMARK    6  A    between atoms: C_9  and  N_10
REMARK    7  A    between atoms: N_10  and  C_11
REMARK    8  A    between atoms: N_10  and  C_12
REMARK    9  A    between atoms: C_16  and  C_17
REMARK   10  A    between atoms: C_24  and  C_25
REMARK   11  A    between atoms: C_28  and  O_29
REMARK   12  A    between atoms: O_29  and  C_30
REMARK                            x       y       z     vdW  Elec       q    Type
REMARK                         _______ _______ _______ _____ _____    ______ ____
ROOT
ATOM      1  C   UNL     1      -0.830  10.935  19.529  0.00  0.00    +0.000 C 
ATOM      2  C   UNL     1      -1.631  12.249  19.551  0.00  0.00    +0.000 C 
ATOM      3  O   UNL     1      -2.845  12.076  19.531  0.00  0.00    +0.000 OA
ATOM      4  N   UNL     1      -1.150  13.423  20.106  0.00  0.00    +0.000 N 
ATOM      5  C   UNL     1       0.071  14.027  19.644  0.00  0.00    +0.000 A 
ATOM      6  C   UNL     1       0.031  15.378  19.223  0.00  0.00    +0.000 A 
ATOM      7  C   UNL     1       1.134  16.007  18.639  0.00  0.00    +0.000 A 
ATOM      8  C   UNL     1       2.320  15.300  18.454  0.00  0.00    +0.000 A 
ATOM      9  C   UNL     1       2.397  13.981  18.907  0.00  0.00    +0.000 A 
ATOM     10  C   UNL     1       1.285  13.335  19.500  0.00  0.00    +0.000 A 
ATOM     11  C   UNL     1       1.473  11.925  19.961  0.00  0.00    +0.000 C 
ATOM     12  C   UNL     1       0.683  10.950  19.071  0.00  0.00    +0.000 C 
ENDROOT
BRANCH  12  13
ATOM     13  C   UNL     1       1.381   9.548  18.949  0.00  0.00    +0.000 A 
ATOM     14  C   UNL     1       2.048   9.146  17.770  0.00  0.00    +0.000 A 
ATOM     15  C   UNL     1       2.661   7.894  17.653  0.00  0.00    +0.000 A 
ATOM     16  C   UNL     1       2.674   7.002  18.722  0.00  0.00    +0.000 A 
ATOM     17  C   UNL     1       2.069   7.387  19.925  0.00  0.00    +0.000 A 
ATOM     18  C   UNL     1       1.446   8.633  20.039  0.00  0.00    +0.000 A 
BRANCH  16  19
ATOM     19  O   UNL     1       3.299   5.805  18.562  0.00  0.00    +0.000 OA
ATOM     20  C   UNL     1       3.980   5.112  19.543  0.00  0.00    +0.000 C 
ENDBRANCH  16  19
ENDBRANCH  12  13
BRANCH   8  21
ATOM     21  C   UNL     1       3.522  15.914  17.771  0.00  0.00    +0.000 C 
ATOM     22  F   UNL     1       4.504  14.974  17.516  0.00  0.00    +0.000 F 
ATOM     23  F   UNL     1       3.136  16.495  16.577  0.00  0.00    +0.000 F 
ATOM     24  F   UNL     1       4.055  16.892  18.594  0.00  0.00    +0.000 F 
ENDBRANCH   8  21
BRANCH   1  25
ATOM     25  C   UNL     1      -1.103  10.418  20.992  0.00  0.00    +0.000 C 
BRANCH  25  27
ATOM     26  C   UNL     1      -0.188   9.742  23.228  0.00  0.00    +0.000 C 
ATOM     27  C   UNL     1      -0.156  10.793  22.123  0.00  0.00    +0.000 C 
ENDBRANCH  25  27
ENDBRANCH   1  25
BRANCH   4  28
ATOM     28  C   UNL     1      -1.996  14.155  21.070  0.00  0.00    +0.000 C 
BRANCH  28  29
ATOM     29  C   UNL     1      -1.296  14.135  22.461  0.00  0.00    +0.000 C 
BRANCH  29  30
ATOM     30  N   UNL     1      -2.152  13.674  23.584  0.00  0.00    +0.000 NA
ATOM     31  C   UNL     1      -2.854  14.794  24.244  0.00  0.00    +0.000 C 
ATOM     32  C   UNL     1      -3.172  12.739  23.067  0.00  0.00    +0.000 C 
ENDBRANCH  29  30
ENDBRANCH  28  29
ENDBRANCH   4  28
TORSDOF 8
ENDMDL
MODEL 5
REMARK VINA RESULT:      -6.0      3.184      4.343
REMARK  Name = 
REMARK  12 active torsions:
REMARK  status: ('A' for Active; 'I' for Inactive)
REMARK    1  A    between atoms: C_1  and  C_2
REMARK    2  A    between atoms: C_2  and  C_3
REMARK    3  A    between atoms: C_3  and  C_4
REMARK    4  A    between atoms: N_7  and  C_8
REMARK    5  A    between atoms: C_8  and  C_9
REMARK    6  A    between atoms: C_9  and  N_10
REMARK    7  A    between atoms: N_10  and  C_11
REMARK    8  A    between atoms: N_10  and  C_12
REMARK    9  A    between atoms: C_16  and  C_17
REMARK   10  A    between atoms: C_24  and  C_25
REMARK   11  A    between atoms: C_28  and  O_29
REMARK   12  A    between atoms: O_29  and  C_30
REMARK                            x       y       z     vdW  Elec       q    Type
REMARK                         _______ _______ _______ _____ _____    ______ ____
ROOT
ATOM      1  C   UNL     1       0.295  12.025  21.172  0.00  0.00    +0.000 C 
ATOM      2  C   UNL     1      -0.567  13.109  21.842  0.00  0.00    +0.000 C 
ATOM      3  O   UNL     1      -0.049  13.587  22.845  0.00  0.00    +0.000 OA
ATOM      4  N   UNL     1      -1.488  13.881  21.154  0.00  0.00    +0.000 N 
ATOM      5  C   UNL     1      -2.578  13.284  20.430  0.00  0.00    +0.000 A 
ATOM      6  C   UNL     1      -3.894  13.710  20.731  0.00  0.00    +0.000 A 
ATOM      7  C   UNL     1      -5.019  13.095  20.174  0.00  0.00    +0.000 A 
ATOM      8  C   UNL     1      -4.863  12.028  19.293  0.00  0.00    +0.000 A 
ATOM      9  C   UNL     1      -3.572  11.623  18.943  0.00  0.00    +0.000 A 
ATOM     10  C   UNL     1      -2.426  12.240  19.502  0.00  0.00    +0.000 A 
ATOM     11  C   UNL     1      -1.090  11.741  19.056  0.00  0.00    +0.000 C 
ATOM     12  C   UNL     1      -0.381  10.983  20.193  0.00  0.00    +0.000 C 
ENDROOT
BRANCH  12  13
ATOM     13  C   UNL     1       0.546   9.832  19.662  0.00  0.00    +0.000 A 
ATOM     14  C   UNL     1       1.000   8.791  20.502  0.00  0.00    +0.000 A 
ATOM     15  C   UNL     1       1.834   7.770  20.036  0.00  0.00    +0.000 A 
ATOM     16  C   UNL     1       2.220   7.717  18.699  0.00  0.00    +0.000 A 
ATOM     17  C   UNL     1       1.746   8.702  17.824  0.00  0.00    +0.000 A 
ATOM     18  C   UNL     1       0.922   9.730  18.292  0.00  0.00    +0.000 A 
BRANCH  16  19
ATOM     19  O   UNL     1       3.019   6.694  18.293  0.00  0.00    +0.000 OA
ATOM     20  C   UNL     1       2.648   5.368  18.201  0.00  0.00    +0.000 C 
ENDBRANCH  16  19
ENDBRANCH  12  13
BRANCH   8  21
ATOM     21  C   UNL     1      -6.048  11.289  18.711  0.00  0.00    +0.000 C 
ATOM     22  F   UNL     1      -7.162  11.383  19.524  0.00  0.00    +0.000 F 
ATOM     23  F   UNL     1      -6.357  11.804  17.466  0.00  0.00    +0.000 F 
ATOM     24  F   UNL     1      -5.719   9.950  18.574  0.00  0.00    +0.000 F 
ENDBRANCH   8  21
BRANCH   1  25
ATOM     25  C   UNL     1       1.431  12.920  20.547  0.00  0.00    +0.000 C 
BRANCH  25  27
ATOM     26  C   UNL     1       2.739  13.262  18.434  0.00  0.00    +0.000 C 
ATOM     27  C   UNL     1       1.361  13.333  19.084  0.00  0.00    +0.000 C 
ENDBRANCH  25  27
ENDBRANCH   1  25
BRANCH   4  28
ATOM     28  C   UNL     1      -1.446  15.349  21.311  0.00  0.00    +0.000 C 
BRANCH  28  29
ATOM     29  C   UNL     1      -0.989  15.981  19.962  0.00  0.00    +0.000 C 
BRANCH  29  30
ATOM     30  N   UNL     1       0.133  16.946  20.074  0.00  0.00    +0.000 NA
ATOM     31  C   UNL     1       1.091  16.567  21.133  0.00  0.00    +0.000 C 
ATOM     32  C   UNL     1       0.867  16.992  18.792  0.00  0.00    +0.000 C 
ENDBRANCH  29  30
ENDBRANCH  28  29
ENDBRANCH   4  28
TORSDOF 8
ENDMDL
MODEL 6
REMARK VINA RESULT:      -6.0      3.401      4.700
REMARK  Name = 
REMARK  12 active torsions:
REMARK  status: ('A' for Active; 'I' for Inactive)
REMARK    1  A    between atoms: C_1  and  C_2
REMARK    2  A    between atoms: C_2  and  C_3
REMARK    3  A    between atoms: C_3  and  C_4
REMARK    4  A    between atoms: N_7  and  C_8
REMARK    5  A    between atoms: C_8  and  C_9
REMARK    6  A    between atoms: C_9  and  N_10
REMARK    7  A    between atoms: N_10  and  C_11
REMARK    8  A    between atoms: N_10  and  C_12
REMARK    9  A    between atoms: C_16  and  C_17
REMARK   10  A    between atoms: C_24  and  C_25
REMARK   11  A    between atoms: C_28  and  O_29
REMARK   12  A    between atoms: O_29  and  C_30
REMARK                            x       y       z     vdW  Elec       q    Type
REMARK                         _______ _______ _______ _____ _____    ______ ____
ROOT
ATOM      1  C   UNL     1       0.279  11.705  21.278  0.00  0.00    +0.000 C 
ATOM      2  C   UNL     1      -0.646  12.725  21.963  0.00  0.00    +0.000 C 
ATOM      3  O   UNL     1      -0.234  13.093  23.058  0.00  0.00    +0.000 OA
ATOM      4  N   UNL     1      -1.489  13.574  21.266  0.00  0.00    +0.000 N 
ATOM      5  C   UNL     1      -2.498  13.067  20.375  0.00  0.00    +0.000 A 
ATOM      6  C   UNL     1      -3.838  13.475  20.581  0.00  0.00    +0.000 A 
ATOM      7  C   UNL     1      -4.900  12.935  19.851  0.00  0.00    +0.000 A 
ATOM      8  C   UNL     1      -4.655  11.961  18.886  0.00  0.00    +0.000 A 
ATOM      9  C   UNL     1      -3.335  11.578  18.632  0.00  0.00    +0.000 A 
ATOM     10  C   UNL     1      -2.253  12.121  19.367  0.00  0.00    +0.000 A 
ATOM     11  C   UNL     1      -0.877  11.654  19.012  0.00  0.00    +0.000 C 
ATOM     12  C   UNL     1      -0.292  10.776  20.133  0.00  0.00    +0.000 C 
ENDROOT
BRANCH  12  13
ATOM     13  C   UNL     1       0.683   9.673  19.586  0.00  0.00    +0.000 A 
ATOM     14  C   UNL     1       1.167   8.630  20.406  0.00  0.00    +0.000 A 
ATOM     15  C   UNL     1       2.045   7.653  19.926  0.00  0.00    +0.000 A 
ATOM     16  C   UNL     1       2.447   7.647  18.592  0.00  0.00    +0.000 A 
ATOM     17  C   UNL     1       1.945   8.634  17.736  0.00  0.00    +0.000 A 
ATOM     18  C   UNL     1       1.078   9.618  18.218  0.00  0.00    +0.000 A 
BRANCH  16  19
ATOM     19  O   UNL     1       3.288   6.665  18.171  0.00  0.00    +0.000 OA
ATOM     20  C   UNL     1       4.345   6.825  17.299  0.00  0.00    +0.000 C 
ENDBRANCH  16  19
ENDBRANCH  12  13
BRANCH   8  21
ATOM     21  C   UNL     1      -5.774  11.298  18.112  0.00  0.00    +0.000 C 
ATOM     22  F   UNL     1      -5.425  11.080  16.791  0.00  0.00    +0.000 F 
ATOM     23  F   UNL     1      -6.095  10.088  18.696  0.00  0.00    +0.000 F 
ATOM     24  F   UNL     1      -6.887  12.121  18.140  0.00  0.00    +0.000 F 
ENDBRANCH   8  21
BRANCH   1  25
ATOM     25  C   UNL     1       1.476  12.644  20.869  0.00  0.00    +0.000 C 
BRANCH  25  27
ATOM     26  C   UNL     1       2.718  14.135  19.279  0.00  0.00    +0.000 C 
ATOM     27  C   UNL     1       1.693  13.013  19.408  0.00  0.00    +0.000 C 
ENDBRANCH  25  27
ENDBRANCH   1  25
BRANCH   4  28
ATOM     28  C   UNL     1      -1.462  15.018  21.575  0.00  0.00    +0.000 C 
BRANCH  28  29
ATOM     29  C   UNL     1      -0.454  15.714  20.613  0.00  0.00    +0.000 C 
BRANCH  29  30
ATOM     30  N   UNL     1      -1.054  16.257  19.367  0.00  0.00    +0.000 NA
ATOM     31  C   UNL     1      -2.039  17.322  19.642  0.00  0.00    +0.000 C 
ATOM     32  C   UNL     1       0.013  16.831  18.522  0.00  0.00    +0.000 C 
ENDBRANCH  29  30
ENDBRANCH  28  29
ENDBRANCH   4  28
TORSDOF 8
ENDMDL
MODEL 7
REMARK VINA RESULT:      -6.0      3.478      4.757
REMARK  Name = 
REMARK  12 active torsions:
REMARK  status: ('A' for Active; 'I' for Inactive)
REMARK    1  A    between atoms: C_1  and  C_2
REMARK    2  A    between atoms: C_2  and  C_3
REMARK    3  A    between atoms: C_3  and  C_4
REMARK    4  A    between atoms: N_7  and  C_8
REMARK    5  A    between atoms: C_8  and  C_9
REMARK    6  A    between atoms: C_9  and  N_10
REMARK    7  A    between atoms: N_10  and  C_11
REMARK    8  A    between atoms: N_10  and  C_12
REMARK    9  A    between atoms: C_16  and  C_17
REMARK   10  A    between atoms: C_24  and  C_25
REMARK   11  A    between atoms: C_28  and  O_29
REMARK   12  A    between atoms: O_29  and  C_30
REMARK                            x       y       z     vdW  Elec       q    Type
REMARK                         _______ _______ _______ _____ _____    ______ ____
ROOT
ATOM      1  C   UNL     1       0.234  11.586  21.262  0.00  0.00    +0.000 C 
ATOM      2  C   UNL     1      -0.702  12.608  21.929  0.00  0.00    +0.000 C 
ATOM      3  O   UNL     1      -0.314  12.970  23.035  0.00  0.00    +0.000 OA
ATOM      4  N   UNL     1      -1.525  13.464  21.216  0.00  0.00    +0.000 N 
ATOM      5  C   UNL     1      -2.515  12.964  20.300  0.00  0.00    +0.000 A 
ATOM      6  C   UNL     1      -3.858  13.379  20.476  0.00  0.00    +0.000 A 
ATOM      7  C   UNL     1      -4.905  12.845  19.720  0.00  0.00    +0.000 A 
ATOM      8  C   UNL     1      -4.642  11.874  18.757  0.00  0.00    +0.000 A 
ATOM      9  C   UNL     1      -3.318  11.486  18.533  0.00  0.00    +0.000 A 
ATOM     10  C   UNL     1      -2.251  12.021  19.294  0.00  0.00    +0.000 A 
ATOM     11  C   UNL     1      -0.870  11.549  18.970  0.00  0.00    +0.000 C 
ATOM     12  C   UNL     1      -0.315  10.664  20.101  0.00  0.00    +0.000 C 
ENDROOT
BRANCH  12  13
ATOM     13  C   UNL     1       0.668   9.559  19.572  0.00  0.00    +0.000 A 
ATOM     14  C   UNL     1       1.133   9.549  18.239  0.00  0.00    +0.000 A 
ATOM     15  C   UNL     1       1.999   8.560  17.761  0.00  0.00    +0.000 A 
ATOM     16  C   UNL     1       2.475   7.559  18.604  0.00  0.00    +0.000 A 
ATOM     17  C   UNL     1       2.078   7.567  19.946  0.00  0.00    +0.000 A 
ATOM     18  C   UNL     1       1.202   8.548  20.422  0.00  0.00    +0.000 A 
BRANCH  16  19
ATOM     19  O   UNL     1       3.329   6.631  18.094  0.00  0.00    +0.000 OA
ATOM     20  C   UNL     1       4.367   6.883  17.221  0.00  0.00    +0.000 C 
ENDBRANCH  16  19
ENDBRANCH  12  13
BRANCH   8  21
ATOM     21  C   UNL     1      -5.745  11.219  17.955  0.00  0.00    +0.000 C 
ATOM     22  F   UNL     1      -6.238  10.091  18.585  0.00  0.00    +0.000 F 
ATOM     23  F   UNL     1      -6.781  12.115  17.765  0.00  0.00    +0.000 F 
ATOM     24  F   UNL     1      -5.242  10.846  16.720  0.00  0.00    +0.000 F 
ENDBRANCH   8  21
BRANCH   1  25
ATOM     25  C   UNL     1       1.444  12.522  20.885  0.00  0.00    +0.000 C 
BRANCH  25  27
ATOM     26  C   UNL     1       2.233  14.364  19.377  0.00  0.00    +0.000 C 
ATOM     27  C   UNL     1       1.653  12.955  19.441  0.00  0.00    +0.000 C 
ENDBRANCH  25  27
ENDBRANCH   1  25
BRANCH   4  28
ATOM     28  C   UNL     1      -1.498  14.906  21.532  0.00  0.00    +0.000 C 
BRANCH  28  29
ATOM     29  C   UNL     1      -1.064  15.687  20.255  0.00  0.00    +0.000 C 
BRANCH  29  30
ATOM     30  N   UNL     1      -1.646  17.047  20.128  0.00  0.00    +0.000 NA
ATOM     31  C   UNL     1      -1.447  17.614  18.778  0.00  0.00    +0.000 C 
ATOM     32  C   UNL     1      -3.099  16.982  20.384  0.00  0.00    +0.000 C 
ENDBRANCH  29  30
ENDBRANCH  28  29
ENDBRANCH   4  28
TORSDOF 8
ENDMDL
MODEL 8
REMARK VINA RESULT:      -6.0      5.245      7.276
REMARK  Name = 
REMARK  12 active torsions:
REMARK  status: ('A' for Active; 'I' for Inactive)
REMARK    1  A    between atoms: C_1  and  C_2
REMARK    2  A    between atoms: C_2  and  C_3
REMARK    3  A    between atoms: C_3  and  C_4
REMARK    4  A    between atoms: N_7  and  C_8
REMARK    5  A    between atoms: C_8  and  C_9
REMARK    6  A    between atoms: C_9  and  N_10
REMARK    7  A    between atoms: N_10  and  C_11
REMARK    8  A    between atoms: N_10  and  C_12
REMARK    9  A    between atoms: C_16  and  C_17
REMARK   10  A    between atoms: C_24  and  C_25
REMARK   11  A    between atoms: C_28  and  O_29
REMARK   12  A    between atoms: O_29  and  C_30
REMARK                            x       y       z     vdW  Elec       q    Type
REMARK                         _______ _______ _______ _____ _____    ______ ____
ROOT
ATOM      1  C   UNL     1      -0.826  10.916  19.465  0.00  0.00    +0.000 C 
ATOM      2  C   UNL     1      -1.648  12.216  19.467  0.00  0.00    +0.000 C 
ATOM      3  O   UNL     1      -2.858  12.023  19.426  0.00  0.00    +0.000 OA
ATOM      4  N   UNL     1      -1.196  13.400  20.025  0.00  0.00    +0.000 N 
ATOM      5  C   UNL     1       0.023  14.022  19.584  0.00  0.00    +0.000 A 
ATOM      6  C   UNL     1      -0.031  15.371  19.156  0.00  0.00    +0.000 A 
ATOM      7  C   UNL     1       1.071  16.015  18.590  0.00  0.00    +0.000 A 
ATOM      8  C   UNL     1       2.272  15.327  18.430  0.00  0.00    +0.000 A 
ATOM      9  C   UNL     1       2.363  14.011  18.889  0.00  0.00    +0.000 A 
ATOM     10  C   UNL     1       1.250  13.350  19.465  0.00  0.00    +0.000 A 
ATOM     11  C   UNL     1       1.453  11.945  19.935  0.00  0.00    +0.000 C 
ATOM     12  C   UNL     1       0.695  10.953  19.035  0.00  0.00    +0.000 C 
ENDROOT
BRANCH  12  13
ATOM     13  C   UNL     1       1.418   9.562  18.930  0.00  0.00    +0.000 A 
ATOM     14  C   UNL     1       1.415   8.636  19.997  0.00  0.00    +0.000 A 
ATOM     15  C   UNL     1       2.067   7.402  19.912  0.00  0.00    +0.000 A 
ATOM     16  C   UNL     1       2.718   7.017  18.743  0.00  0.00    +0.000 A 
ATOM     17  C   UNL     1       2.697   7.886  17.646  0.00  0.00    +0.000 A 
ATOM     18  C   UNL     1       2.056   9.125  17.734  0.00  0.00    +0.000 A 
BRANCH  16  19
ATOM     19  O   UNL     1       3.322   5.799  18.707  0.00  0.00    +0.000 OA
ATOM     20  C   UNL     1       2.967   4.746  17.888  0.00  0.00    +0.000 C 
ENDBRANCH  16  19
ENDBRANCH  12  13
BRANCH   8  21
ATOM     21  C   UNL     1       3.476  15.959  17.765  0.00  0.00    +0.000 C 
ATOM     22  F   UNL     1       3.159  16.492  16.529  0.00  0.00    +0.000 F 
ATOM     23  F   UNL     1       3.983  16.961  18.570  0.00  0.00    +0.000 F 
ATOM     24  F   UNL     1       4.449  14.990  17.587  0.00  0.00    +0.000 F 
ENDBRANCH   8  21
BRANCH   1  25
ATOM     25  C   UNL     1      -1.116  10.400  20.925  0.00  0.00    +0.000 C 
BRANCH  25  27
ATOM     26  C   UNL     1      -0.231   9.765  23.184  0.00  0.00    +0.000 C 
ATOM     27  C   UNL     1      -0.208  10.811  22.075  0.00  0.00    +0.000 C 
ENDBRANCH  25  27
ENDBRANCH   1  25
BRANCH   4  28
ATOM     28  C   UNL     1      -2.071  14.121  20.971  0.00  0.00    +0.000 C 
BRANCH  28  29
ATOM     29  C   UNL     1      -1.347  14.214  22.348  0.00  0.00    +0.000 C 
BRANCH  29  30
ATOM     30  N   UNL     1      -2.069  13.574  23.477  0.00  0.00    +0.000 NA
ATOM     31  C   UNL     1      -2.593  14.567  24.437  0.00  0.00    +0.000 C 
ATOM     32  C   UNL     1      -3.214  12.803  22.949  0.00  0.00    +0.000 C 
ENDBRANCH  29  30
ENDBRANCH  28  29
ENDBRANCH   4  28
TORSDOF 8
ENDMDL
MODEL 9
REMARK VINA RESULT:      -6.0      3.333      4.632
REMARK  Name = 
REMARK  12 active torsions:
REMARK  status: ('A' for Active; 'I' for Inactive)
REMARK    1  A    between atoms: C_1  and  C_2
REMARK    2  A    between atoms: C_2  and  C_3
REMARK    3  A    between atoms: C_3  and  C_4
REMARK    4  A    between atoms: N_7  and  C_8
REMARK    5  A    between atoms: C_8  and  C_9
REMARK    6  A    between atoms: C_9  and  N_10
REMARK    7  A    between atoms: N_10  and  C_11
REMARK    8  A    between atoms: N_10  and  C_12
REMARK    9  A    between atoms: C_16  and  C_17
REMARK   10  A    between atoms: C_24  and  C_25
REMARK   11  A    between atoms: C_28  and  O_29
REMARK   12  A    between atoms: O_29  and  C_30
REMARK                            x       y       z     vdW  Elec       q    Type
REMARK                         _______ _______ _______ _____ _____    ______ ____
ROOT
ATOM      1  C   UNL     1       0.494  12.132  21.071  0.00  0.00    +0.000 C 
ATOM      2  C   UNL     1      -0.335  13.253  21.722  0.00  0.00    +0.000 C 
ATOM      3  O   UNL     1       0.218  13.763  22.690  0.00  0.00    +0.000 OA
ATOM      4  N   UNL     1      -1.264  14.011  21.029  0.00  0.00    +0.000 N 
ATOM      5  C   UNL     1      -2.381  13.401  20.359  0.00  0.00    +0.000 A 
ATOM      6  C   UNL     1      -3.683  13.857  20.680  0.00  0.00    +0.000 A 
ATOM      7  C   UNL     1      -4.831  13.237  20.178  0.00  0.00    +0.000 A 
ATOM      8  C   UNL     1      -4.714  12.134  19.336  0.00  0.00    +0.000 A 
ATOM      9  C   UNL     1      -3.439  11.698  18.968  0.00  0.00    +0.000 A 
ATOM     10  C   UNL     1      -2.270  12.320  19.470  0.00  0.00    +0.000 A 
ATOM     11  C   UNL     1      -0.953  11.785  19.007  0.00  0.00    +0.000 C 
ATOM     12  C   UNL     1      -0.223  11.062  20.153  0.00  0.00    +0.000 C 
ENDROOT
BRANCH  12  13
ATOM     13  C   UNL     1       0.673   9.878  19.643  0.00  0.00    +0.000 A 
ATOM     14  C   UNL     1       1.103   8.841  20.502  0.00  0.00    +0.000 A 
ATOM     15  C   UNL     1       1.910   7.791  20.054  0.00  0.00    +0.000 A 
ATOM     16  C   UNL     1       2.292   7.704  18.718  0.00  0.00    +0.000 A 
ATOM     17  C   UNL     1       1.842   8.684  17.825  0.00  0.00    +0.000 A 
ATOM     18  C   UNL     1       1.045   9.740  18.275  0.00  0.00    +0.000 A 
BRANCH  16  19
ATOM     19  O   UNL     1       3.064   6.653  18.330  0.00  0.00    +0.000 OA
ATOM     20  C   UNL     1       3.526   5.644  19.150  0.00  0.00    +0.000 C 
ENDBRANCH  16  19
ENDBRANCH  12  13
BRANCH   8  21
ATOM     21  C   UNL     1      -5.924  11.389  18.817  0.00  0.00    +0.000 C 
ATOM     22  F   UNL     1      -5.569  10.380  17.940  0.00  0.00    +0.000 F 
ATOM     23  F   UNL     1      -6.625  10.839  19.873  0.00  0.00    +0.000 F 
ATOM     24  F   UNL     1      -6.747  12.281  18.148  0.00  0.00    +0.000 F 
ENDBRANCH   8  21
BRANCH   1  25
ATOM     25  C   UNL     1       1.624  12.985  20.381  0.00  0.00    +0.000 C 
BRANCH  25  27
ATOM     26  C   UNL     1       2.782  13.046  18.157  0.00  0.00    +0.000 C 
ATOM     27  C   UNL     1       1.500  13.373  18.914  0.00  0.00    +0.000 C 
ENDBRANCH  25  27
ENDBRANCH   1  25
BRANCH   4  28
ATOM     28  C   UNL     1      -1.199  15.483  21.126  0.00  0.00    +0.000 C 
BRANCH  28  29
ATOM     29  C   UNL     1      -0.716  16.051  19.759  0.00  0.00    +0.000 C 
BRANCH  29  30
ATOM     30  N   UNL     1      -1.190  17.425  19.452  0.00  0.00    +0.000 NA
ATOM     31  C   UNL     1      -0.981  17.782  18.033  0.00  0.00    +0.000 C 
ATOM     32  C   UNL     1      -2.637  17.516  19.735  0.00  0.00    +0.000 C 
ENDBRANCH  29  30
ENDBRANCH  28  29
ENDBRANCH   4  28
TORSDOF 8
ENDMDL
