MODEL 1
REMARK VINA RESULT:      -8.2      0.000      0.000
REMARK  Name = 
REMARK  7 active torsions:
REMARK  status: ('A' for Active; 'I' for Inactive)
REMARK    1  A    between atoms: C_1  and  C_2
REMARK    2  A    between atoms: C_2  and  S_4
REMARK    3  A    between atoms: S_4  and  C_5
REMARK    4  A    between atoms: C_5  and  C_6
REMARK    5  A    between atoms: C_6  and  C_8
REMARK    6  A    between atoms: N_12  and  S_13
REMARK    7  A    between atoms: S_13  and  C_16
REMARK                            x       y       z     vdW  Elec       q    Type
REMARK                         _______ _______ _______ _____ _____    ______ ____
ROOT
ATOM      1  C   UNL     1       5.984   5.003  16.167  0.00  0.00    +0.000 A 
ATOM      2  C   UNL     1       5.850   4.052  17.180  0.00  0.00    +0.000 A 
ATOM      3  C   UNL     1       5.219   4.410  18.378  0.00  0.00    +0.000 A 
ATOM      4  C   UNL     1       4.737   5.703  18.513  0.00  0.00    +0.000 A 
ATOM      5  N   UNL     1       4.074   6.127  19.673  0.00  0.00    +0.000 N 
ATOM      6  N   UNL     1       4.827   6.635  17.555  0.00  0.00    +0.000 NA
ATOM      7  C   UNL     1       5.455   6.269  16.409  0.00  0.00    +0.000 A 
ATOM      8  H   UNL     1       4.499   5.922  20.572  0.00  0.00    +0.000 HD
ENDROOT
BRANCH   5   9
ATOM      9  S   UNL     1       2.409   5.941  19.701  0.00  0.00    +0.000 S 
ATOM     10  O   UNL     1       1.947   5.499  18.402  0.00  0.00    +0.000 OA
ATOM     11  O   UNL     1       2.136   5.142  20.878  0.00  0.00    +0.000 OA
BRANCH   9  12
ATOM     12  C   UNL     1       1.783   7.575  20.012  0.00  0.00    +0.000 A 
ATOM     13  C   UNL     1       1.747   8.516  18.980  0.00  0.00    +0.000 A 
ATOM     14  C   UNL     1       1.166   9.769  19.199  0.00  0.00    +0.000 A 
ATOM     15  C   UNL     1       0.596  10.073  20.443  0.00  0.00    +0.000 A 
ATOM     16  C   UNL     1       0.635   9.123  21.482  0.00  0.00    +0.000 A 
ATOM     17  C   UNL     1       1.216   7.868  21.259  0.00  0.00    +0.000 A 
ATOM     18  C   UNL     1      -0.020   9.453  22.803  0.00  0.00    +0.000 C 
ATOM     19  O   UNL     1      -0.122  10.874  22.954  0.00  0.00    +0.000 OA
ATOM     20  O   UNL     1      -0.930  11.339  21.820  0.00  0.00    +0.000 OA
ATOM     21  C   UNL     1      -0.029  11.424  20.708  0.00  0.00    +0.000 C 
ENDBRANCH   9  12
ENDBRANCH   5   9
BRANCH   1  22
ATOM     22  C   UNL     1       6.638   4.753  14.851  0.00  0.00    +0.000 C 
ATOM     23  O   UNL     1       7.475   5.571  14.466  0.00  0.00    +0.000 OA
BRANCH  22  24
ATOM     24  C   UNL     1       6.212   3.553  14.020  0.00  0.00    +0.000 C 
BRANCH  24  25
ATOM     25  S   UNL     1       6.650   3.788  12.269  0.00  0.00    +0.000 S 
BRANCH  25  27
ATOM     26  C   UNL     1       4.160   3.222  11.275  0.00  0.00    +0.000 C 
ATOM     27  C   UNL     1       5.524   2.651  11.543  0.00  0.00    +0.000 C 
ATOM     28  O   UNL     1       5.845   1.501  11.272  0.00  0.00    +0.000 OA
ENDBRANCH  25  27
ENDBRANCH  24  25
ENDBRANCH  22  24
ENDBRANCH   1  22
TORSDOF 6
ENDMDL
MODEL 2
REMARK VINA RESULT:      -7.9      2.829      8.834
REMARK  Name = 
REMARK  7 active torsions:
REMARK  status: ('A' for Active; 'I' for Inactive)
REMARK    1  A    between atoms: C_1  and  C_2
REMARK    2  A    between atoms: C_2  and  S_4
REMARK    3  A    between atoms: S_4  and  C_5
REMARK    4  A    between atoms: C_5  and  C_6
REMARK    5  A    between atoms: C_6  and  C_8
REMARK    6  A    between atoms: N_12  and  S_13
REMARK    7  A    between atoms: S_13  and  C_16
REMARK                            x       y       z     vdW  Elec       q    Type
REMARK                         _______ _______ _______ _____ _____    ______ ____
ROOT
ATOM      1  C   UNL     1       1.696   7.007  19.758  0.00  0.00    +0.000 A 
ATOM      2  C   UNL     1       1.565   6.164  20.862  0.00  0.00    +0.000 A 
ATOM      3  C   UNL     1       1.673   4.779  20.683  0.00  0.00    +0.000 A 
ATOM      4  C   UNL     1       1.918   4.292  19.408  0.00  0.00    +0.000 A 
ATOM      5  N   UNL     1       2.062   2.919  19.157  0.00  0.00    +0.000 N 
ATOM      6  N   UNL     1       2.072   5.071  18.330  0.00  0.00    +0.000 NA
ATOM      7  C   UNL     1       1.948   6.408  18.525  0.00  0.00    +0.000 A 
ATOM      8  H   UNL     1       1.367   2.285  19.540  0.00  0.00    +0.000 HD
ENDROOT
BRANCH   5   9
ATOM      9  S   UNL     1       3.613   2.294  19.250  0.00  0.00    +0.000 S 
ATOM     10  O   UNL     1       3.992   2.139  20.639  0.00  0.00    +0.000 OA
ATOM     11  O   UNL     1       3.614   1.148  18.366  0.00  0.00    +0.000 OA
BRANCH   9  12
ATOM     12  C   UNL     1       4.640   3.539  18.506  0.00  0.00    +0.000 A 
ATOM     13  C   UNL     1       5.382   4.406  19.313  0.00  0.00    +0.000 A 
ATOM     14  C   UNL     1       6.264   5.320  18.729  0.00  0.00    +0.000 A 
ATOM     15  C   UNL     1       6.425   5.351  17.337  0.00  0.00    +0.000 A 
ATOM     16  C   UNL     1       5.675   4.477  16.525  0.00  0.00    +0.000 A 
ATOM     17  C   UNL     1       4.794   3.561  17.114  0.00  0.00    +0.000 A 
ATOM     18  C   UNL     1       5.892   4.497  15.030  0.00  0.00    +0.000 C 
ATOM     19  O   UNL     1       6.446   5.758  14.635  0.00  0.00    +0.000 OA
ATOM     20  O   UNL     1       7.714   5.883  15.366  0.00  0.00    +0.000 OA
ATOM     21  C   UNL     1       7.364   6.338  16.680  0.00  0.00    +0.000 C 
ENDBRANCH   9  12
ENDBRANCH   5   9
BRANCH   1  22
ATOM     22  C   UNL     1       1.596   8.495  19.810  0.00  0.00    +0.000 C 
ATOM     23  O   UNL     1       1.793   9.116  18.766  0.00  0.00    +0.000 OA
BRANCH  22  24
ATOM     24  C   UNL     1       1.319   9.178  21.140  0.00  0.00    +0.000 C 
BRANCH  24  25
ATOM     25  S   UNL     1      -0.226  10.138  21.066  0.00  0.00    +0.000 S 
BRANCH  25  27
ATOM     26  C   UNL     1      -1.590  11.354  23.108  0.00  0.00    +0.000 C 
ATOM     27  C   UNL     1      -0.477  10.398  22.786  0.00  0.00    +0.000 C 
ATOM     28  O   UNL     1       0.197   9.828  23.635  0.00  0.00    +0.000 OA
ENDBRANCH  25  27
ENDBRANCH  24  25
ENDBRANCH  22  24
ENDBRANCH   1  22
TORSDOF 6
ENDMDL
MODEL 3
REMARK VINA RESULT:      -7.8      0.948      1.689
REMARK  Name = 
REMARK  7 active torsions:
REMARK  status: ('A' for Active; 'I' for Inactive)
REMARK    1  A    between atoms: C_1  and  C_2
REMARK    2  A    between atoms: C_2  and  S_4
REMARK    3  A    between atoms: S_4  and  C_5
REMARK    4  A    between atoms: C_5  and  C_6
REMARK    5  A    between atoms: C_6  and  C_8
REMARK    6  A    between atoms: N_12  and  S_13
REMARK    7  A    between atoms: S_13  and  C_16
REMARK                            x       y       z     vdW  Elec       q    Type
REMARK                         _______ _______ _______ _____ _____    ______ ____
ROOT
ATOM      1  C   UNL     1       5.882   5.023  16.075  0.00  0.00    +0.000 A 
ATOM      2  C   UNL     1       5.916   4.067  17.092  0.00  0.00    +0.000 A 
ATOM      3  C   UNL     1       5.339   4.365  18.332  0.00  0.00    +0.000 A 
ATOM      4  C   UNL     1       4.741   5.604  18.505  0.00  0.00    +0.000 A 
ATOM      5  N   UNL     1       4.123   5.965  19.711  0.00  0.00    +0.000 N 
ATOM      6  N   UNL     1       4.670   6.537  17.546  0.00  0.00    +0.000 NA
ATOM      7  C   UNL     1       5.249   6.231  16.358  0.00  0.00    +0.000 A 
ATOM      8  H   UNL     1       4.629   5.806  20.577  0.00  0.00    +0.000 HD
ENDROOT
BRANCH   5   9
ATOM      9  S   UNL     1       2.491   5.614  19.856  0.00  0.00    +0.000 S 
ATOM     10  O   UNL     1       2.004   5.044  18.617  0.00  0.00    +0.000 OA
ATOM     11  O   UNL     1       2.371   4.871  21.093  0.00  0.00    +0.000 OA
BRANCH   9  12
ATOM     12  C   UNL     1       1.717   7.194  20.109  0.00  0.00    +0.000 A 
ATOM     13  C   UNL     1       1.079   7.472  21.320  0.00  0.00    +0.000 A 
ATOM     14  C   UNL     1       0.555   8.748  21.556  0.00  0.00    +0.000 A 
ATOM     15  C   UNL     1       0.691   9.754  20.589  0.00  0.00    +0.000 A 
ATOM     16  C   UNL     1       1.333   9.470  19.368  0.00  0.00    +0.000 A 
ATOM     17  C   UNL     1       1.859   8.192  19.136  0.00  0.00    +0.000 A 
ATOM     18  C   UNL     1       1.506  10.578  18.355  0.00  0.00    +0.000 C 
ATOM     19  O   UNL     1       0.534  11.604  18.585  0.00  0.00    +0.000 OA
ATOM     20  O   UNL     1       0.773  12.081  19.953  0.00  0.00    +0.000 OA
ATOM     21  C   UNL     1       0.123  11.137  20.815  0.00  0.00    +0.000 C 
ENDBRANCH   9  12
ENDBRANCH   5   9
BRANCH   1  22
ATOM     22  C   UNL     1       6.464   4.834  14.714  0.00  0.00    +0.000 C 
ATOM     23  O   UNL     1       7.617   5.223  14.529  0.00  0.00    +0.000 OA
BRANCH  22  24
ATOM     24  C   UNL     1       5.605   4.235  13.612  0.00  0.00    +0.000 C 
BRANCH  24  25
ATOM     25  S   UNL     1       6.643   3.556  12.279  0.00  0.00    +0.000 S 
BRANCH  25  27
ATOM     26  C   UNL     1       4.163   3.076  11.218  0.00  0.00    +0.000 C 
ATOM     27  C   UNL     1       5.485   2.448  11.558  0.00  0.00    +0.000 C 
ATOM     28  O   UNL     1       5.755   1.273  11.346  0.00  0.00    +0.000 OA
ENDBRANCH  25  27
ENDBRANCH  24  25
ENDBRANCH  22  24
ENDBRANCH   1  22
TORSDOF 6
ENDMDL
MODEL 4
REMARK VINA RESULT:      -7.6      3.196      8.111
REMARK  Name = 
REMARK  7 active torsions:
REMARK  status: ('A' for Active; 'I' for Inactive)
REMARK    1  A    between atoms: C_1  and  C_2
REMARK    2  A    between atoms: C_2  and  S_4
REMARK    3  A    between atoms: S_4  and  C_5
REMARK    4  A    between atoms: C_5  and  C_6
REMARK    5  A    between atoms: C_6  and  C_8
REMARK    6  A    between atoms: N_12  and  S_13
REMARK    7  A    between atoms: S_13  and  C_16
REMARK                            x       y       z     vdW  Elec       q    Type
REMARK                         _______ _______ _______ _____ _____    ______ ____
ROOT
ATOM      1  C   UNL     1       1.899   7.195  18.942  0.00  0.00    +0.000 A 
ATOM      2  C   UNL     1       1.980   6.692  20.242  0.00  0.00    +0.000 A 
ATOM      3  C   UNL     1       2.033   5.307  20.438  0.00  0.00    +0.000 A 
ATOM      4  C   UNL     1       2.012   4.478  19.326  0.00  0.00    +0.000 A 
ATOM      5  N   UNL     1       2.085   3.082  19.444  0.00  0.00    +0.000 N 
ATOM      6  N   UNL     1       1.957   4.925  18.065  0.00  0.00    +0.000 NA
ATOM      7  C   UNL     1       1.892   6.270  17.900  0.00  0.00    +0.000 A 
ATOM      8  H   UNL     1       1.474   2.623  20.112  0.00  0.00    +0.000 HD
ENDROOT
BRANCH   5   9
ATOM      9  S   UNL     1       3.616   2.402  19.413  0.00  0.00    +0.000 S 
ATOM     10  O   UNL     1       4.092   2.213  20.768  0.00  0.00    +0.000 OA
ATOM     11  O   UNL     1       3.511   1.269  18.517  0.00  0.00    +0.000 OA
BRANCH   9  12
ATOM     12  C   UNL     1       4.629   3.621  18.609  0.00  0.00    +0.000 A 
ATOM     13  C   UNL     1       5.340   4.551  19.373  0.00  0.00    +0.000 A 
ATOM     14  C   UNL     1       6.213   5.447  18.746  0.00  0.00    +0.000 A 
ATOM     15  C   UNL     1       6.394   5.397  17.357  0.00  0.00    +0.000 A 
ATOM     16  C   UNL     1       5.674   4.461  16.590  0.00  0.00    +0.000 A 
ATOM     17  C   UNL     1       4.803   3.563  17.221  0.00  0.00    +0.000 A 
ATOM     18  C   UNL     1       5.913   4.395  15.099  0.00  0.00    +0.000 C 
ATOM     19  O   UNL     1       6.447   5.641  14.637  0.00  0.00    +0.000 OA
ATOM     20  O   UNL     1       7.701   5.837  15.376  0.00  0.00    +0.000 OA
ATOM     21  C   UNL     1       7.322   6.363  16.655  0.00  0.00    +0.000 C 
ENDBRANCH   9  12
ENDBRANCH   5   9
BRANCH   1  22
ATOM     22  C   UNL     1       1.830   8.645  18.597  0.00  0.00    +0.000 C 
ATOM     23  O   UNL     1       2.331   9.000  17.530  0.00  0.00    +0.000 OA
BRANCH  22  24
ATOM     24  C   UNL     1       1.210   9.619  19.585  0.00  0.00    +0.000 C 
BRANCH  24  25
ATOM     25  S   UNL     1       0.752  11.176  18.760  0.00  0.00    +0.000 S 
BRANCH  25  27
ATOM     26  C   UNL     1      -1.925  11.592  19.166  0.00  0.00    +0.000 C 
ATOM     27  C   UNL     1      -0.922  10.806  18.372  0.00  0.00    +0.000 C 
ATOM     28  O   UNL     1      -1.224   9.987  17.514  0.00  0.00    +0.000 OA
ENDBRANCH  25  27
ENDBRANCH  24  25
ENDBRANCH  22  24
ENDBRANCH   1  22
TORSDOF 6
ENDMDL
MODEL 5
REMARK VINA RESULT:      -7.6      1.262      1.501
REMARK  Name = 
REMARK  7 active torsions:
REMARK  status: ('A' for Active; 'I' for Inactive)
REMARK    1  A    between atoms: C_1  and  C_2
REMARK    2  A    between atoms: C_2  and  S_4
REMARK    3  A    between atoms: S_4  and  C_5
REMARK    4  A    between atoms: C_5  and  C_6
REMARK    5  A    between atoms: C_6  and  C_8
REMARK    6  A    between atoms: N_12  and  S_13
REMARK    7  A    between atoms: S_13  and  C_16
REMARK                            x       y       z     vdW  Elec       q    Type
REMARK                         _______ _______ _______ _____ _____    ______ ____
ROOT
ATOM      1  C   UNL     1       5.702   4.971  16.439  0.00  0.00    +0.000 A 
ATOM      2  C   UNL     1       5.254   6.288  16.561  0.00  0.00    +0.000 A 
ATOM      3  C   UNL     1       4.029   6.540  17.189  0.00  0.00    +0.000 A 
ATOM      4  C   UNL     1       3.302   5.466  17.680  0.00  0.00    +0.000 A 
ATOM      5  N   UNL     1       2.078   5.642  18.342  0.00  0.00    +0.000 N 
ATOM      6  N   UNL     1       3.710   4.192  17.602  0.00  0.00    +0.000 NA
ATOM      7  C   UNL     1       4.893   3.971  16.977  0.00  0.00    +0.000 A 
ATOM      8  H   UNL     1       1.381   6.242  17.911  0.00  0.00    +0.000 HD
ENDROOT
BRANCH   5   9
ATOM      9  S   UNL     1       2.140   5.835  20.004  0.00  0.00    +0.000 S 
ATOM     10  O   UNL     1       1.202   4.929  20.635  0.00  0.00    +0.000 OA
ATOM     11  O   UNL     1       3.547   5.772  20.342  0.00  0.00    +0.000 OA
BRANCH   9  12
ATOM     12  C   UNL     1       1.602   7.506  20.280  0.00  0.00    +0.000 A 
ATOM     13  C   UNL     1       1.689   8.445  19.249  0.00  0.00    +0.000 A 
ATOM     14  C   UNL     1       1.176   9.734  19.435  0.00  0.00    +0.000 A 
ATOM     15  C   UNL     1       0.554  10.076  20.643  0.00  0.00    +0.000 A 
ATOM     16  C   UNL     1       0.469   9.127  21.681  0.00  0.00    +0.000 A 
ATOM     17  C   UNL     1       0.982   7.837  21.492  0.00  0.00    +0.000 A 
ATOM     18  C   UNL     1      -0.241   9.502  22.961  0.00  0.00    +0.000 C 
ATOM     19  O   UNL     1      -0.260  10.926  23.109  0.00  0.00    +0.000 OA
ATOM     20  O   UNL     1      -0.967  11.440  21.929  0.00  0.00    +0.000 OA
ATOM     21  C   UNL     1       0.003  11.465  20.873  0.00  0.00    +0.000 C 
ENDBRANCH   9  12
ENDBRANCH   5   9
BRANCH   1  22
ATOM     22  C   UNL     1       6.982   4.567  15.789  0.00  0.00    +0.000 C 
ATOM     23  O   UNL     1       7.986   4.503  16.499  0.00  0.00    +0.000 OA
BRANCH  22  24
ATOM     24  C   UNL     1       7.011   4.313  14.290  0.00  0.00    +0.000 C 
BRANCH  24  25
ATOM     25  S   UNL     1       5.332   4.021  13.650  0.00  0.00    +0.000 S 
BRANCH  25  27
ATOM     26  C   UNL     1       4.559   2.943  11.253  0.00  0.00    +0.000 C 
ATOM     27  C   UNL     1       5.743   3.258  12.121  0.00  0.00    +0.000 C 
ATOM     28  O   UNL     1       6.902   3.026  11.802  0.00  0.00    +0.000 OA
ENDBRANCH  25  27
ENDBRANCH  24  25
ENDBRANCH  22  24
ENDBRANCH   1  22
TORSDOF 6
ENDMDL
MODEL 6
REMARK VINA RESULT:      -7.5      1.093      1.234
REMARK  Name = 
REMARK  7 active torsions:
REMARK  status: ('A' for Active; 'I' for Inactive)
REMARK    1  A    between atoms: C_1  and  C_2
REMARK    2  A    between atoms: C_2  and  S_4
REMARK    3  A    between atoms: S_4  and  C_5
REMARK    4  A    between atoms: C_5  and  C_6
REMARK    5  A    between atoms: C_6  and  C_8
REMARK    6  A    between atoms: N_12  and  S_13
REMARK    7  A    between atoms: S_13  and  C_16
REMARK                            x       y       z     vdW  Elec       q    Type
REMARK                         _______ _______ _______ _____ _____    ______ ____
ROOT
ATOM      1  C   UNL     1       6.787   5.095  15.207  0.00  0.00    +0.000 A 
ATOM      2  C   UNL     1       6.777   4.077  16.162  0.00  0.00    +0.000 A 
ATOM      3  C   UNL     1       6.154   4.300  17.396  0.00  0.00    +0.000 A 
ATOM      4  C   UNL     1       5.556   5.530  17.624  0.00  0.00    +0.000 A 
ATOM      5  N   UNL     1       4.893   5.819  18.826  0.00  0.00    +0.000 N 
ATOM      6  N   UNL     1       5.525   6.522  16.724  0.00  0.00    +0.000 NA
ATOM      7  C   UNL     1       6.148   6.288  15.541  0.00  0.00    +0.000 A 
ATOM      8  H   UNL     1       5.365   5.602  19.699  0.00  0.00    +0.000 HD
ENDROOT
BRANCH   5   9
ATOM      9  S   UNL     1       3.256   5.471  18.886  0.00  0.00    +0.000 S 
ATOM     10  O   UNL     1       2.828   4.919  17.618  0.00  0.00    +0.000 OA
ATOM     11  O   UNL     1       3.074   4.711  20.105  0.00  0.00    +0.000 OA
BRANCH   9  12
ATOM     12  C   UNL     1       2.474   7.049  19.123  0.00  0.00    +0.000 A 
ATOM     13  C   UNL     1       2.337   7.928  18.046  0.00  0.00    +0.000 A 
ATOM     14  C   UNL     1       1.636   9.128  18.210  0.00  0.00    +0.000 A 
ATOM     15  C   UNL     1       1.048   9.437  19.444  0.00  0.00    +0.000 A 
ATOM     16  C   UNL     1       1.190   8.549  20.529  0.00  0.00    +0.000 A 
ATOM     17  C   UNL     1       1.891   7.348  20.362  0.00  0.00    +0.000 A 
ATOM     18  C   UNL     1       0.516   8.880  21.841  0.00  0.00    +0.000 C 
ATOM     19  O   UNL     1       0.276  10.290  21.922  0.00  0.00    +0.000 OA
ATOM     20  O   UNL     1      -0.583  10.615  20.777  0.00  0.00    +0.000 OA
ATOM     21  C   UNL     1       0.296  10.732  19.650  0.00  0.00    +0.000 C 
ENDBRANCH   9  12
ENDBRANCH   5   9
BRANCH   1  22
ATOM     22  C   UNL     1       7.419   4.989  13.860  0.00  0.00    +0.000 C 
ATOM     23  O   UNL     1       8.319   5.784  13.589  0.00  0.00    +0.000 OA
BRANCH  22  24
ATOM     24  C   UNL     1       6.897   3.961  12.869  0.00  0.00    +0.000 C 
BRANCH  24  25
ATOM     25  S   UNL     1       5.096   3.755  13.037  0.00  0.00    +0.000 S 
BRANCH  25  27
ATOM     26  C   UNL     1       3.712   3.312  10.714  0.00  0.00    +0.000 C 
ATOM     27  C   UNL     1       4.792   2.775  11.610  0.00  0.00    +0.000 C 
ATOM     28  O   UNL     1       5.425   1.755  11.374  0.00  0.00    +0.000 OA
ENDBRANCH  25  27
ENDBRANCH  24  25
ENDBRANCH  22  24
ENDBRANCH   1  22
TORSDOF 6
ENDMDL
MODEL 7
REMARK VINA RESULT:      -7.4      3.122      9.059
REMARK  Name = 
REMARK  7 active torsions:
REMARK  status: ('A' for Active; 'I' for Inactive)
REMARK    1  A    between atoms: C_1  and  C_2
REMARK    2  A    between atoms: C_2  and  S_4
REMARK    3  A    between atoms: S_4  and  C_5
REMARK    4  A    between atoms: C_5  and  C_6
REMARK    5  A    between atoms: C_6  and  C_8
REMARK    6  A    between atoms: N_12  and  S_13
REMARK    7  A    between atoms: S_13  and  C_16
REMARK                            x       y       z     vdW  Elec       q    Type
REMARK                         _______ _______ _______ _____ _____    ______ ____
ROOT
ATOM      1  C   UNL     1       0.323   9.815  18.975  0.00  0.00    +0.000 A 
ATOM      2  C   UNL     1       1.384   9.438  18.150  0.00  0.00    +0.000 A 
ATOM      3  C   UNL     1       2.269   8.443  18.583  0.00  0.00    +0.000 A 
ATOM      4  C   UNL     1       2.053   7.856  19.821  0.00  0.00    +0.000 A 
ATOM      5  N   UNL     1       2.883   6.837  20.311  0.00  0.00    +0.000 N 
ATOM      6  N   UNL     1       1.034   8.176  20.629  0.00  0.00    +0.000 NA
ATOM      7  C   UNL     1       0.198   9.153  20.195  0.00  0.00    +0.000 A 
ATOM      8  H   UNL     1       3.888   6.975  20.269  0.00  0.00    +0.000 HD
ENDROOT
BRANCH   5   9
ATOM      9  S   UNL     1       2.442   5.264  19.945  0.00  0.00    +0.000 S 
ATOM     10  O   UNL     1       2.614   4.425  21.112  0.00  0.00    +0.000 OA
ATOM     11  O   UNL     1       1.142   5.370  19.315  0.00  0.00    +0.000 OA
BRANCH   9  12
ATOM     12  C   UNL     1       3.597   4.757  18.693  0.00  0.00    +0.000 A 
ATOM     13  C   UNL     1       3.132   4.215  17.492  0.00  0.00    +0.000 A 
ATOM     14  C   UNL     1       4.036   3.907  16.470  0.00  0.00    +0.000 A 
ATOM     15  C   UNL     1       5.404   4.164  16.638  0.00  0.00    +0.000 A 
ATOM     16  C   UNL     1       5.870   4.709  17.851  0.00  0.00    +0.000 A 
ATOM     17  C   UNL     1       4.962   5.018  18.872  0.00  0.00    +0.000 A 
ATOM     18  C   UNL     1       7.342   5.017  17.999  0.00  0.00    +0.000 C 
ATOM     19  O   UNL     1       8.099   4.226  17.075  0.00  0.00    +0.000 OA
ATOM     20  O   UNL     1       7.604   4.587  15.741  0.00  0.00    +0.000 OA
ATOM     21  C   UNL     1       6.401   3.829  15.553  0.00  0.00    +0.000 C 
ENDBRANCH   9  12
ENDBRANCH   5   9
BRANCH   1  22
ATOM     22  C   UNL     1      -0.684  10.862  18.636  0.00  0.00    +0.000 C 
ATOM     23  O   UNL     1      -0.355  12.039  18.791  0.00  0.00    +0.000 OA
BRANCH  22  24
ATOM     24  C   UNL     1      -2.072  10.444  18.180  0.00  0.00    +0.000 C 
BRANCH  24  25
ATOM     25  S   UNL     1      -3.290  11.752  18.526  0.00  0.00    +0.000 S 
BRANCH  25  27
ATOM     26  C   UNL     1      -5.888  10.995  18.098  0.00  0.00    +0.000 C 
ATOM     27  C   UNL     1      -4.566  11.244  17.430  0.00  0.00    +0.000 C 
ATOM     28  O   UNL     1      -4.380  11.124  16.226  0.00  0.00    +0.000 OA
ENDBRANCH  25  27
ENDBRANCH  24  25
ENDBRANCH  22  24
ENDBRANCH   1  22
TORSDOF 6
ENDMDL
MODEL 8
REMARK VINA RESULT:      -7.4      2.833      9.251
REMARK  Name = 
REMARK  7 active torsions:
REMARK  status: ('A' for Active; 'I' for Inactive)
REMARK    1  A    between atoms: C_1  and  C_2
REMARK    2  A    between atoms: C_2  and  S_4
REMARK    3  A    between atoms: S_4  and  C_5
REMARK    4  A    between atoms: C_5  and  C_6
REMARK    5  A    between atoms: C_6  and  C_8
REMARK    6  A    between atoms: N_12  and  S_13
REMARK    7  A    between atoms: S_13  and  C_16
REMARK                            x       y       z     vdW  Elec       q    Type
REMARK                         _______ _______ _______ _____ _____    ______ ____
ROOT
ATOM      1  C   UNL     1      -0.014   9.886  19.723  0.00  0.00    +0.000 A 
ATOM      2  C   UNL     1       0.850   9.629  18.656  0.00  0.00    +0.000 A 
ATOM      3  C   UNL     1       1.844   8.654  18.800  0.00  0.00    +0.000 A 
ATOM      4  C   UNL     1       1.930   7.966  20.001  0.00  0.00    +0.000 A 
ATOM      5  N   UNL     1       2.885   6.960  20.209  0.00  0.00    +0.000 N 
ATOM      6  N   UNL     1       1.105   8.169  21.036  0.00  0.00    +0.000 NA
ATOM      7  C   UNL     1       0.159   9.129  20.880  0.00  0.00    +0.000 A 
ATOM      8  H   UNL     1       3.850   7.154  19.961  0.00  0.00    +0.000 HD
ENDROOT
BRANCH   5   9
ATOM      9  S   UNL     1       2.431   5.396  19.817  0.00  0.00    +0.000 S 
ATOM     10  O   UNL     1       2.516   4.554  20.992  0.00  0.00    +0.000 OA
ATOM     11  O   UNL     1       1.172   5.532  19.113  0.00  0.00    +0.000 OA
BRANCH   9  12
ATOM     12  C   UNL     1       3.645   4.863  18.634  0.00  0.00    +0.000 A 
ATOM     13  C   UNL     1       3.238   4.335  17.406  0.00  0.00    +0.000 A 
ATOM     14  C   UNL     1       4.193   4.006  16.438  0.00  0.00    +0.000 A 
ATOM     15  C   UNL     1       5.554   4.229  16.687  0.00  0.00    +0.000 A 
ATOM     16  C   UNL     1       5.962   4.760  17.927  0.00  0.00    +0.000 A 
ATOM     17  C   UNL     1       5.003   5.090  18.894  0.00  0.00    +0.000 A 
ATOM     18  C   UNL     1       7.429   5.032  18.162  0.00  0.00    +0.000 C 
ATOM     19  O   UNL     1       8.220   4.224  17.282  0.00  0.00    +0.000 OA
ATOM     20  O   UNL     1       7.814   4.599  15.922  0.00  0.00    +0.000 OA
ATOM     21  C   UNL     1       6.606   3.871  15.662  0.00  0.00    +0.000 C 
ENDBRANCH   9  12
ENDBRANCH   5   9
BRANCH   1  22
ATOM     22  C   UNL     1      -1.108  10.900  19.702  0.00  0.00    +0.000 C 
ATOM     23  O   UNL     1      -1.791  10.981  18.680  0.00  0.00    +0.000 OA
BRANCH  22  24
ATOM     24  C   UNL     1      -1.297  11.819  20.898  0.00  0.00    +0.000 C 
BRANCH  24  25
ATOM     25  S   UNL     1      -0.740  13.509  20.512  0.00  0.00    +0.000 S 
BRANCH  25  27
ATOM     26  C   UNL     1       1.473  13.529  18.897  0.00  0.00    +0.000 C 
ATOM     27  C   UNL     1       0.971  13.192  20.272  0.00  0.00    +0.000 C 
ATOM     28  O   UNL     1       1.682  12.750  21.165  0.00  0.00    +0.000 OA
ENDBRANCH  25  27
ENDBRANCH  24  25
ENDBRANCH  22  24
ENDBRANCH   1  22
TORSDOF 6
ENDMDL
MODEL 9
REMARK VINA RESULT:      -7.3      3.025      8.332
REMARK  Name = 
REMARK  7 active torsions:
REMARK  status: ('A' for Active; 'I' for Inactive)
REMARK    1  A    between atoms: C_1  and  C_2
REMARK    2  A    between atoms: C_2  and  S_4
REMARK    3  A    between atoms: S_4  and  C_5
REMARK    4  A    between atoms: C_5  and  C_6
REMARK    5  A    between atoms: C_6  and  C_8
REMARK    6  A    between atoms: N_12  and  S_13
REMARK    7  A    between atoms: S_13  and  C_16
REMARK                            x       y       z     vdW  Elec       q    Type
REMARK                         _______ _______ _______ _____ _____    ______ ____
ROOT
ATOM      1  C   UNL     1       1.702   6.954  19.910  0.00  0.00    +0.000 A 
ATOM      2  C   UNL     1       1.589   6.084  20.997  0.00  0.00    +0.000 A 
ATOM      3  C   UNL     1       1.702   4.704  20.785  0.00  0.00    +0.000 A 
ATOM      4  C   UNL     1       1.934   4.248  19.496  0.00  0.00    +0.000 A 
ATOM      5  N   UNL     1       2.083   2.883  19.211  0.00  0.00    +0.000 N 
ATOM      6  N   UNL     1       2.072   5.053  18.434  0.00  0.00    +0.000 NA
ATOM      7  C   UNL     1       1.943   6.385  18.661  0.00  0.00    +0.000 A 
ATOM      8  H   UNL     1       1.396   2.236  19.587  0.00  0.00    +0.000 HD
ENDROOT
BRANCH   5   9
ATOM      9  S   UNL     1       3.638   2.264  19.272  0.00  0.00    +0.000 S 
ATOM     10  O   UNL     1       4.038   2.088  20.652  0.00  0.00    +0.000 OA
ATOM     11  O   UNL     1       3.632   1.132  18.368  0.00  0.00    +0.000 OA
BRANCH   9  12
ATOM     12  C   UNL     1       4.649   3.527  18.534  0.00  0.00    +0.000 A 
ATOM     13  C   UNL     1       5.357   4.416  19.346  0.00  0.00    +0.000 A 
ATOM     14  C   UNL     1       6.227   5.346  18.768  0.00  0.00    +0.000 A 
ATOM     15  C   UNL     1       6.410   5.370  17.378  0.00  0.00    +0.000 A 
ATOM     16  C   UNL     1       5.694   4.473  16.562  0.00  0.00    +0.000 A 
ATOM     17  C   UNL     1       4.824   3.541  17.144  0.00  0.00    +0.000 A 
ATOM     18  C   UNL     1       5.934   4.486  15.070  0.00  0.00    +0.000 C 
ATOM     19  O   UNL     1       6.465   5.756  14.674  0.00  0.00    +0.000 OA
ATOM     20  O   UNL     1       7.718   5.916  15.424  0.00  0.00    +0.000 OA
ATOM     21  C   UNL     1       7.336   6.373  16.729  0.00  0.00    +0.000 C 
ENDBRANCH   9  12
ENDBRANCH   5   9
BRANCH   1  22
ATOM     22  C   UNL     1       1.595   8.439  19.999  0.00  0.00    +0.000 C 
ATOM     23  O   UNL     1       1.381   8.929  21.108  0.00  0.00    +0.000 OA
BRANCH  22  24
ATOM     24  C   UNL     1       1.691   9.271  18.730  0.00  0.00    +0.000 C 
BRANCH  24  25
ATOM     25  S   UNL     1       0.448  10.600  18.731  0.00  0.00    +0.000 S 
BRANCH  25  27
ATOM     26  C   UNL     1       2.193  12.645  18.204  0.00  0.00    +0.000 C 
ATOM     27  C   UNL     1       1.454  11.926  19.296  0.00  0.00    +0.000 C 
ATOM     28  O   UNL     1       1.522  12.232  20.479  0.00  0.00    +0.000 OA
ENDBRANCH  25  27
ENDBRANCH  24  25
ENDBRANCH  22  24
ENDBRANCH   1  22
TORSDOF 6
ENDMDL
