MODEL 1
REMARK VINA RESULT:      -7.8      0.000      0.000
REMARK  Name = 
REMARK  13 active torsions:
REMARK  status: ('A' for Active; 'I' for Inactive)
REMARK    1  A    between atoms: C_1  and  C_2
REMARK    2  A    between atoms: C_2  and  O_3
REMARK    3  A    between atoms: O_3  and  C_4
REMARK    4  A    between atoms: C_4  and  C_6
REMARK    5  A    between atoms: C_11  and  O_12
REMARK    6  A    between atoms: O_12  and  C_13
REMARK    7  A    between atoms: C_16  and  C_17
REMARK    8  A    between atoms: C_17  and  C_19
REMARK    9  A    between atoms: C_21  and  O_22
REMARK   10  A    between atoms: C_23  and  O_24
REMARK   11  A    between atoms: O_24  and  C_25
REMARK   12  A    between atoms: C_26  and  O_27
REMARK   13  A    between atoms: O_27  and  C_28
REMARK                            x       y       z     vdW  Elec       q    Type
REMARK                         _______ _______ _______ _____ _____    ______ ____
ROOT
ATOM      1  C   UNL     1       2.904   3.897  17.737  0.00  0.00    +0.000 A 
ATOM      2  N   UNL     1       3.612   3.423  16.658  0.00  0.00    +0.000 N 
ATOM      3  C   UNL     1       4.715   4.200  16.413  0.00  0.00    +0.000 A 
ATOM      4  C   UNL     1       5.674   4.112  15.397  0.00  0.00    +0.000 A 
ATOM      5  C   UNL     1       6.725   5.040  15.401  0.00  0.00    +0.000 A 
ATOM      6  C   UNL     1       6.836   5.990  16.411  0.00  0.00    +0.000 A 
ATOM      7  C   UNL     1       5.888   6.022  17.439  0.00  0.00    +0.000 A 
ATOM      8  C   UNL     1       4.774   5.155  17.425  0.00  0.00    +0.000 A 
ATOM      9  C   UNL     1       3.612   4.979  18.257  0.00  0.00    +0.000 A 
ATOM     10  H   UNL     1       3.340   2.612  16.117  0.00  0.00    +0.000 HD
ENDROOT
BRANCH   1  11
ATOM     11  C   UNL     1       1.673   3.305  18.206  0.00  0.00    +0.000 C 
ATOM     12  O   UNL     1       0.554   3.513  17.760  0.00  0.00    +0.000 OA
BRANCH  11  13
ATOM     13  O   UNL     1       1.959   2.487  19.259  0.00  0.00    +0.000 OA
BRANCH  13  15
ATOM     14  C   UNL     1       1.998   2.610  21.650  0.00  0.00    +0.000 C 
ATOM     15  C   UNL     1       1.121   2.671  20.410  0.00  0.00    +0.000 C 
ENDBRANCH  13  15
ENDBRANCH  11  13
ENDBRANCH   1  11
BRANCH   6  16
ATOM     16  O   UNL     1       7.804   6.948  16.525  0.00  0.00    +0.000 OA
ATOM     17  C   UNL     1       7.711   7.842  17.625  0.00  0.00    +0.000 C 
ENDBRANCH   6  16
BRANCH   9  18
ATOM     18  C   UNL     1       3.237   5.688  19.485  0.00  0.00    +0.000 C 
ATOM     19  O   UNL     1       3.603   5.302  20.591  0.00  0.00    +0.000 OA
BRANCH  18  20
ATOM     20  C   UNL     1       2.486   6.969  19.402  0.00  0.00    +0.000 A 
ATOM     21  C   UNL     1       2.440   7.739  18.237  0.00  0.00    +0.000 A 
ATOM     22  C   UNL     1       1.862   9.012  18.266  0.00  0.00    +0.000 A 
ATOM     23  C   UNL     1       1.253   9.499  19.435  0.00  0.00    +0.000 A 
ATOM     24  C   UNL     1       1.235   8.678  20.587  0.00  0.00    +0.000 A 
ATOM     25  C   UNL     1       1.852   7.424  20.563  0.00  0.00    +0.000 A 
BRANCH  22  26
ATOM     26  O   UNL     1       1.941   9.766  17.127  0.00  0.00    +0.000 OA
ATOM     27  H   UNL     1       2.852   9.753  16.789  0.00  0.00    +0.000 HD
ENDBRANCH  22  26
BRANCH  23  28
ATOM     28  O   UNL     1       0.660  10.724  19.607  0.00  0.00    +0.000 OA
ATOM     29  C   UNL     1      -0.612  10.966  19.029  0.00  0.00    +0.000 C 
ENDBRANCH  23  28
BRANCH  24  30
ATOM     30  O   UNL     1       0.615   9.199  21.699  0.00  0.00    +0.000 OA
ATOM     31  C   UNL     1      -0.626   8.627  22.093  0.00  0.00    +0.000 C 
ENDBRANCH  24  30
ENDBRANCH  18  20
ENDBRANCH   9  18
TORSDOF 9
ENDMDL
MODEL 2
REMARK VINA RESULT:      -7.5      2.481      4.995
REMARK  Name = 
REMARK  13 active torsions:
REMARK  status: ('A' for Active; 'I' for Inactive)
REMARK    1  A    between atoms: C_1  and  C_2
REMARK    2  A    between atoms: C_2  and  O_3
REMARK    3  A    between atoms: O_3  and  C_4
REMARK    4  A    between atoms: C_4  and  C_6
REMARK    5  A    between atoms: C_11  and  O_12
REMARK    6  A    between atoms: O_12  and  C_13
REMARK    7  A    between atoms: C_16  and  C_17
REMARK    8  A    between atoms: C_17  and  C_19
REMARK    9  A    between atoms: C_21  and  O_22
REMARK   10  A    between atoms: C_23  and  O_24
REMARK   11  A    between atoms: O_24  and  C_25
REMARK   12  A    between atoms: C_26  and  O_27
REMARK   13  A    between atoms: O_27  and  C_28
REMARK                            x       y       z     vdW  Elec       q    Type
REMARK                         _______ _______ _______ _____ _____    ______ ____
ROOT
ATOM      1  C   UNL     1       6.807   5.069  16.583  0.00  0.00    +0.000 A 
ATOM      2  N   UNL     1       7.583   5.366  15.487  0.00  0.00    +0.000 N 
ATOM      3  C   UNL     1       7.086   4.772  14.355  0.00  0.00    +0.000 A 
ATOM      4  C   UNL     1       7.582   4.768  13.046  0.00  0.00    +0.000 A 
ATOM      5  C   UNL     1       6.847   4.087  12.065  0.00  0.00    +0.000 A 
ATOM      6  C   UNL     1       5.638   3.473  12.377  0.00  0.00    +0.000 A 
ATOM      7  C   UNL     1       5.146   3.535  13.684  0.00  0.00    +0.000 A 
ATOM      8  C   UNL     1       5.896   4.144  14.714  0.00  0.00    +0.000 A 
ATOM      9  C   UNL     1       5.725   4.312  16.133  0.00  0.00    +0.000 A 
ATOM     10  H   UNL     1       8.415   5.943  15.526  0.00  0.00    +0.000 HD
ENDROOT
BRANCH   1  11
ATOM     11  C   UNL     1       7.106   5.522  17.920  0.00  0.00    +0.000 C 
ATOM     12  O   UNL     1       7.387   4.817  18.878  0.00  0.00    +0.000 OA
BRANCH  11  13
ATOM     13  O   UNL     1       6.997   6.881  17.951  0.00  0.00    +0.000 OA
BRANCH  13  15
ATOM     14  C   UNL     1       8.077   9.017  17.902  0.00  0.00    +0.000 C 
ATOM     15  C   UNL     1       8.187   7.572  18.360  0.00  0.00    +0.000 C 
ENDBRANCH  13  15
ENDBRANCH  11  13
ENDBRANCH   1  11
BRANCH   6  16
ATOM     16  O   UNL     1       4.834   2.776  11.518  0.00  0.00    +0.000 OA
ATOM     17  C   UNL     1       3.747   3.476  10.930  0.00  0.00    +0.000 C 
ENDBRANCH   6  16
BRANCH   9  18
ATOM     18  C   UNL     1       4.609   3.893  16.987  0.00  0.00    +0.000 C 
ATOM     19  O   UNL     1       4.355   2.709  17.182  0.00  0.00    +0.000 OA
BRANCH  18  20
ATOM     20  C   UNL     1       3.822   4.912  17.732  0.00  0.00    +0.000 A 
ATOM     21  C   UNL     1       3.720   6.239  17.309  0.00  0.00    +0.000 A 
ATOM     22  C   UNL     1       3.109   7.188  18.135  0.00  0.00    +0.000 A 
ATOM     23  C   UNL     1       2.524   6.810  19.355  0.00  0.00    +0.000 A 
ATOM     24  C   UNL     1       2.563   5.448  19.736  0.00  0.00    +0.000 A 
ATOM     25  C   UNL     1       3.213   4.512  18.926  0.00  0.00    +0.000 A 
BRANCH  22  26
ATOM     26  O   UNL     1       3.133   8.493  17.721  0.00  0.00    +0.000 OA
ATOM     27  H   UNL     1       3.969   8.674  17.261  0.00  0.00    +0.000 HD
ENDBRANCH  22  26
BRANCH  23  28
ATOM     28  O   UNL     1       1.904   7.631  20.263  0.00  0.00    +0.000 OA
ATOM     29  C   UNL     1       1.148   8.735  19.795  0.00  0.00    +0.000 C 
ENDBRANCH  23  28
BRANCH  24  30
ATOM     30  O   UNL     1       1.964   5.131  20.934  0.00  0.00    +0.000 OA
ATOM     31  C   UNL     1       2.318   3.897  21.543  0.00  0.00    +0.000 C 
ENDBRANCH  24  30
ENDBRANCH  18  20
ENDBRANCH   9  18
TORSDOF 9
ENDMDL
MODEL 3
REMARK VINA RESULT:      -7.2      1.658      2.594
REMARK  Name = 
REMARK  13 active torsions:
REMARK  status: ('A' for Active; 'I' for Inactive)
REMARK    1  A    between atoms: C_1  and  C_2
REMARK    2  A    between atoms: C_2  and  O_3
REMARK    3  A    between atoms: O_3  and  C_4
REMARK    4  A    between atoms: C_4  and  C_6
REMARK    5  A    between atoms: C_11  and  O_12
REMARK    6  A    between atoms: O_12  and  C_13
REMARK    7  A    between atoms: C_16  and  C_17
REMARK    8  A    between atoms: C_17  and  C_19
REMARK    9  A    between atoms: C_21  and  O_22
REMARK   10  A    between atoms: C_23  and  O_24
REMARK   11  A    between atoms: O_24  and  C_25
REMARK   12  A    between atoms: C_26  and  O_27
REMARK   13  A    between atoms: O_27  and  C_28
REMARK                            x       y       z     vdW  Elec       q    Type
REMARK                         _______ _______ _______ _____ _____    ______ ____
ROOT
ATOM      1  C   UNL     1       4.226   3.751  18.859  0.00  0.00    +0.000 A 
ATOM      2  N   UNL     1       5.585   3.618  19.021  0.00  0.00    +0.000 N 
ATOM      3  C   UNL     1       6.247   4.732  18.571  0.00  0.00    +0.000 A 
ATOM      4  C   UNL     1       7.618   5.001  18.501  0.00  0.00    +0.000 A 
ATOM      5  C   UNL     1       8.020   6.252  18.012  0.00  0.00    +0.000 A 
ATOM      6  C   UNL     1       7.082   7.213  17.650  0.00  0.00    +0.000 A 
ATOM      7  C   UNL     1       5.718   6.931  17.776  0.00  0.00    +0.000 A 
ATOM      8  C   UNL     1       5.276   5.656  18.192  0.00  0.00    +0.000 A 
ATOM      9  C   UNL     1       3.990   5.028  18.353  0.00  0.00    +0.000 A 
ATOM     10  H   UNL     1       6.029   2.797  19.413  0.00  0.00    +0.000 HD
ENDROOT
BRANCH   1  11
ATOM     11  C   UNL     1       3.277   2.720  19.206  0.00  0.00    +0.000 C 
ATOM     12  O   UNL     1       2.808   1.883  18.449  0.00  0.00    +0.000 OA
BRANCH  11  13
ATOM     13  O   UNL     1       2.960   2.849  20.526  0.00  0.00    +0.000 OA
BRANCH  13  15
ATOM     14  C   UNL     1       0.698   3.634  20.501  0.00  0.00    +0.000 C 
ATOM     15  C   UNL     1       1.615   2.477  20.863  0.00  0.00    +0.000 C 
ENDBRANCH  13  15
ENDBRANCH  11  13
ENDBRANCH   1  11
BRANCH   6  16
ATOM     16  O   UNL     1       7.342   8.461  17.156  0.00  0.00    +0.000 OA
ATOM     17  C   UNL     1       8.210   9.294  17.912  0.00  0.00    +0.000 C 
ENDBRANCH   6  16
BRANCH   9  18
ATOM     18  C   UNL     1       2.652   5.593  18.148  0.00  0.00    +0.000 C 
ATOM     19  O   UNL     1       1.788   4.993  17.517  0.00  0.00    +0.000 OA
BRANCH  18  20
ATOM     20  C   UNL     1       2.279   6.873  18.807  0.00  0.00    +0.000 A 
ATOM     21  C   UNL     1       2.057   6.974  20.182  0.00  0.00    +0.000 A 
ATOM     22  C   UNL     1       1.547   8.160  20.719  0.00  0.00    +0.000 A 
ATOM     23  C   UNL     1       1.327   9.283  19.905  0.00  0.00    +0.000 A 
ATOM     24  C   UNL     1       1.632   9.195  18.526  0.00  0.00    +0.000 A 
ATOM     25  C   UNL     1       2.101   7.993  17.988  0.00  0.00    +0.000 A 
BRANCH  22  26
ATOM     26  O   UNL     1       1.245   8.168  22.055  0.00  0.00    +0.000 OA
ATOM     27  H   UNL     1       0.321   7.896  22.182  0.00  0.00    +0.000 HD
ENDBRANCH  22  26
BRANCH  23  28
ATOM     28  O   UNL     1       0.825  10.500  20.294  0.00  0.00    +0.000 OA
ATOM     29  C   UNL     1      -0.571  10.641  20.494  0.00  0.00    +0.000 C 
ENDBRANCH  23  28
BRANCH  24  30
ATOM     30  O   UNL     1       1.410  10.328  17.777  0.00  0.00    +0.000 OA
ATOM     31  C   UNL     1       2.404  11.343  17.805  0.00  0.00    +0.000 C 
ENDBRANCH  24  30
ENDBRANCH  18  20
ENDBRANCH   9  18
TORSDOF 9
ENDMDL
MODEL 4
REMARK VINA RESULT:      -6.9      1.738      2.130
REMARK  Name = 
REMARK  13 active torsions:
REMARK  status: ('A' for Active; 'I' for Inactive)
REMARK    1  A    between atoms: C_1  and  C_2
REMARK    2  A    between atoms: C_2  and  O_3
REMARK    3  A    between atoms: O_3  and  C_4
REMARK    4  A    between atoms: C_4  and  C_6
REMARK    5  A    between atoms: C_11  and  O_12
REMARK    6  A    between atoms: O_12  and  C_13
REMARK    7  A    between atoms: C_16  and  C_17
REMARK    8  A    between atoms: C_17  and  C_19
REMARK    9  A    between atoms: C_21  and  O_22
REMARK   10  A    between atoms: C_23  and  O_24
REMARK   11  A    between atoms: O_24  and  C_25
REMARK   12  A    between atoms: C_26  and  O_27
REMARK   13  A    between atoms: O_27  and  C_28
REMARK                            x       y       z     vdW  Elec       q    Type
REMARK                         _______ _______ _______ _____ _____    ______ ____
ROOT
ATOM      1  C   UNL     1       4.441   4.025  19.288  0.00  0.00    +0.000 A 
ATOM      2  N   UNL     1       5.773   4.040  19.627  0.00  0.00    +0.000 N 
ATOM      3  C   UNL     1       6.412   5.118  19.068  0.00  0.00    +0.000 A 
ATOM      4  C   UNL     1       7.761   5.490  19.111  0.00  0.00    +0.000 A 
ATOM      5  C   UNL     1       8.139   6.672  18.459  0.00  0.00    +0.000 A 
ATOM      6  C   UNL     1       7.194   7.472  17.825  0.00  0.00    +0.000 A 
ATOM      7  C   UNL     1       5.847   7.097  17.840  0.00  0.00    +0.000 A 
ATOM      8  C   UNL     1       5.440   5.876  18.420  0.00  0.00    +0.000 A 
ATOM      9  C   UNL     1       4.189   5.173  18.539  0.00  0.00    +0.000 A 
ATOM     10  H   UNL     1       6.215   3.338  20.208  0.00  0.00    +0.000 HD
ENDROOT
BRANCH   1  11
ATOM     11  C   UNL     1       3.525   2.987  19.698  0.00  0.00    +0.000 C 
ATOM     12  O   UNL     1       3.272   1.961  19.085  0.00  0.00    +0.000 OA
BRANCH  11  13
ATOM     13  O   UNL     1       2.958   3.354  20.883  0.00  0.00    +0.000 OA
BRANCH  13  15
ATOM     14  C   UNL     1       0.649   3.553  20.283  0.00  0.00    +0.000 C 
ATOM     15  C   UNL     1       1.659   2.795  21.129  0.00  0.00    +0.000 C 
ENDBRANCH  13  15
ENDBRANCH  11  13
ENDBRANCH   1  11
BRANCH   6  16
ATOM     16  O   UNL     1       7.434   8.638  17.152  0.00  0.00    +0.000 OA
ATOM     17  C   UNL     1       8.194   9.634  17.822  0.00  0.00    +0.000 C 
ENDBRANCH   6  16
BRANCH   9  18
ATOM     18  C   UNL     1       2.854   5.576  18.083  0.00  0.00    +0.000 C 
ATOM     19  O   UNL     1       2.149   4.830  17.411  0.00  0.00    +0.000 OA
BRANCH  18  20
ATOM     20  C   UNL     1       2.279   6.873  18.528  0.00  0.00    +0.000 A 
ATOM     21  C   UNL     1       2.156   7.973  17.676  0.00  0.00    +0.000 A 
ATOM     22  C   UNL     1       1.766   9.213  18.191  0.00  0.00    +0.000 A 
ATOM     23  C   UNL     1       1.419   9.353  19.544  0.00  0.00    +0.000 A 
ATOM     24  C   UNL     1       1.470   8.214  20.382  0.00  0.00    +0.000 A 
ATOM     25  C   UNL     1       1.902   6.987  19.870  0.00  0.00    +0.000 A 
BRANCH  22  26
ATOM     26  O   UNL     1       1.767  10.281  17.333  0.00  0.00    +0.000 OA
ATOM     27  H   UNL     1       0.864  10.627  17.242  0.00  0.00    +0.000 HD
ENDBRANCH  22  26
BRANCH  23  28
ATOM     28  O   UNL     1       1.030  10.504  20.182  0.00  0.00    +0.000 OA
ATOM     29  C   UNL     1       1.790  11.687  20.002  0.00  0.00    +0.000 C 
ENDBRANCH  23  28
BRANCH  24  30
ATOM     30  O   UNL     1       1.107   8.404  21.696  0.00  0.00    +0.000 OA
ATOM     31  C   UNL     1      -0.281   8.448  21.998  0.00  0.00    +0.000 C 
ENDBRANCH  24  30
ENDBRANCH  18  20
ENDBRANCH   9  18
TORSDOF 9
ENDMDL
MODEL 5
REMARK VINA RESULT:      -6.9      1.890      6.209
REMARK  Name = 
REMARK  13 active torsions:
REMARK  status: ('A' for Active; 'I' for Inactive)
REMARK    1  A    between atoms: C_1  and  C_2
REMARK    2  A    between atoms: C_2  and  O_3
REMARK    3  A    between atoms: O_3  and  C_4
REMARK    4  A    between atoms: C_4  and  C_6
REMARK    5  A    between atoms: C_11  and  O_12
REMARK    6  A    between atoms: O_12  and  C_13
REMARK    7  A    between atoms: C_16  and  C_17
REMARK    8  A    between atoms: C_17  and  C_19
REMARK    9  A    between atoms: C_21  and  O_22
REMARK   10  A    between atoms: C_23  and  O_24
REMARK   11  A    between atoms: O_24  and  C_25
REMARK   12  A    between atoms: C_26  and  O_27
REMARK   13  A    between atoms: O_27  and  C_28
REMARK                            x       y       z     vdW  Elec       q    Type
REMARK                         _______ _______ _______ _____ _____    ______ ____
ROOT
ATOM      1  C   UNL     1       3.244   4.254  19.712  0.00  0.00    +0.000 A 
ATOM      2  N   UNL     1       2.807   5.173  20.636  0.00  0.00    +0.000 N 
ATOM      3  C   UNL     1       2.514   6.372  20.038  0.00  0.00    +0.000 A 
ATOM      4  C   UNL     1       2.090   7.582  20.601  0.00  0.00    +0.000 A 
ATOM      5  C   UNL     1       1.838   8.657  19.737  0.00  0.00    +0.000 A 
ATOM      6  C   UNL     1       1.963   8.512  18.360  0.00  0.00    +0.000 A 
ATOM      7  C   UNL     1       2.342   7.277  17.825  0.00  0.00    +0.000 A 
ATOM      8  C   UNL     1       2.679   6.194  18.667  0.00  0.00    +0.000 A 
ATOM      9  C   UNL     1       3.164   4.855  18.457  0.00  0.00    +0.000 A 
ATOM     10  H   UNL     1       2.725   4.981  21.627  0.00  0.00    +0.000 HD
ENDROOT
BRANCH   1  11
ATOM     11  C   UNL     1       3.664   2.915  20.055  0.00  0.00    +0.000 C 
ATOM     12  O   UNL     1       4.794   2.463  19.952  0.00  0.00    +0.000 OA
BRANCH  11  13
ATOM     13  O   UNL     1       2.576   2.219  20.491  0.00  0.00    +0.000 OA
BRANCH  13  15
ATOM     14  C   UNL     1       0.486   2.541  19.368  0.00  0.00    +0.000 C 
ATOM     15  C   UNL     1       1.742   1.689  19.450  0.00  0.00    +0.000 C 
ENDBRANCH  13  15
ENDBRANCH  11  13
ENDBRANCH   1  11
BRANCH   6  16
ATOM     16  O   UNL     1       1.753   9.479  17.416  0.00  0.00    +0.000 OA
ATOM     17  C   UNL     1       1.917  10.831  17.820  0.00  0.00    +0.000 C 
ENDBRANCH   6  16
BRANCH   9  18
ATOM     18  C   UNL     1       3.438   4.157  17.196  0.00  0.00    +0.000 C 
ATOM     19  O   UNL     1       2.687   3.289  16.762  0.00  0.00    +0.000 OA
BRANCH  18  20
ATOM     20  C   UNL     1       4.592   4.572  16.355  0.00  0.00    +0.000 A 
ATOM     21  C   UNL     1       4.799   4.074  15.067  0.00  0.00    +0.000 A 
ATOM     22  C   UNL     1       5.987   4.370  14.389  0.00  0.00    +0.000 A 
ATOM     23  C   UNL     1       6.944   5.228  14.955  0.00  0.00    +0.000 A 
ATOM     24  C   UNL     1       6.686   5.791  16.227  0.00  0.00    +0.000 A 
ATOM     25  C   UNL     1       5.518   5.457  16.917  0.00  0.00    +0.000 A 
BRANCH  22  26
ATOM     26  O   UNL     1       6.187   3.768  13.175  0.00  0.00    +0.000 OA
ATOM     27  H   UNL     1       5.470   3.135  13.003  0.00  0.00    +0.000 HD
ENDBRANCH  22  26
BRANCH  23  28
ATOM     28  O   UNL     1       8.149   5.595  14.410  0.00  0.00    +0.000 OA
ATOM     29  C   UNL     1       8.283   5.654  13.001  0.00  0.00    +0.000 C 
ENDBRANCH  23  28
BRANCH  24  30
ATOM     30  O   UNL     1       7.651   6.634  16.729  0.00  0.00    +0.000 OA
ATOM     31  C   UNL     1       7.684   6.837  18.135  0.00  0.00    +0.000 C 
ENDBRANCH  24  30
ENDBRANCH  18  20
ENDBRANCH   9  18
TORSDOF 9
ENDMDL
MODEL 6
REMARK VINA RESULT:      -6.9      2.477      5.197
REMARK  Name = 
REMARK  13 active torsions:
REMARK  status: ('A' for Active; 'I' for Inactive)
REMARK    1  A    between atoms: C_1  and  C_2
REMARK    2  A    between atoms: C_2  and  O_3
REMARK    3  A    between atoms: O_3  and  C_4
REMARK    4  A    between atoms: C_4  and  C_6
REMARK    5  A    between atoms: C_11  and  O_12
REMARK    6  A    between atoms: O_12  and  C_13
REMARK    7  A    between atoms: C_16  and  C_17
REMARK    8  A    between atoms: C_17  and  C_19
REMARK    9  A    between atoms: C_21  and  O_22
REMARK   10  A    between atoms: C_23  and  O_24
REMARK   11  A    between atoms: O_24  and  C_25
REMARK   12  A    between atoms: C_26  and  O_27
REMARK   13  A    between atoms: O_27  and  C_28
REMARK                            x       y       z     vdW  Elec       q    Type
REMARK                         _______ _______ _______ _____ _____    ______ ____
ROOT
ATOM      1  C   UNL     1       6.833   5.107  16.492  0.00  0.00    +0.000 A 
ATOM      2  N   UNL     1       7.601   5.348  15.377  0.00  0.00    +0.000 N 
ATOM      3  C   UNL     1       7.054   4.760  14.265  0.00  0.00    +0.000 A 
ATOM      4  C   UNL     1       7.523   4.711  12.947  0.00  0.00    +0.000 A 
ATOM      5  C   UNL     1       6.737   4.050  11.993  0.00  0.00    +0.000 A 
ATOM      6  C   UNL     1       5.507   3.499  12.337  0.00  0.00    +0.000 A 
ATOM      7  C   UNL     1       5.044   3.606  13.653  0.00  0.00    +0.000 A 
ATOM      8  C   UNL     1       5.843   4.196  14.657  0.00  0.00    +0.000 A 
ATOM      9  C   UNL     1       5.709   4.395  16.077  0.00  0.00    +0.000 A 
ATOM     10  H   UNL     1       8.460   5.885  15.389  0.00  0.00    +0.000 HD
ENDROOT
BRANCH   1  11
ATOM     11  C   UNL     1       7.181   5.567  17.816  0.00  0.00    +0.000 C 
ATOM     12  O   UNL     1       7.490   4.867  18.768  0.00  0.00    +0.000 OA
BRANCH  11  13
ATOM     13  O   UNL     1       7.080   6.927  17.841  0.00  0.00    +0.000 OA
BRANCH  13  15
ATOM     14  C   UNL     1       8.173   9.055  17.951  0.00  0.00    +0.000 C 
ATOM     15  C   UNL     1       8.213   7.605  18.405  0.00  0.00    +0.000 C 
ENDBRANCH  13  15
ENDBRANCH  11  13
ENDBRANCH   1  11
BRANCH   6  16
ATOM     16  O   UNL     1       4.654   2.828  11.507  0.00  0.00    +0.000 OA
ATOM     17  C   UNL     1       3.711   3.601  10.778  0.00  0.00    +0.000 C 
ENDBRANCH   6  16
BRANCH   9  18
ATOM     18  C   UNL     1       4.591   4.044  16.959  0.00  0.00    +0.000 C 
ATOM     19  O   UNL     1       4.191   2.889  17.066  0.00  0.00    +0.000 OA
BRANCH  18  20
ATOM     20  C   UNL     1       3.985   5.081  17.836  0.00  0.00    +0.000 A 
ATOM     21  C   UNL     1       3.627   4.827  19.162  0.00  0.00    +0.000 A 
ATOM     22  C   UNL     1       2.910   5.786  19.885  0.00  0.00    +0.000 A 
ATOM     23  C   UNL     1       2.610   7.037  19.321  0.00  0.00    +0.000 A 
ATOM     24  C   UNL     1       3.048   7.313  18.004  0.00  0.00    +0.000 A 
ATOM     25  C   UNL     1       3.727   6.335  17.273  0.00  0.00    +0.000 A 
BRANCH  22  26
ATOM     26  O   UNL     1       2.490   5.444  21.143  0.00  0.00    +0.000 OA
ATOM     27  H   UNL     1       1.581   5.757  21.280  0.00  0.00    +0.000 HD
ENDBRANCH  22  26
BRANCH  23  28
ATOM     28  O   UNL     1       1.910   8.061  19.908  0.00  0.00    +0.000 OA
ATOM     29  C   UNL     1       1.196   7.814  21.107  0.00  0.00    +0.000 C 
ENDBRANCH  23  28
BRANCH  24  30
ATOM     30  O   UNL     1       2.739   8.558  17.506  0.00  0.00    +0.000 OA
ATOM     31  C   UNL     1       1.380   8.971  17.556  0.00  0.00    +0.000 C 
ENDBRANCH  24  30
ENDBRANCH  18  20
ENDBRANCH   9  18
TORSDOF 9
ENDMDL
MODEL 7
REMARK VINA RESULT:      -6.8      1.123      2.229
REMARK  Name = 
REMARK  13 active torsions:
REMARK  status: ('A' for Active; 'I' for Inactive)
REMARK    1  A    between atoms: C_1  and  C_2
REMARK    2  A    between atoms: C_2  and  O_3
REMARK    3  A    between atoms: O_3  and  C_4
REMARK    4  A    between atoms: C_4  and  C_6
REMARK    5  A    between atoms: C_11  and  O_12
REMARK    6  A    between atoms: O_12  and  C_13
REMARK    7  A    between atoms: C_16  and  C_17
REMARK    8  A    between atoms: C_17  and  C_19
REMARK    9  A    between atoms: C_21  and  O_22
REMARK   10  A    between atoms: C_23  and  O_24
REMARK   11  A    between atoms: O_24  and  C_25
REMARK   12  A    between atoms: C_26  and  O_27
REMARK   13  A    between atoms: O_27  and  C_28
REMARK                            x       y       z     vdW  Elec       q    Type
REMARK                         _______ _______ _______ _____ _____    ______ ____
ROOT
ATOM      1  C   UNL     1       3.182   4.306  17.418  0.00  0.00    +0.000 A 
ATOM      2  N   UNL     1       4.158   4.110  16.470  0.00  0.00    +0.000 N 
ATOM      3  C   UNL     1       5.262   4.881  16.731  0.00  0.00    +0.000 A 
ATOM      4  C   UNL     1       6.451   5.030  16.009  0.00  0.00    +0.000 A 
ATOM      5  C   UNL     1       7.436   5.882  16.528  0.00  0.00    +0.000 A 
ATOM      6  C   UNL     1       7.253   6.525  17.748  0.00  0.00    +0.000 A 
ATOM      7  C   UNL     1       6.072   6.320  18.469  0.00  0.00    +0.000 A 
ATOM      8  C   UNL     1       5.027   5.530  17.941  0.00  0.00    +0.000 A 
ATOM      9  C   UNL     1       3.698   5.184  18.370  0.00  0.00    +0.000 A 
ATOM     10  H   UNL     1       4.060   3.482  15.682  0.00  0.00    +0.000 HD
ENDROOT
BRANCH   1  11
ATOM     11  C   UNL     1       1.892   3.659  17.382  0.00  0.00    +0.000 C 
ATOM     12  O   UNL     1       0.806   4.213  17.310  0.00  0.00    +0.000 OA
BRANCH  11  13
ATOM     13  O   UNL     1       2.082   2.311  17.469  0.00  0.00    +0.000 OA
BRANCH  13  15
ATOM     14  C   UNL     1       3.772   1.288  18.822  0.00  0.00    +0.000 C 
ATOM     15  C   UNL     1       2.350   1.825  18.793  0.00  0.00    +0.000 C 
ENDBRANCH  13  15
ENDBRANCH  11  13
ENDBRANCH   1  11
BRANCH   6  16
ATOM     16  O   UNL     1       8.128   7.381  18.357  0.00  0.00    +0.000 OA
ATOM     17  C   UNL     1       8.112   8.738  17.938  0.00  0.00    +0.000 C 
ENDBRANCH   6  16
BRANCH   9  18
ATOM     18  C   UNL     1       2.997   5.555  19.605  0.00  0.00    +0.000 C 
ATOM     19  O   UNL     1       2.998   4.826  20.591  0.00  0.00    +0.000 OA
BRANCH  18  20
ATOM     20  C   UNL     1       2.358   6.893  19.721  0.00  0.00    +0.000 A 
ATOM     21  C   UNL     1       1.639   7.286  20.852  0.00  0.00    +0.000 A 
ATOM     22  C   UNL     1       0.920   8.486  20.837  0.00  0.00    +0.000 A 
ATOM     23  C   UNL     1       0.974   9.343  19.726  0.00  0.00    +0.000 A 
ATOM     24  C   UNL     1       1.770   8.972  18.617  0.00  0.00    +0.000 A 
ATOM     25  C   UNL     1       2.451   7.752  18.621  0.00  0.00    +0.000 A 
BRANCH  22  26
ATOM     26  O   UNL     1       0.145   8.770  21.930  0.00  0.00    +0.000 OA
ATOM     27  H   UNL     1      -0.712   8.320  21.848  0.00  0.00    +0.000 HD
ENDBRANCH  22  26
BRANCH  23  28
ATOM     28  O   UNL     1       0.316  10.538  19.572  0.00  0.00    +0.000 OA
ATOM     29  C   UNL     1      -1.053  10.534  19.208  0.00  0.00    +0.000 C 
ENDBRANCH  23  28
BRANCH  24  30
ATOM     30  O   UNL     1       1.797   9.855  17.561  0.00  0.00    +0.000 OA
ATOM     31  C   UNL     1       2.498  11.078  17.740  0.00  0.00    +0.000 C 
ENDBRANCH  24  30
ENDBRANCH  18  20
ENDBRANCH   9  18
TORSDOF 9
ENDMDL
MODEL 8
REMARK VINA RESULT:      -6.8      3.135      8.139
REMARK  Name = 
REMARK  13 active torsions:
REMARK  status: ('A' for Active; 'I' for Inactive)
REMARK    1  A    between atoms: C_1  and  C_2
REMARK    2  A    between atoms: C_2  and  O_3
REMARK    3  A    between atoms: O_3  and  C_4
REMARK    4  A    between atoms: C_4  and  C_6
REMARK    5  A    between atoms: C_11  and  O_12
REMARK    6  A    between atoms: O_12  and  C_13
REMARK    7  A    between atoms: C_16  and  C_17
REMARK    8  A    between atoms: C_17  and  C_19
REMARK    9  A    between atoms: C_21  and  O_22
REMARK   10  A    between atoms: C_23  and  O_24
REMARK   11  A    between atoms: O_24  and  C_25
REMARK   12  A    between atoms: C_26  and  O_27
REMARK   13  A    between atoms: O_27  and  C_28
REMARK                            x       y       z     vdW  Elec       q    Type
REMARK                         _______ _______ _______ _____ _____    ______ ____
ROOT
ATOM      1  C   UNL     1      -0.376  11.786  19.916  0.00  0.00    +0.000 A 
ATOM      2  N   UNL     1      -1.742  11.943  19.923  0.00  0.00    +0.000 N 
ATOM      3  C   UNL     1      -2.307  11.394  18.800  0.00  0.00    +0.000 A 
ATOM      4  C   UNL     1      -3.642  11.370  18.380  0.00  0.00    +0.000 A 
ATOM      5  C   UNL     1      -3.944  10.709  17.182  0.00  0.00    +0.000 A 
ATOM      6  C   UNL     1      -2.953  10.057  16.456  0.00  0.00    +0.000 A 
ATOM      7  C   UNL     1      -1.635  10.058  16.926  0.00  0.00    +0.000 A 
ATOM      8  C   UNL     1      -1.280  10.779  18.087  0.00  0.00    +0.000 A 
ATOM      9  C   UNL     1      -0.048  11.044  18.783  0.00  0.00    +0.000 A 
ATOM     10  H   UNL     1      -2.252  12.412  20.661  0.00  0.00    +0.000 HD
ENDROOT
BRANCH   1  11
ATOM     11  C   UNL     1       0.491  12.298  20.951  0.00  0.00    +0.000 C 
ATOM     12  O   UNL     1       0.980  13.417  20.997  0.00  0.00    +0.000 OA
BRANCH  11  13
ATOM     13  O   UNL     1       0.703  11.310  21.867  0.00  0.00    +0.000 OA
BRANCH  13  15
ATOM     14  C   UNL     1      -0.210   9.547  23.205  0.00  0.00    +0.000 C 
ATOM     15  C   UNL     1      -0.458  10.928  22.620  0.00  0.00    +0.000 C 
ENDBRANCH  13  15
ENDBRANCH  11  13
ENDBRANCH   1  11
BRANCH   6  16
ATOM     16  O   UNL     1      -3.115   9.385  15.277  0.00  0.00    +0.000 OA
ATOM     17  C   UNL     1      -3.373  10.160  14.114  0.00  0.00    +0.000 C 
ENDBRANCH   6  16
BRANCH   9  18
ATOM     18  C   UNL     1       1.307  10.571  18.478  0.00  0.00    +0.000 C 
ATOM     19  O   UNL     1       2.178  11.330  18.066  0.00  0.00    +0.000 OA
BRANCH  18  20
ATOM     20  C   UNL     1       1.684   9.164  18.774  0.00  0.00    +0.000 A 
ATOM     21  C   UNL     1       1.343   8.530  19.971  0.00  0.00    +0.000 A 
ATOM     22  C   UNL     1       1.866   7.267  20.264  0.00  0.00    +0.000 A 
ATOM     23  C   UNL     1       2.671   6.588  19.334  0.00  0.00    +0.000 A 
ATOM     24  C   UNL     1       2.945   7.206  18.091  0.00  0.00    +0.000 A 
ATOM     25  C   UNL     1       2.454   8.486  17.823  0.00  0.00    +0.000 A 
BRANCH  22  26
ATOM     26  O   UNL     1       1.588   6.739  21.497  0.00  0.00    +0.000 OA
ATOM     27  H   UNL     1       1.866   5.808  21.523  0.00  0.00    +0.000 HD
ENDBRANCH  22  26
BRANCH  23  28
ATOM     28  O   UNL     1       3.256   5.357  19.492  0.00  0.00    +0.000 OA
ATOM     29  C   UNL     1       2.464   4.190  19.349  0.00  0.00    +0.000 C 
ENDBRANCH  23  28
BRANCH  24  30
ATOM     30  O   UNL     1       3.728   6.492  17.213  0.00  0.00    +0.000 OA
ATOM     31  C   UNL     1       5.074   6.913  17.036  0.00  0.00    +0.000 C 
ENDBRANCH  24  30
ENDBRANCH  18  20
ENDBRANCH   9  18
TORSDOF 9
ENDMDL
MODEL 9
REMARK VINA RESULT:      -6.8      2.769      5.881
REMARK  Name = 
REMARK  13 active torsions:
REMARK  status: ('A' for Active; 'I' for Inactive)
REMARK    1  A    between atoms: C_1  and  C_2
REMARK    2  A    between atoms: C_2  and  O_3
REMARK    3  A    between atoms: O_3  and  C_4
REMARK    4  A    between atoms: C_4  and  C_6
REMARK    5  A    between atoms: C_11  and  O_12
REMARK    6  A    between atoms: O_12  and  C_13
REMARK    7  A    between atoms: C_16  and  C_17
REMARK    8  A    between atoms: C_17  and  C_19
REMARK    9  A    between atoms: C_21  and  O_22
REMARK   10  A    between atoms: C_23  and  O_24
REMARK   11  A    between atoms: O_24  and  C_25
REMARK   12  A    between atoms: C_26  and  O_27
REMARK   13  A    between atoms: O_27  and  C_28
REMARK                            x       y       z     vdW  Elec       q    Type
REMARK                         _______ _______ _______ _____ _____    ______ ____
ROOT
ATOM      1  C   UNL     1       7.001   5.734  15.856  0.00  0.00    +0.000 A 
ATOM      2  N   UNL     1       7.763   5.294  14.799  0.00  0.00    +0.000 N 
ATOM      3  C   UNL     1       6.992   4.629  13.879  0.00  0.00    +0.000 A 
ATOM      4  C   UNL     1       7.358   3.982  12.693  0.00  0.00    +0.000 A 
ATOM      5  C   UNL     1       6.345   3.395  11.923  0.00  0.00    +0.000 A 
ATOM      6  C   UNL     1       5.011   3.492  12.304  0.00  0.00    +0.000 A 
ATOM      7  C   UNL     1       4.672   4.186  13.470  0.00  0.00    +0.000 A 
ATOM      8  C   UNL     1       5.671   4.723  14.311  0.00  0.00    +0.000 A 
ATOM      9  C   UNL     1       5.675   5.406  15.578  0.00  0.00    +0.000 A 
ATOM     10  H   UNL     1       8.762   5.439  14.725  0.00  0.00    +0.000 HD
ENDROOT
BRANCH   1  11
ATOM     11  C   UNL     1       7.546   6.432  16.996  0.00  0.00    +0.000 C 
ATOM     12  O   UNL     1       7.578   7.643  17.156  0.00  0.00    +0.000 OA
BRANCH  11  13
ATOM     13  O   UNL     1       8.052   5.511  17.866  0.00  0.00    +0.000 OA
BRANCH  13  15
ATOM     14  C   UNL     1       6.432   5.347  19.621  0.00  0.00    +0.000 C 
ATOM     15  C   UNL     1       7.833   5.808  19.253  0.00  0.00    +0.000 C 
ENDBRANCH  13  15
ENDBRANCH  11  13
ENDBRANCH   1  11
BRANCH   6  16
ATOM     16  O   UNL     1       3.935   2.962  11.647  0.00  0.00    +0.000 OA
ATOM     17  C   UNL     1       3.499   3.625  10.468  0.00  0.00    +0.000 C 
ENDBRANCH   6  16
BRANCH   9  18
ATOM     18  C   UNL     1       4.540   5.809  16.416  0.00  0.00    +0.000 C 
ATOM     19  O   UNL     1       4.000   6.903  16.289  0.00  0.00    +0.000 OA
BRANCH  18  20
ATOM     20  C   UNL     1       3.946   4.839  17.374  0.00  0.00    +0.000 A 
ATOM     21  C   UNL     1       4.289   3.486  17.383  0.00  0.00    +0.000 A 
ATOM     22  C   UNL     1       3.577   2.592  18.191  0.00  0.00    +0.000 A 
ATOM     23  C   UNL     1       2.569   3.050  19.055  0.00  0.00    +0.000 A 
ATOM     24  C   UNL     1       2.284   4.435  19.096  0.00  0.00    +0.000 A 
ATOM     25  C   UNL     1       2.970   5.316  18.255  0.00  0.00    +0.000 A 
BRANCH  22  26
ATOM     26  O   UNL     1       3.882   1.262  18.080  0.00  0.00    +0.000 OA
ATOM     27  H   UNL     1       4.717   1.079  18.543  0.00  0.00    +0.000 HD
ENDBRANCH  22  26
BRANCH  23  28
ATOM     28  O   UNL     1       1.789   2.289  19.890  0.00  0.00    +0.000 OA
ATOM     29  C   UNL     1       2.090   2.250  21.274  0.00  0.00    +0.000 C 
ENDBRANCH  23  28
BRANCH  24  30
ATOM     30  O   UNL     1       1.297   4.830  19.969  0.00  0.00    +0.000 OA
ATOM     31  C   UNL     1       1.535   5.990  20.754  0.00  0.00    +0.000 C 
ENDBRANCH  24  30
ENDBRANCH  18  20
ENDBRANCH   9  18
TORSDOF 9
ENDMDL
