MODEL 1
REMARK VINA RESULT:      -7.2      0.000      0.000
REMARK  Name = 
REMARK  4 active torsions:
REMARK  status: ('A' for Active; 'I' for Inactive)
REMARK    1  A    between atoms: C_1  and  N_2
REMARK    2  A    between atoms: N_2  and  C_3
REMARK    3  A    between atoms: C_5  and  C_6
REMARK    4  A    between atoms: C_17  and  C_18
REMARK                            x       y       z     vdW  Elec       q    Type
REMARK                         _______ _______ _______ _____ _____    ______ ____
ROOT
ATOM      1  C   UNL     1       6.566   6.178  16.835  0.00  0.00    +0.000 A 
ATOM      2  O   UNL     1       5.803   6.355  17.957  0.00  0.00    +0.000 OA
ATOM      3  C   UNL     1       4.768   5.467  17.821  0.00  0.00    +0.000 A 
ATOM      4  N   UNL     1       4.804   4.767  16.701  0.00  0.00    +0.000 NA
ATOM      5  C   UNL     1       5.937   5.220  16.070  0.00  0.00    +0.000 A 
ENDROOT
BRANCH   3   6
ATOM      6  C   UNL     1       3.696   5.495  18.824  0.00  0.00    +0.000 A 
ATOM      7  C   UNL     1       2.911   6.669  18.844  0.00  0.00    +0.000 A 
ATOM      8  C   UNL     1       1.906   6.859  19.785  0.00  0.00    +0.000 A 
ATOM      9  C   UNL     1       1.661   5.871  20.728  0.00  0.00    +0.000 A 
ATOM     10  C   UNL     1       2.398   4.676  20.720  0.00  0.00    +0.000 A 
ATOM     11  C   UNL     1       2.133   3.675  21.660  0.00  0.00    +0.000 A 
ATOM     12  N   UNL     1       2.765   2.484  21.714  0.00  0.00    +0.000 NA
ATOM     13  C   UNL     1       3.706   2.269  20.781  0.00  0.00    +0.000 A 
ATOM     14  C   UNL     1       4.056   3.194  19.805  0.00  0.00    +0.000 A 
ATOM     15  C   UNL     1       3.416   4.454  19.759  0.00  0.00    +0.000 A 
ENDBRANCH   3   6
BRANCH   1  17
ATOM     16  C   UNL     1       7.836   8.122  17.582  0.00  0.00    +0.000 C 
ATOM     17  N   UNL     1       7.674   6.946  16.753  0.00  0.00    +0.000 N 
ATOM     18  H   UNL     1       8.161   6.975  15.860  0.00  0.00    +0.000 HD
ENDBRANCH   1  17
BRANCH   5  19
ATOM     19  C   UNL     1       6.317   4.731  14.787  0.00  0.00    +0.000 C 
ATOM     20  N   UNL     1       6.629   4.359  13.731  0.00  0.00    +0.000 NA
ENDBRANCH   5  19
TORSDOF 3
ENDMDL
MODEL 2
REMARK VINA RESULT:      -6.9      2.049      2.782
REMARK  Name = 
REMARK  4 active torsions:
REMARK  status: ('A' for Active; 'I' for Inactive)
REMARK    1  A    between atoms: C_1  and  N_2
REMARK    2  A    between atoms: N_2  and  C_3
REMARK    3  A    between atoms: C_5  and  C_6
REMARK    4  A    between atoms: C_17  and  C_18
REMARK                            x       y       z     vdW  Elec       q    Type
REMARK                         _______ _______ _______ _____ _____    ______ ____
ROOT
ATOM      1  C   UNL     1       6.908   4.498  17.567  0.00  0.00    +0.000 A 
ATOM      2  O   UNL     1       5.917   4.073  18.408  0.00  0.00    +0.000 OA
ATOM      3  C   UNL     1       4.848   3.817  17.590  0.00  0.00    +0.000 A 
ATOM      4  N   UNL     1       5.077   4.066  16.312  0.00  0.00    +0.000 NA
ATOM      5  C   UNL     1       6.379   4.505  16.294  0.00  0.00    +0.000 A 
ENDROOT
BRANCH   3   6
ATOM      6  C   UNL     1       3.571   3.449  18.214  0.00  0.00    +0.000 A 
ATOM      7  C   UNL     1       3.088   2.159  17.901  0.00  0.00    +0.000 A 
ATOM      8  C   UNL     1       1.861   1.706  18.369  0.00  0.00    +0.000 A 
ATOM      9  C   UNL     1       1.087   2.537  19.167  0.00  0.00    +0.000 A 
ATOM     10  C   UNL     1       1.548   3.813  19.527  0.00  0.00    +0.000 A 
ATOM     11  C   UNL     1       0.774   4.638  20.349  0.00  0.00    +0.000 A 
ATOM     12  N   UNL     1       1.142   5.866  20.772  0.00  0.00    +0.000 NA
ATOM     13  C   UNL     1       2.347   6.297  20.367  0.00  0.00    +0.000 A 
ATOM     14  C   UNL     1       3.195   5.565  19.545  0.00  0.00    +0.000 A 
ATOM     15  C   UNL     1       2.804   4.289  19.076  0.00  0.00    +0.000 A 
ENDBRANCH   3   6
BRANCH   1  17
ATOM     16  C   UNL     1       8.161   5.732  19.257  0.00  0.00    +0.000 C 
ATOM     17  N   UNL     1       8.088   4.797  18.154  0.00  0.00    +0.000 N 
ATOM     18  H   UNL     1       8.927   4.734  17.582  0.00  0.00    +0.000 HD
ENDBRANCH   1  17
BRANCH   5  19
ATOM     19  C   UNL     1       7.004   4.920  15.084  0.00  0.00    +0.000 C 
ATOM     20  N   UNL     1       7.531   5.276  14.111  0.00  0.00    +0.000 NA
ENDBRANCH   5  19
TORSDOF 3
ENDMDL
MODEL 3
REMARK VINA RESULT:      -6.8      1.784      3.321
REMARK  Name = 
REMARK  4 active torsions:
REMARK  status: ('A' for Active; 'I' for Inactive)
REMARK    1  A    between atoms: C_1  and  N_2
REMARK    2  A    between atoms: N_2  and  C_3
REMARK    3  A    between atoms: C_5  and  C_6
REMARK    4  A    between atoms: C_17  and  C_18
REMARK                            x       y       z     vdW  Elec       q    Type
REMARK                         _______ _______ _______ _____ _____    ______ ____
ROOT
ATOM      1  C   UNL     1       6.780   5.453  16.196  0.00  0.00    +0.000 A 
ATOM      2  O   UNL     1       5.798   4.517  16.369  0.00  0.00    +0.000 OA
ATOM      3  C   UNL     1       5.102   4.938  17.473  0.00  0.00    +0.000 A 
ATOM      4  N   UNL     1       5.579   6.043  18.019  0.00  0.00    +0.000 NA
ATOM      5  C   UNL     1       6.646   6.369  17.218  0.00  0.00    +0.000 A 
ENDROOT
BRANCH   3   6
ATOM      6  C   UNL     1       4.040   4.069  17.993  0.00  0.00    +0.000 A 
ATOM      7  C   UNL     1       4.035   2.747  17.496  0.00  0.00    +0.000 A 
ATOM      8  C   UNL     1       3.047   1.837  17.853  0.00  0.00    +0.000 A 
ATOM      9  C   UNL     1       2.038   2.231  18.720  0.00  0.00    +0.000 A 
ATOM     10  C   UNL     1       2.028   3.527  19.262  0.00  0.00    +0.000 A 
ATOM     11  C   UNL     1       1.022   3.912  20.153  0.00  0.00    +0.000 A 
ATOM     12  N   UNL     1       0.942   5.122  20.746  0.00  0.00    +0.000 NA
ATOM     13  C   UNL     1       1.917   5.994  20.448  0.00  0.00    +0.000 A 
ATOM     14  C   UNL     1       2.961   5.722  19.572  0.00  0.00    +0.000 A 
ATOM     15  C   UNL     1       3.035   4.466  18.926  0.00  0.00    +0.000 A 
ENDBRANCH   3   6
BRANCH   1  17
ATOM     16  C   UNL     1       7.080   4.788  13.868  0.00  0.00    +0.000 C 
ATOM     17  N   UNL     1       7.596   5.258  15.137  0.00  0.00    +0.000 N 
ATOM     18  H   UNL     1       8.565   5.014  15.329  0.00  0.00    +0.000 HD
ENDBRANCH   1  17
BRANCH   5  19
ATOM     19  C   UNL     1       7.465   7.499  17.498  0.00  0.00    +0.000 C 
ATOM     20  N   UNL     1       8.147   8.407  17.749  0.00  0.00    +0.000 NA
ENDBRANCH   5  19
TORSDOF 3
ENDMDL
MODEL 4
REMARK VINA RESULT:      -6.8      3.605      5.814
REMARK  Name = 
REMARK  4 active torsions:
REMARK  status: ('A' for Active; 'I' for Inactive)
REMARK    1  A    between atoms: C_1  and  N_2
REMARK    2  A    between atoms: N_2  and  C_3
REMARK    3  A    between atoms: C_5  and  C_6
REMARK    4  A    between atoms: C_17  and  C_18
REMARK                            x       y       z     vdW  Elec       q    Type
REMARK                         _______ _______ _______ _____ _____    ______ ____
ROOT
ATOM      1  C   UNL     1       1.290   9.353  18.780  0.00  0.00    +0.000 A 
ATOM      2  O   UNL     1       1.860   8.463  17.912  0.00  0.00    +0.000 OA
ATOM      3  C   UNL     1       2.297   7.432  18.703  0.00  0.00    +0.000 A 
ATOM      4  N   UNL     1       2.070   7.610  19.992  0.00  0.00    +0.000 NA
ATOM      5  C   UNL     1       1.439   8.830  20.047  0.00  0.00    +0.000 A 
ENDROOT
BRANCH   3   6
ATOM      6  C   UNL     1       3.069   6.355  18.071  0.00  0.00    +0.000 A 
ATOM      7  C   UNL     1       4.224   6.765  17.368  0.00  0.00    +0.000 A 
ATOM      8  C   UNL     1       5.011   5.859  16.667  0.00  0.00    +0.000 A 
ATOM      9  C   UNL     1       4.660   4.517  16.657  0.00  0.00    +0.000 A 
ATOM     10  C   UNL     1       3.539   4.066  17.371  0.00  0.00    +0.000 A 
ATOM     11  C   UNL     1       3.202   2.709  17.376  0.00  0.00    +0.000 A 
ATOM     12  N   UNL     1       2.163   2.176  18.053  0.00  0.00    +0.000 NA
ATOM     13  C   UNL     1       1.423   3.033  18.773  0.00  0.00    +0.000 A 
ATOM     14  C   UNL     1       1.661   4.401  18.836  0.00  0.00    +0.000 A 
ATOM     15  C   UNL     1       2.732   4.969  18.107  0.00  0.00    +0.000 A 
ENDBRANCH   3   6
BRANCH   1  17
ATOM     16  C   UNL     1      -0.553  10.940  18.594  0.00  0.00    +0.000 C 
ATOM     17  N   UNL     1       0.762  10.463  18.220  0.00  0.00    +0.000 N 
ATOM     18  H   UNL     1       1.055  10.697  17.274  0.00  0.00    +0.000 HD
ENDBRANCH   1  17
BRANCH   5  19
ATOM     19  C   UNL     1       1.055   9.410  21.289  0.00  0.00    +0.000 C 
ATOM     20  N   UNL     1       0.714   9.881  22.295  0.00  0.00    +0.000 NA
ENDBRANCH   5  19
TORSDOF 3
ENDMDL
MODEL 5
REMARK VINA RESULT:      -6.8      1.597      2.601
REMARK  Name = 
REMARK  4 active torsions:
REMARK  status: ('A' for Active; 'I' for Inactive)
REMARK    1  A    between atoms: C_1  and  N_2
REMARK    2  A    between atoms: N_2  and  C_3
REMARK    3  A    between atoms: C_5  and  C_6
REMARK    4  A    between atoms: C_17  and  C_18
REMARK                            x       y       z     vdW  Elec       q    Type
REMARK                         _______ _______ _______ _____ _____    ______ ____
ROOT
ATOM      1  C   UNL     1       6.490   5.253  16.324  0.00  0.00    +0.000 A 
ATOM      2  O   UNL     1       5.742   5.041  17.449  0.00  0.00    +0.000 OA
ATOM      3  C   UNL     1       4.871   4.038  17.107  0.00  0.00    +0.000 A 
ATOM      4  N   UNL     1       4.995   3.621  15.859  0.00  0.00    +0.000 NA
ATOM      5  C   UNL     1       6.015   4.393  15.358  0.00  0.00    +0.000 A 
ENDROOT
BRANCH   3   6
ATOM      6  C   UNL     1       3.840   3.656  18.080  0.00  0.00    +0.000 A 
ATOM      7  C   UNL     1       3.566   2.273  18.166  0.00  0.00    +0.000 A 
ATOM      8  C   UNL     1       2.568   1.777  18.996  0.00  0.00    +0.000 A 
ATOM      9  C   UNL     1       1.820   2.658  19.763  0.00  0.00    +0.000 A 
ATOM     10  C   UNL     1       2.085   4.036  19.730  0.00  0.00    +0.000 A 
ATOM     11  C   UNL     1       1.342   4.918  20.522  0.00  0.00    +0.000 A 
ATOM     12  N   UNL     1       1.540   6.252  20.581  0.00  0.00    +0.000 NA
ATOM     13  C   UNL     1       2.534   6.738  19.820  0.00  0.00    +0.000 A 
ATOM     14  C   UNL     1       3.329   5.957  18.991  0.00  0.00    +0.000 A 
ATOM     15  C   UNL     1       3.110   4.562  18.905  0.00  0.00    +0.000 A 
ENDBRANCH   3   6
BRANCH   1  17
ATOM     16  C   UNL     1       7.420   7.182  17.492  0.00  0.00    +0.000 C 
ATOM     17  N   UNL     1       7.447   6.201  16.428  0.00  0.00    +0.000 N 
ATOM     18  H   UNL     1       7.903   6.504  15.570  0.00  0.00    +0.000 HD
ENDBRANCH   1  17
BRANCH   5  19
ATOM     19  C   UNL     1       6.436   4.275  14.002  0.00  0.00    +0.000 C 
ATOM     20  N   UNL     1       6.771   4.151  12.896  0.00  0.00    +0.000 NA
ENDBRANCH   5  19
TORSDOF 3
ENDMDL
MODEL 6
REMARK VINA RESULT:      -6.8      3.173      6.021
REMARK  Name = 
REMARK  4 active torsions:
REMARK  status: ('A' for Active; 'I' for Inactive)
REMARK    1  A    between atoms: C_1  and  N_2
REMARK    2  A    between atoms: N_2  and  C_3
REMARK    3  A    between atoms: C_5  and  C_6
REMARK    4  A    between atoms: C_17  and  C_18
REMARK                            x       y       z     vdW  Elec       q    Type
REMARK                         _______ _______ _______ _____ _____    ______ ____
ROOT
ATOM      1  C   UNL     1       1.748   8.196  20.218  0.00  0.00    +0.000 A 
ATOM      2  O   UNL     1       2.358   7.004  19.938  0.00  0.00    +0.000 OA
ATOM      3  C   UNL     1       2.650   7.065  18.600  0.00  0.00    +0.000 A 
ATOM      4  N   UNL     1       2.255   8.182  18.014  0.00  0.00    +0.000 NA
ATOM      5  C   UNL     1       1.677   8.899  19.034  0.00  0.00    +0.000 A 
ENDROOT
BRANCH   3   6
ATOM      6  C   UNL     1       3.213   5.870  17.960  0.00  0.00    +0.000 A 
ATOM      7  C   UNL     1       2.337   4.768  17.848  0.00  0.00    +0.000 A 
ATOM      8  C   UNL     1       2.757   3.552  17.324  0.00  0.00    +0.000 A 
ATOM      9  C   UNL     1       4.069   3.412  16.895  0.00  0.00    +0.000 A 
ATOM     10  C   UNL     1       4.961   4.495  16.958  0.00  0.00    +0.000 A 
ATOM     11  C   UNL     1       6.276   4.355  16.504  0.00  0.00    +0.000 A 
ATOM     12  N   UNL     1       7.196   5.342  16.497  0.00  0.00    +0.000 NA
ATOM     13  C   UNL     1       6.789   6.536  16.957  0.00  0.00    +0.000 A 
ATOM     14  C   UNL     1       5.510   6.786  17.438  0.00  0.00    +0.000 A 
ATOM     15  C   UNL     1       4.549   5.749  17.473  0.00  0.00    +0.000 A 
ENDBRANCH   3   6
BRANCH   1  17
ATOM     16  C   UNL     1       0.001   8.642  21.861  0.00  0.00    +0.000 C 
ATOM     17  N   UNL     1       1.380   8.378  21.505  0.00  0.00    +0.000 N 
ATOM     18  H   UNL     1       2.074   8.761  22.143  0.00  0.00    +0.000 HD
ENDBRANCH   1  17
BRANCH   5  19
ATOM     19  C   UNL     1       1.082  10.171  18.801  0.00  0.00    +0.000 C 
ATOM     20  N   UNL     1       0.622  11.222  18.617  0.00  0.00    +0.000 NA
ENDBRANCH   5  19
TORSDOF 3
ENDMDL
MODEL 7
REMARK VINA RESULT:      -6.7      3.342      6.022
REMARK  Name = 
REMARK  4 active torsions:
REMARK  status: ('A' for Active; 'I' for Inactive)
REMARK    1  A    between atoms: C_1  and  N_2
REMARK    2  A    between atoms: N_2  and  C_3
REMARK    3  A    between atoms: C_5  and  C_6
REMARK    4  A    between atoms: C_17  and  C_18
REMARK                            x       y       z     vdW  Elec       q    Type
REMARK                         _______ _______ _______ _____ _____    ______ ____
ROOT
ATOM      1  C   UNL     1       3.420   4.850  19.759  0.00  0.00    +0.000 A 
ATOM      2  O   UNL     1       3.313   6.134  19.299  0.00  0.00    +0.000 OA
ATOM      3  C   UNL     1       2.255   6.667  19.989  0.00  0.00    +0.000 A 
ATOM      4  N   UNL     1       1.677   5.821  20.823  0.00  0.00    +0.000 NA
ATOM      5  C   UNL     1       2.407   4.666  20.675  0.00  0.00    +0.000 A 
ENDROOT
BRANCH   3   6
ATOM      6  C   UNL     1       1.805   8.018  19.631  0.00  0.00    +0.000 A 
ATOM      7  C   UNL     1       2.032   8.400  18.290  0.00  0.00    +0.000 A 
ATOM      8  C   UNL     1       1.717   9.673  17.831  0.00  0.00    +0.000 A 
ATOM      9  C   UNL     1       1.164  10.596  18.707  0.00  0.00    +0.000 A 
ATOM     10  C   UNL     1       0.893  10.243  20.039  0.00  0.00    +0.000 A 
ATOM     11  C   UNL     1       0.316  11.170  20.913  0.00  0.00    +0.000 A 
ATOM     12  N   UNL     1      -0.007  10.917  22.198  0.00  0.00    +0.000 NA
ATOM     13  C   UNL     1       0.247   9.675  22.641  0.00  0.00    +0.000 A 
ATOM     14  C   UNL     1       0.824   8.678  21.864  0.00  0.00    +0.000 A 
ATOM     15  C   UNL     1       1.190   8.944  20.524  0.00  0.00    +0.000 A 
ENDBRANCH   3   6
BRANCH   1  17
ATOM     16  C   UNL     1       4.198   3.237  18.103  0.00  0.00    +0.000 C 
ATOM     17  N   UNL     1       4.425   4.119  19.229  0.00  0.00    +0.000 N 
ATOM     18  H   UNL     1       5.185   3.847  19.847  0.00  0.00    +0.000 HD
ENDBRANCH   1  17
BRANCH   5  19
ATOM     19  C   UNL     1       2.072   3.481  21.390  0.00  0.00    +0.000 C 
ATOM     20  N   UNL     1       1.771   2.515  21.962  0.00  0.00    +0.000 NA
ENDBRANCH   5  19
TORSDOF 3
ENDMDL
MODEL 8
REMARK VINA RESULT:      -6.7      3.182      6.178
REMARK  Name = 
REMARK  4 active torsions:
REMARK  status: ('A' for Active; 'I' for Inactive)
REMARK    1  A    between atoms: C_1  and  N_2
REMARK    2  A    between atoms: N_2  and  C_3
REMARK    3  A    between atoms: C_5  and  C_6
REMARK    4  A    between atoms: C_17  and  C_18
REMARK                            x       y       z     vdW  Elec       q    Type
REMARK                         _______ _______ _______ _____ _____    ______ ____
ROOT
ATOM      1  C   UNL     1       1.529   8.909  18.699  0.00  0.00    +0.000 A 
ATOM      2  O   UNL     1       2.048   8.004  17.814  0.00  0.00    +0.000 OA
ATOM      3  C   UNL     1       2.484   6.963  18.591  0.00  0.00    +0.000 A 
ATOM      4  N   UNL     1       2.304   7.148  19.887  0.00  0.00    +0.000 NA
ATOM      5  C   UNL     1       1.706   8.383  19.960  0.00  0.00    +0.000 A 
ENDROOT
BRANCH   3   6
ATOM      6  C   UNL     1       3.209   5.867  17.936  0.00  0.00    +0.000 A 
ATOM      7  C   UNL     1       2.489   4.661  17.792  0.00  0.00    +0.000 A 
ATOM      8  C   UNL     1       3.073   3.522  17.251  0.00  0.00    +0.000 A 
ATOM      9  C   UNL     1       4.397   3.567  16.837  0.00  0.00    +0.000 A 
ATOM     10  C   UNL     1       5.135   4.757  16.933  0.00  0.00    +0.000 A 
ATOM     11  C   UNL     1       6.462   4.803  16.494  0.00  0.00    +0.000 A 
ATOM     12  N   UNL     1       7.242   5.904  16.518  0.00  0.00    +0.000 NA
ATOM     13  C   UNL     1       6.675   7.023  16.994  0.00  0.00    +0.000 A 
ATOM     14  C   UNL     1       5.369   7.091  17.463  0.00  0.00    +0.000 A 
ATOM     15  C   UNL     1       4.554   5.935  17.465  0.00  0.00    +0.000 A 
ENDBRANCH   3   6
BRANCH   1  17
ATOM     16  C   UNL     1      -0.415  10.287  18.178  0.00  0.00    +0.000 C 
ATOM     17  N   UNL     1       1.010  10.031  18.154  0.00  0.00    +0.000 N 
ATOM     18  H   UNL     1       1.514  10.453  17.378  0.00  0.00    +0.000 HD
ENDBRANCH   1  17
BRANCH   5  19
ATOM     19  C   UNL     1       1.377   8.973  21.214  0.00  0.00    +0.000 C 
ATOM     20  N   UNL     1       1.134   9.448  22.246  0.00  0.00    +0.000 NA
ENDBRANCH   5  19
TORSDOF 3
ENDMDL
MODEL 9
REMARK VINA RESULT:      -6.7      3.523      5.683
REMARK  Name = 
REMARK  4 active torsions:
REMARK  status: ('A' for Active; 'I' for Inactive)
REMARK    1  A    between atoms: C_1  and  N_2
REMARK    2  A    between atoms: N_2  and  C_3
REMARK    3  A    between atoms: C_5  and  C_6
REMARK    4  A    between atoms: C_17  and  C_18
REMARK                            x       y       z     vdW  Elec       q    Type
REMARK                         _______ _______ _______ _____ _____    ______ ____
ROOT
ATOM      1  C   UNL     1       1.498   8.519  20.273  0.00  0.00    +0.000 A 
ATOM      2  O   UNL     1       2.231   7.393  20.014  0.00  0.00    +0.000 OA
ATOM      3  C   UNL     1       2.460   7.426  18.662  0.00  0.00    +0.000 A 
ATOM      4  N   UNL     1       1.913   8.462  18.050  0.00  0.00    +0.000 NA
ATOM      5  C   UNL     1       1.297   9.153  19.066  0.00  0.00    +0.000 A 
ENDROOT
BRANCH   3   6
ATOM      6  C   UNL     1       3.132   6.276  18.046  0.00  0.00    +0.000 A 
ATOM      7  C   UNL     1       4.294   6.576  17.302  0.00  0.00    +0.000 A 
ATOM      8  C   UNL     1       4.992   5.593  16.611  0.00  0.00    +0.000 A 
ATOM      9  C   UNL     1       4.542   4.281  16.652  0.00  0.00    +0.000 A 
ATOM     10  C   UNL     1       3.410   3.938  17.408  0.00  0.00    +0.000 A 
ATOM     11  C   UNL     1       2.972   2.611  17.464  0.00  0.00    +0.000 A 
ATOM     12  N   UNL     1       1.916   2.179  18.184  0.00  0.00    +0.000 NA
ATOM     13  C   UNL     1       1.261   3.110  18.895  0.00  0.00    +0.000 A 
ATOM     14  C   UNL     1       1.603   4.457  18.908  0.00  0.00    +0.000 A 
ATOM     15  C   UNL     1       2.693   4.921  18.135  0.00  0.00    +0.000 A 
ENDBRANCH   3   6
BRANCH   1  17
ATOM     16  C   UNL     1      -0.221   8.815  21.978  0.00  0.00    +0.000 C 
ATOM     17  N   UNL     1       1.164   8.716  21.567  0.00  0.00    +0.000 N 
ATOM     18  H   UNL     1       1.827   9.219  22.152  0.00  0.00    +0.000 HD
ENDBRANCH   1  17
BRANCH   5  19
ATOM     19  C   UNL     1       0.549  10.337  18.808  0.00  0.00    +0.000 C 
ATOM     20  N   UNL     1      -0.049  11.316  18.621  0.00  0.00    +0.000 NA
ENDBRANCH   5  19
TORSDOF 3
ENDMDL
