MODEL 1
REMARK VINA RESULT:      -8.0      0.000      0.000
REMARK  Name = 
REMARK  6 active torsions:
REMARK  status: ('A' for Active; 'I' for Inactive)
REMARK    1  A    between atoms: C_1  and  C_2
REMARK    2  A    between atoms: C_2  and  N_3
REMARK    3  A    between atoms: C_4  and  C_6
REMARK    4  A    between atoms: C_6  and  C_7
REMARK    5  A    between atoms: C_12  and  C_14
REMARK    6  A    between atoms: C_19  and  C_20
REMARK                            x       y       z     vdW  Elec       q    Type
REMARK                         _______ _______ _______ _____ _____    ______ ____
ROOT
ATOM      1  C   UNL     1       2.402   4.498  19.970  0.00  0.00    +0.000 C 
ATOM      2  C   UNL     1       2.451   4.310  21.504  0.00  0.00    +0.000 C 
ATOM      3  C   UNL     1       1.199   3.699  19.412  0.00  0.00    +0.000 C 
ATOM      4  C   UNL     1       1.232   3.478  17.894  0.00  0.00    +0.000 C 
ATOM      5  C   UNL     1       2.608   3.056  17.373  0.00  0.00    +0.000 C 
ATOM      6  N   UNL     1       3.672   3.904  17.922  0.00  0.00    +0.000 N 
ATOM      7  C   UNL     1       4.673   4.375  17.062  0.00  0.00    +0.000 C 
ATOM      8  O   UNL     1       4.665   4.096  15.861  0.00  0.00    +0.000 OA
ATOM      9  C   UNL     1       3.704   3.917  19.386  0.00  0.00    +0.000 C 
ENDROOT
BRANCH   7  10
ATOM     10  C   UNL     1       5.786   5.260  17.533  0.00  0.00    +0.000 A 
ATOM     11  C   UNL     1       6.017   6.461  16.845  0.00  0.00    +0.000 A 
ATOM     12  C   UNL     1       7.014   7.346  17.270  0.00  0.00    +0.000 A 
ATOM     13  C   UNL     1       7.806   7.024  18.370  0.00  0.00    +0.000 A 
ATOM     14  F   UNL     1       8.769   7.874  18.748  0.00  0.00    +0.000 F 
ATOM     15  C   UNL     1       7.599   5.845  19.076  0.00  0.00    +0.000 A 
ATOM     16  C   UNL     1       8.479   5.426  20.215  0.00  0.00    +0.000 C 
ATOM     17  C   UNL     1       6.557   5.002  18.675  0.00  0.00    +0.000 A 
ENDBRANCH   7  10
BRANCH   1  19
ATOM     18  N   UNL     1       1.729   6.779  20.736  0.00  0.00    +0.000 N 
ATOM     19  C   UNL     1       2.233   6.019  19.701  0.00  0.00    +0.000 C 
ATOM     20  O   UNL     1       2.530   6.530  18.626  0.00  0.00    +0.000 OA
ATOM     21  H   UNL     1       1.470   6.316  21.601  0.00  0.00    +0.000 HD
BRANCH  18  23
ATOM     22  C   UNL     1       1.113   8.803  21.982  0.00  0.00    +0.000 C 
ATOM     23  C   UNL     1       1.609   8.220  20.671  0.00  0.00    +0.000 C 
ENDBRANCH  18  23
ENDBRANCH   1  19
TORSDOF 3
ENDMDL
MODEL 2
REMARK VINA RESULT:      -7.8      0.447      1.448
REMARK  Name = 
REMARK  6 active torsions:
REMARK  status: ('A' for Active; 'I' for Inactive)
REMARK    1  A    between atoms: C_1  and  C_2
REMARK    2  A    between atoms: C_2  and  N_3
REMARK    3  A    between atoms: C_4  and  C_6
REMARK    4  A    between atoms: C_6  and  C_7
REMARK    5  A    between atoms: C_12  and  C_14
REMARK    6  A    between atoms: C_19  and  C_20
REMARK                            x       y       z     vdW  Elec       q    Type
REMARK                         _______ _______ _______ _____ _____    ______ ____
ROOT
ATOM      1  C   UNL     1       2.429   4.575  19.871  0.00  0.00    +0.000 C 
ATOM      2  C   UNL     1       2.410   4.331  21.398  0.00  0.00    +0.000 C 
ATOM      3  C   UNL     1       1.247   3.804  19.233  0.00  0.00    +0.000 C 
ATOM      4  C   UNL     1       1.344   3.638  17.711  0.00  0.00    +0.000 C 
ATOM      5  C   UNL     1       2.739   3.227  17.235  0.00  0.00    +0.000 C 
ATOM      6  N   UNL     1       3.783   4.047  17.859  0.00  0.00    +0.000 N 
ATOM      7  C   UNL     1       4.822   4.543  17.061  0.00  0.00    +0.000 C 
ATOM      8  O   UNL     1       4.864   4.308  15.851  0.00  0.00    +0.000 OA
ATOM      9  C   UNL     1       3.752   4.007  19.323  0.00  0.00    +0.000 C 
ENDROOT
BRANCH   7  10
ATOM     10  C   UNL     1       5.918   5.403  17.611  0.00  0.00    +0.000 A 
ATOM     11  C   UNL     1       6.812   4.834  18.532  0.00  0.00    +0.000 A 
ATOM     12  C   UNL     1       7.881   5.579  19.041  0.00  0.00    +0.000 A 
ATOM     13  C   UNL     1       8.049   6.907  18.655  0.00  0.00    +0.000 A 
ATOM     14  F   UNL     1       9.066   7.610  19.171  0.00  0.00    +0.000 F 
ATOM     15  C   UNL     1       7.185   7.498  17.740  0.00  0.00    +0.000 A 
ATOM     16  C   UNL     1       7.285   8.944  17.359  0.00  0.00    +0.000 C 
ATOM     17  C   UNL     1       6.159   6.719  17.194  0.00  0.00    +0.000 A 
ENDBRANCH   7  10
BRANCH   1  19
ATOM     18  N   UNL     1       1.721   6.828  20.686  0.00  0.00    +0.000 N 
ATOM     19  C   UNL     1       2.278   6.105  19.651  0.00  0.00    +0.000 C 
ATOM     20  O   UNL     1       2.636   6.655  18.614  0.00  0.00    +0.000 OA
ATOM     21  H   UNL     1       1.414   6.334  21.517  0.00  0.00    +0.000 HD
BRANCH  18  23
ATOM     22  C   UNL     1       0.918   8.797  21.915  0.00  0.00    +0.000 C 
ATOM     23  C   UNL     1       1.609   8.271  20.669  0.00  0.00    +0.000 C 
ENDBRANCH  18  23
ENDBRANCH   1  19
TORSDOF 3
ENDMDL
MODEL 3
REMARK VINA RESULT:      -7.4      1.320      1.474
REMARK  Name = 
REMARK  6 active torsions:
REMARK  status: ('A' for Active; 'I' for Inactive)
REMARK    1  A    between atoms: C_1  and  C_2
REMARK    2  A    between atoms: C_2  and  N_3
REMARK    3  A    between atoms: C_4  and  C_6
REMARK    4  A    between atoms: C_6  and  C_7
REMARK    5  A    between atoms: C_12  and  C_14
REMARK    6  A    between atoms: C_19  and  C_20
REMARK                            x       y       z     vdW  Elec       q    Type
REMARK                         _______ _______ _______ _____ _____    ______ ____
ROOT
ATOM      1  C   UNL     1       2.302   3.658  20.461  0.00  0.00    +0.000 C 
ATOM      2  C   UNL     1       2.626   3.492  21.964  0.00  0.00    +0.000 C 
ATOM      3  C   UNL     1       1.134   2.708  20.099  0.00  0.00    +0.000 C 
ATOM      4  C   UNL     1       0.944   2.479  18.594  0.00  0.00    +0.000 C 
ATOM      5  C   UNL     1       2.257   2.231  17.849  0.00  0.00    +0.000 C 
ATOM      6  N   UNL     1       3.281   3.212  18.225  0.00  0.00    +0.000 N 
ATOM      7  C   UNL     1       4.059   3.799  17.218  0.00  0.00    +0.000 C 
ATOM      8  O   UNL     1       3.888   3.511  16.031  0.00  0.00    +0.000 OA
ATOM      9  C   UNL     1       3.553   3.242  19.664  0.00  0.00    +0.000 C 
ENDROOT
BRANCH   7  10
ATOM     10  C   UNL     1       5.113   4.822  17.509  0.00  0.00    +0.000 A 
ATOM     11  C   UNL     1       5.139   5.991  16.733  0.00  0.00    +0.000 A 
ATOM     12  C   UNL     1       6.072   6.999  16.993  0.00  0.00    +0.000 A 
ATOM     13  C   UNL     1       7.007   6.835  18.012  0.00  0.00    +0.000 A 
ATOM     14  F   UNL     1       7.907   7.802  18.231  0.00  0.00    +0.000 F 
ATOM     15  C   UNL     1       7.005   5.691  18.803  0.00  0.00    +0.000 A 
ATOM     16  C   UNL     1       8.041   5.442  19.858  0.00  0.00    +0.000 C 
ATOM     17  C   UNL     1       6.024   4.722  18.570  0.00  0.00    +0.000 A 
ENDBRANCH   7  10
BRANCH   1  19
ATOM     18  N   UNL     1       2.899   6.002  19.837  0.00  0.00    +0.000 N 
ATOM     19  C   UNL     1       1.899   5.143  20.242  0.00  0.00    +0.000 C 
ATOM     20  O   UNL     1       0.751   5.542  20.416  0.00  0.00    +0.000 OA
ATOM     21  H   UNL     1       3.840   5.641  19.730  0.00  0.00    +0.000 HD
BRANCH  18  23
ATOM     22  C   UNL     1       2.328   7.558  18.024  0.00  0.00    +0.000 C 
ATOM     23  C   UNL     1       2.657   7.388  19.497  0.00  0.00    +0.000 C 
ENDBRANCH  18  23
ENDBRANCH   1  19
TORSDOF 3
ENDMDL
MODEL 4
REMARK VINA RESULT:      -6.9      3.012      6.530
REMARK  Name = 
REMARK  6 active torsions:
REMARK  status: ('A' for Active; 'I' for Inactive)
REMARK    1  A    between atoms: C_1  and  C_2
REMARK    2  A    between atoms: C_2  and  N_3
REMARK    3  A    between atoms: C_4  and  C_6
REMARK    4  A    between atoms: C_6  and  C_7
REMARK    5  A    between atoms: C_12  and  C_14
REMARK    6  A    between atoms: C_19  and  C_20
REMARK                            x       y       z     vdW  Elec       q    Type
REMARK                         _______ _______ _______ _____ _____    ______ ____
ROOT
ATOM      1  C   UNL     1       6.648   5.162  17.355  0.00  0.00    +0.000 C 
ATOM      2  C   UNL     1       7.839   4.372  17.947  0.00  0.00    +0.000 C 
ATOM      3  C   UNL     1       7.169   6.524  16.832  0.00  0.00    +0.000 C 
ATOM      4  C   UNL     1       6.072   7.562  16.562  0.00  0.00    +0.000 C 
ATOM      5  C   UNL     1       5.020   7.634  17.671  0.00  0.00    +0.000 C 
ATOM      6  N   UNL     1       4.557   6.298  18.060  0.00  0.00    +0.000 N 
ATOM      7  C   UNL     1       3.184   6.082  18.237  0.00  0.00    +0.000 C 
ATOM      8  O   UNL     1       2.368   6.991  18.064  0.00  0.00    +0.000 OA
ATOM      9  C   UNL     1       5.641   5.413  18.493  0.00  0.00    +0.000 C 
ENDROOT
BRANCH   7  10
ATOM     10  C   UNL     1       2.622   4.746  18.615  0.00  0.00    +0.000 A 
ATOM     11  C   UNL     1       2.348   3.826  17.592  0.00  0.00    +0.000 A 
ATOM     12  C   UNL     1       1.866   2.548  17.893  0.00  0.00    +0.000 A 
ATOM     13  C   UNL     1       1.627   2.189  19.217  0.00  0.00    +0.000 A 
ATOM     14  F   UNL     1       1.144   0.969  19.484  0.00  0.00    +0.000 F 
ATOM     15  C   UNL     1       1.892   3.076  20.255  0.00  0.00    +0.000 A 
ATOM     16  C   UNL     1       1.575   2.757  21.685  0.00  0.00    +0.000 C 
ATOM     17  C   UNL     1       2.434   4.327  19.940  0.00  0.00    +0.000 A 
ENDBRANCH   7  10
BRANCH   1  19
ATOM     18  N   UNL     1       6.487   4.623  14.921  0.00  0.00    +0.000 N 
ATOM     19  C   UNL     1       6.065   4.308  16.195  0.00  0.00    +0.000 C 
ATOM     20  O   UNL     1       5.269   3.394  16.391  0.00  0.00    +0.000 OA
ATOM     21  H   UNL     1       7.125   5.402  14.796  0.00  0.00    +0.000 HD
BRANCH  18  23
ATOM     22  C   UNL     1       6.989   4.184  12.557  0.00  0.00    +0.000 C 
ATOM     23  C   UNL     1       6.111   3.856  13.752  0.00  0.00    +0.000 C 
ENDBRANCH  18  23
ENDBRANCH   1  19
TORSDOF 3
ENDMDL
MODEL 5
REMARK VINA RESULT:      -6.7      1.329      1.993
REMARK  Name = 
REMARK  6 active torsions:
REMARK  status: ('A' for Active; 'I' for Inactive)
REMARK    1  A    between atoms: C_1  and  C_2
REMARK    2  A    between atoms: C_2  and  N_3
REMARK    3  A    between atoms: C_4  and  C_6
REMARK    4  A    between atoms: C_6  and  C_7
REMARK    5  A    between atoms: C_12  and  C_14
REMARK    6  A    between atoms: C_19  and  C_20
REMARK                            x       y       z     vdW  Elec       q    Type
REMARK                         _______ _______ _______ _____ _____    ______ ____
ROOT
ATOM      1  C   UNL     1       2.317   3.665  20.375  0.00  0.00    +0.000 C 
ATOM      2  C   UNL     1       2.487   3.320  21.873  0.00  0.00    +0.000 C 
ATOM      3  C   UNL     1       1.106   2.874  19.821  0.00  0.00    +0.000 C 
ATOM      4  C   UNL     1       1.033   2.813  18.290  0.00  0.00    +0.000 C 
ATOM      5  C   UNL     1       2.382   2.512  17.631  0.00  0.00    +0.000 C 
ATOM      6  N   UNL     1       3.451   3.345  18.191  0.00  0.00    +0.000 N 
ATOM      7  C   UNL     1       4.366   3.949  17.318  0.00  0.00    +0.000 C 
ATOM      8  O   UNL     1       4.278   3.796  16.097  0.00  0.00    +0.000 OA
ATOM      9  C   UNL     1       3.592   3.207  19.642  0.00  0.00    +0.000 C 
ENDROOT
BRANCH   7  10
ATOM     10  C   UNL     1       5.477   4.830  17.800  0.00  0.00    +0.000 A 
ATOM     11  C   UNL     1       6.284   4.368  18.852  0.00  0.00    +0.000 A 
ATOM     12  C   UNL     1       7.363   5.130  19.309  0.00  0.00    +0.000 A 
ATOM     13  C   UNL     1       7.628   6.373  18.740  0.00  0.00    +0.000 A 
ATOM     14  F   UNL     1       8.653   7.098  19.207  0.00  0.00    +0.000 F 
ATOM     15  C   UNL     1       6.851   6.857  17.693  0.00  0.00    +0.000 A 
ATOM     16  C   UNL     1       7.054   8.221  17.106  0.00  0.00    +0.000 C 
ATOM     17  C   UNL     1       5.815   6.053  17.206  0.00  0.00    +0.000 A 
ENDBRANCH   7  10
BRANCH   1  19
ATOM     18  N   UNL     1       3.047   5.944  19.660  0.00  0.00    +0.000 N 
ATOM     19  C   UNL     1       2.070   5.196  20.283  0.00  0.00    +0.000 C 
ATOM     20  O   UNL     1       1.059   5.724  20.737  0.00  0.00    +0.000 OA
ATOM     21  H   UNL     1       3.880   5.475  19.322  0.00  0.00    +0.000 HD
BRANCH  18  23
ATOM     22  C   UNL     1       2.569   7.649  17.958  0.00  0.00    +0.000 C 
ATOM     23  C   UNL     1       2.913   7.363  19.409  0.00  0.00    +0.000 C 
ENDBRANCH  18  23
ENDBRANCH   1  19
TORSDOF 3
ENDMDL
MODEL 6
REMARK VINA RESULT:      -6.7      2.793      6.122
REMARK  Name = 
REMARK  6 active torsions:
REMARK  status: ('A' for Active; 'I' for Inactive)
REMARK    1  A    between atoms: C_1  and  C_2
REMARK    2  A    between atoms: C_2  and  N_3
REMARK    3  A    between atoms: C_4  and  C_6
REMARK    4  A    between atoms: C_6  and  C_7
REMARK    5  A    between atoms: C_12  and  C_14
REMARK    6  A    between atoms: C_19  and  C_20
REMARK                            x       y       z     vdW  Elec       q    Type
REMARK                         _______ _______ _______ _____ _____    ______ ____
ROOT
ATOM      1  C   UNL     1       6.247   5.154  17.464  0.00  0.00    +0.000 C 
ATOM      2  C   UNL     1       7.510   4.707  18.237  0.00  0.00    +0.000 C 
ATOM      3  C   UNL     1       6.671   6.151  16.358  0.00  0.00    +0.000 C 
ATOM      4  C   UNL     1       5.516   6.963  15.757  0.00  0.00    +0.000 C 
ATOM      5  C   UNL     1       4.549   7.510  16.810  0.00  0.00    +0.000 C 
ATOM      6  N   UNL     1       4.171   6.477  17.780  0.00  0.00    +0.000 N 
ATOM      7  C   UNL     1       2.826   6.356  18.151  0.00  0.00    +0.000 C 
ATOM      8  O   UNL     1       1.963   7.095  17.670  0.00  0.00    +0.000 OA
ATOM      9  C   UNL     1       5.320   5.875  18.461  0.00  0.00    +0.000 C 
ENDROOT
BRANCH   7  10
ATOM     10  C   UNL     1       2.348   5.319  19.120  0.00  0.00    +0.000 A 
ATOM     11  C   UNL     1       2.631   5.501  20.483  0.00  0.00    +0.000 A 
ATOM     12  C   UNL     1       2.168   4.586  21.435  0.00  0.00    +0.000 A 
ATOM     13  C   UNL     1       1.444   3.468  21.030  0.00  0.00    +0.000 A 
ATOM     14  F   UNL     1       1.029   2.592  21.955  0.00  0.00    +0.000 F 
ATOM     15  C   UNL     1       1.143   3.260  19.688  0.00  0.00    +0.000 A 
ATOM     16  C   UNL     1       0.436   2.031  19.205  0.00  0.00    +0.000 C 
ATOM     17  C   UNL     1       1.559   4.218  18.757  0.00  0.00    +0.000 A 
ENDBRANCH   7  10
BRANCH   1  19
ATOM     18  N   UNL     1       4.769   3.149  17.661  0.00  0.00    +0.000 N 
ATOM     19  C   UNL     1       5.613   3.877  16.847  0.00  0.00    +0.000 C 
ATOM     20  O   UNL     1       5.842   3.523  15.695  0.00  0.00    +0.000 OA
ATOM     21  H   UNL     1       4.626   3.458  18.616  0.00  0.00    +0.000 HD
BRANCH  18  23
ATOM     22  C   UNL     1       3.713   1.036  18.333  0.00  0.00    +0.000 C 
ATOM     23  C   UNL     1       4.028   1.996  17.198  0.00  0.00    +0.000 C 
ENDBRANCH  18  23
ENDBRANCH   1  19
TORSDOF 3
ENDMDL
MODEL 7
REMARK VINA RESULT:      -6.7      2.455      5.381
REMARK  Name = 
REMARK  6 active torsions:
REMARK  status: ('A' for Active; 'I' for Inactive)
REMARK    1  A    between atoms: C_1  and  C_2
REMARK    2  A    between atoms: C_2  and  N_3
REMARK    3  A    between atoms: C_4  and  C_6
REMARK    4  A    between atoms: C_6  and  C_7
REMARK    5  A    between atoms: C_12  and  C_14
REMARK    6  A    between atoms: C_19  and  C_20
REMARK                            x       y       z     vdW  Elec       q    Type
REMARK                         _______ _______ _______ _____ _____    ______ ____
ROOT
ATOM      1  C   UNL     1       4.606   4.076  17.905  0.00  0.00    +0.000 C 
ATOM      2  C   UNL     1       4.961   3.961  16.404  0.00  0.00    +0.000 C 
ATOM      3  C   UNL     1       4.712   2.670  18.547  0.00  0.00    +0.000 C 
ATOM      4  C   UNL     1       4.039   2.545  19.920  0.00  0.00    +0.000 C 
ATOM      5  C   UNL     1       2.656   3.200  19.978  0.00  0.00    +0.000 C 
ATOM      6  N   UNL     1       2.674   4.544  19.391  0.00  0.00    +0.000 N 
ATOM      7  C   UNL     1       2.019   5.585  20.062  0.00  0.00    +0.000 C 
ATOM      8  O   UNL     1       1.441   5.388  21.134  0.00  0.00    +0.000 OA
ATOM      9  C   UNL     1       3.149   4.564  18.005  0.00  0.00    +0.000 C 
ENDROOT
BRANCH   7  10
ATOM     10  C   UNL     1       2.001   6.991  19.545  0.00  0.00    +0.000 A 
ATOM     11  C   UNL     1       2.583   7.247  18.294  0.00  0.00    +0.000 A 
ATOM     12  C   UNL     1       2.553   8.532  17.744  0.00  0.00    +0.000 A 
ATOM     13  C   UNL     1       1.967   9.578  18.452  0.00  0.00    +0.000 A 
ATOM     14  F   UNL     1       1.968  10.807  17.918  0.00  0.00    +0.000 F 
ATOM     15  C   UNL     1       1.377   9.357  19.692  0.00  0.00    +0.000 A 
ATOM     16  C   UNL     1       0.806  10.469  20.520  0.00  0.00    +0.000 C 
ATOM     17  C   UNL     1       1.361   8.053  20.198  0.00  0.00    +0.000 A 
ENDBRANCH   7  10
BRANCH   1  19
ATOM     18  N   UNL     1       6.719   5.402  17.772  0.00  0.00    +0.000 N 
ATOM     19  C   UNL     1       5.629   5.056  18.543  0.00  0.00    +0.000 C 
ATOM     20  O   UNL     1       5.484   5.508  19.675  0.00  0.00    +0.000 OA
ATOM     21  H   UNL     1       6.818   4.987  16.852  0.00  0.00    +0.000 HD
BRANCH  18  23
ATOM     22  C   UNL     1       7.529   7.699  17.458  0.00  0.00    +0.000 C 
ATOM     23  C   UNL     1       7.701   6.379  18.189  0.00  0.00    +0.000 C 
ENDBRANCH  18  23
ENDBRANCH   1  19
TORSDOF 3
ENDMDL
MODEL 8
REMARK VINA RESULT:      -6.7      2.455      5.422
REMARK  Name = 
REMARK  6 active torsions:
REMARK  status: ('A' for Active; 'I' for Inactive)
REMARK    1  A    between atoms: C_1  and  C_2
REMARK    2  A    between atoms: C_2  and  N_3
REMARK    3  A    between atoms: C_4  and  C_6
REMARK    4  A    between atoms: C_6  and  C_7
REMARK    5  A    between atoms: C_12  and  C_14
REMARK    6  A    between atoms: C_19  and  C_20
REMARK                            x       y       z     vdW  Elec       q    Type
REMARK                         _______ _______ _______ _____ _____    ______ ____
ROOT
ATOM      1  C   UNL     1       4.332   3.988  17.507  0.00  0.00    +0.000 C 
ATOM      2  C   UNL     1       4.679   4.382  16.053  0.00  0.00    +0.000 C 
ATOM      3  C   UNL     1       4.501   2.456  17.658  0.00  0.00    +0.000 C 
ATOM      4  C   UNL     1       3.844   1.865  18.912  0.00  0.00    +0.000 C 
ATOM      5  C   UNL     1       2.436   2.407  19.171  0.00  0.00    +0.000 C 
ATOM      6  N   UNL     1       2.392   3.868  19.052  0.00  0.00    +0.000 N 
ATOM      7  C   UNL     1       1.699   4.606  20.020  0.00  0.00    +0.000 C 
ATOM      8  O   UNL     1       1.138   4.048  20.967  0.00  0.00    +0.000 OA
ATOM      9  C   UNL     1       2.855   4.356  17.750  0.00  0.00    +0.000 C 
ENDROOT
BRANCH   7  10
ATOM     10  C   UNL     1       1.619   6.101  19.987  0.00  0.00    +0.000 A 
ATOM     11  C   UNL     1       1.170   6.769  21.137  0.00  0.00    +0.000 A 
ATOM     12  C   UNL     1       1.120   8.166  21.176  0.00  0.00    +0.000 A 
ATOM     13  C   UNL     1       1.491   8.906  20.056  0.00  0.00    +0.000 A 
ATOM     14  F   UNL     1       1.414  10.243  20.105  0.00  0.00    +0.000 F 
ATOM     15  C   UNL     1       1.945   8.276  18.903  0.00  0.00    +0.000 A 
ATOM     16  C   UNL     1       2.279   9.031  17.652  0.00  0.00    +0.000 C 
ATOM     17  C   UNL     1       2.049   6.880  18.904  0.00  0.00    +0.000 A 
ENDBRANCH   7  10
BRANCH   1  19
ATOM     18  N   UNL     1       6.610   4.898  17.978  0.00  0.00    +0.000 N 
ATOM     19  C   UNL     1       5.317   4.751  18.435  0.00  0.00    +0.000 C 
ATOM     20  O   UNL     1       4.973   5.206  19.522  0.00  0.00    +0.000 OA
ATOM     21  H   UNL     1       6.863   4.486  17.087  0.00  0.00    +0.000 HD
BRANCH  18  23
ATOM     22  C   UNL     1       7.777   7.057  18.088  0.00  0.00    +0.000 C 
ATOM     23  C   UNL     1       7.612   5.669  18.683  0.00  0.00    +0.000 C 
ENDBRANCH  18  23
ENDBRANCH   1  19
TORSDOF 3
ENDMDL
MODEL 9
REMARK VINA RESULT:      -6.7      2.358      5.334
REMARK  Name = 
REMARK  6 active torsions:
REMARK  status: ('A' for Active; 'I' for Inactive)
REMARK    1  A    between atoms: C_1  and  C_2
REMARK    2  A    between atoms: C_2  and  N_3
REMARK    3  A    between atoms: C_4  and  C_6
REMARK    4  A    between atoms: C_6  and  C_7
REMARK    5  A    between atoms: C_12  and  C_14
REMARK    6  A    between atoms: C_19  and  C_20
REMARK                            x       y       z     vdW  Elec       q    Type
REMARK                         _______ _______ _______ _____ _____    ______ ____
ROOT
ATOM      1  C   UNL     1       4.384   3.698  17.426  0.00  0.00    +0.000 C 
ATOM      2  C   UNL     1       4.828   4.013  15.978  0.00  0.00    +0.000 C 
ATOM      3  C   UNL     1       4.430   2.164  17.634  0.00  0.00    +0.000 C 
ATOM      4  C   UNL     1       3.673   1.667  18.873  0.00  0.00    +0.000 C 
ATOM      5  C   UNL     1       2.299   2.319  19.044  0.00  0.00    +0.000 C 
ATOM      6  N   UNL     1       2.371   3.775  18.876  0.00  0.00    +0.000 N 
ATOM      7  C   UNL     1       1.690   4.595  19.785  0.00  0.00    +0.000 C 
ATOM      8  O   UNL     1       1.046   4.114  20.720  0.00  0.00    +0.000 OA
ATOM      9  C   UNL     1       2.929   4.181  17.584  0.00  0.00    +0.000 C 
ENDROOT
BRANCH   7  10
ATOM     10  C   UNL     1       1.724   6.091  19.700  0.00  0.00    +0.000 A 
ATOM     11  C   UNL     1       2.074   6.680  18.475  0.00  0.00    +0.000 A 
ATOM     12  C   UNL     1       2.075   8.071  18.328  0.00  0.00    +0.000 A 
ATOM     13  C   UNL     1       1.755   8.885  19.412  0.00  0.00    +0.000 A 
ATOM     14  F   UNL     1       1.784  10.215  19.257  0.00  0.00    +0.000 F 
ATOM     15  C   UNL     1       1.399   8.333  20.637  0.00  0.00    +0.000 A 
ATOM     16  C   UNL     1       1.124   9.173  21.847  0.00  0.00    +0.000 C 
ATOM     17  C   UNL     1       1.341   6.939  20.748  0.00  0.00    +0.000 A 
ENDBRANCH   7  10
BRANCH   1  19
ATOM     18  N   UNL     1       6.698   4.458  17.977  0.00  0.00    +0.000 N 
ATOM     19  C   UNL     1       5.378   4.418  18.376  0.00  0.00    +0.000 C 
ATOM     20  O   UNL     1       5.020   4.933  19.431  0.00  0.00    +0.000 OA
ATOM     21  H   UNL     1       6.961   3.998  17.112  0.00  0.00    +0.000 HD
BRANCH  18  23
ATOM     22  C   UNL     1       7.780   6.639  18.296  0.00  0.00    +0.000 C 
ATOM     23  C   UNL     1       7.721   5.178  18.705  0.00  0.00    +0.000 C 
ENDBRANCH  18  23
ENDBRANCH   1  19
TORSDOF 3
ENDMDL
