MODEL 1
REMARK VINA RESULT:      -7.8      0.000      0.000
REMARK  Name = 
REMARK  4 active torsions:
REMARK  status: ('A' for Active; 'I' for Inactive)
REMARK    1  A    between atoms: C_1  and  C_2
REMARK    2  A    between atoms: N_5  and  C_6
REMARK    3  A    between atoms: N_8  and  C_9
REMARK    4  A    between atoms: C_9  and  C_10
REMARK                            x       y       z     vdW  Elec       q    Type
REMARK                         _______ _______ _______ _____ _____    ______ ____
ROOT
ATOM      1  C   UNL     1       5.804   4.850  18.074  0.00  0.00    +0.000 C 
ATOM      2  O   UNL     1       6.338   4.010  18.810  0.00  0.00    +0.000 OA
ATOM      3  N   UNL     1       4.456   5.249  18.204  0.00  0.00    +0.000 N 
ATOM      4  C   UNL     1       3.817   6.258  17.345  0.00  0.00    +0.000 C 
ATOM      5  C   UNL     1       2.969   7.273  18.086  0.00  0.00    +0.000 C 
ATOM      6  O   UNL     1       2.716   8.387  17.622  0.00  0.00    +0.000 OA
ATOM      7  N   UNL     1       2.350   6.826  19.214  0.00  0.00    +0.000 N 
ATOM      8  C   UNL     1       2.567   5.547  19.738  0.00  0.00    +0.000 A 
ATOM      9  C   UNL     1       1.764   5.130  20.803  0.00  0.00    +0.000 A 
ATOM     10  C   UNL     1       1.951   3.866  21.356  0.00  0.00    +0.000 A 
ATOM     11  C   UNL     1       2.942   3.029  20.848  0.00  0.00    +0.000 A 
ATOM     12  C   UNL     1       3.767   3.460  19.804  0.00  0.00    +0.000 A 
ATOM     13  C   UNL     1       3.603   4.729  19.238  0.00  0.00    +0.000 A 
ATOM     14  H   UNL     1       1.690   7.459  19.649  0.00  0.00    +0.000 HD
ENDROOT
BRANCH   1  15
ATOM     15  C   UNL     1       6.647   5.625  17.036  0.00  0.00    +0.000 C 
BRANCH  15  18
ATOM     16  C   UNL     1       5.843   4.537  14.454  0.00  0.00    +0.000 C 
ATOM     17  C   UNL     1       6.333   3.672  15.640  0.00  0.00    +0.000 C 
ATOM     18  N   UNL     1       7.280   4.744  16.029  0.00  0.00    +0.000 NA
ATOM     19  C   UNL     1       7.173   5.296  14.654  0.00  0.00    +0.000 C 
BRANCH  16  24
ATOM     20  C   UNL     1       6.568   1.292  10.702  0.00  0.00    +0.000 C 
ATOM     21  C   UNL     1       6.022   2.331  11.604  0.00  0.00    +0.000 A 
ATOM     22  C   UNL     1       4.756   2.951  11.549  0.00  0.00    +0.000 A 
ATOM     23  N   UNL     1       4.572   3.834  12.531  0.00  0.00    +0.000 NA
ATOM     24  N   UNL     1       5.719   3.781  13.239  0.00  0.00    +0.000 N 
ATOM     25  C   UNL     1       6.628   2.907  12.702  0.00  0.00    +0.000 A 
ENDBRANCH  16  24
ENDBRANCH  15  18
ENDBRANCH   1  15
TORSDOF 3
ENDMDL
MODEL 2
REMARK VINA RESULT:      -7.7      1.137      1.429
REMARK  Name = 
REMARK  4 active torsions:
REMARK  status: ('A' for Active; 'I' for Inactive)
REMARK    1  A    between atoms: C_1  and  C_2
REMARK    2  A    between atoms: N_5  and  C_6
REMARK    3  A    between atoms: N_8  and  C_9
REMARK    4  A    between atoms: C_9  and  C_10
REMARK                            x       y       z     vdW  Elec       q    Type
REMARK                         _______ _______ _______ _____ _____    ______ ____
ROOT
ATOM      1  C   UNL     1       5.710   5.189  19.076  0.00  0.00    +0.000 C 
ATOM      2  O   UNL     1       6.156   4.326  19.843  0.00  0.00    +0.000 OA
ATOM      3  N   UNL     1       4.331   5.408  18.872  0.00  0.00    +0.000 N 
ATOM      4  C   UNL     1       3.792   6.442  17.975  0.00  0.00    +0.000 C 
ATOM      5  C   UNL     1       2.641   7.243  18.553  0.00  0.00    +0.000 C 
ATOM      6  O   UNL     1       2.355   8.373  18.150  0.00  0.00    +0.000 OA
ATOM      7  N   UNL     1       1.827   6.580  19.421  0.00  0.00    +0.000 N 
ATOM      8  C   UNL     1       2.088   5.276  19.856  0.00  0.00    +0.000 A 
ATOM      9  C   UNL     1       1.110   4.630  20.616  0.00  0.00    +0.000 A 
ATOM     10  C   UNL     1       1.333   3.334  21.072  0.00  0.00    +0.000 A 
ATOM     11  C   UNL     1       2.534   2.694  20.773  0.00  0.00    +0.000 A 
ATOM     12  C   UNL     1       3.526   3.353  20.041  0.00  0.00    +0.000 A 
ATOM     13  C   UNL     1       3.327   4.658  19.579  0.00  0.00    +0.000 A 
ATOM     14  H   UNL     1       0.992   7.068  19.720  0.00  0.00    +0.000 HD
ENDROOT
BRANCH   1  15
ATOM     15  C   UNL     1       6.667   6.189  18.388  0.00  0.00    +0.000 C 
BRANCH  15  18
ATOM     16  C   UNL     1       6.370   5.305  15.626  0.00  0.00    +0.000 C 
ATOM     17  C   UNL     1       6.863   4.393  16.775  0.00  0.00    +0.000 C 
ATOM     18  N   UNL     1       7.556   5.549  17.392  0.00  0.00    +0.000 NA
ATOM     19  C   UNL     1       7.514   6.237  16.076  0.00  0.00    +0.000 C 
BRANCH  16  24
ATOM     20  C   UNL     1       5.703   2.541  11.497  0.00  0.00    +0.000 C 
ATOM     21  C   UNL     1       6.209   3.496  12.507  0.00  0.00    +0.000 A 
ATOM     22  C   UNL     1       7.227   4.463  12.356  0.00  0.00    +0.000 A 
ATOM     23  N   UNL     1       7.424   5.181  13.461  0.00  0.00    +0.000 NA
ATOM     24  N   UNL     1       6.521   4.690  14.336  0.00  0.00    +0.000 N 
ATOM     25  C   UNL     1       5.787   3.659  13.810  0.00  0.00    +0.000 A 
ENDBRANCH  16  24
ENDBRANCH  15  18
ENDBRANCH   1  15
TORSDOF 3
ENDMDL
MODEL 3
REMARK VINA RESULT:      -7.6      2.324      7.783
REMARK  Name = 
REMARK  4 active torsions:
REMARK  status: ('A' for Active; 'I' for Inactive)
REMARK    1  A    between atoms: C_1  and  C_2
REMARK    2  A    between atoms: N_5  and  C_6
REMARK    3  A    between atoms: N_8  and  C_9
REMARK    4  A    between atoms: C_9  and  C_10
REMARK                            x       y       z     vdW  Elec       q    Type
REMARK                         _______ _______ _______ _____ _____    ______ ____
ROOT
ATOM      1  C   UNL     1       4.223   3.991  17.477  0.00  0.00    +0.000 C 
ATOM      2  O   UNL     1       3.398   3.584  16.649  0.00  0.00    +0.000 OA
ATOM      3  N   UNL     1       5.540   4.369  17.140  0.00  0.00    +0.000 N 
ATOM      4  C   UNL     1       6.522   4.869  18.115  0.00  0.00    +0.000 C 
ATOM      5  C   UNL     1       7.304   6.085  17.657  0.00  0.00    +0.000 C 
ATOM      6  O   UNL     1       7.833   6.867  18.450  0.00  0.00    +0.000 OA
ATOM      7  N   UNL     1       7.543   6.174  16.319  0.00  0.00    +0.000 N 
ATOM      8  C   UNL     1       7.008   5.271  15.394  0.00  0.00    +0.000 A 
ATOM      9  C   UNL     1       7.443   5.353  14.069  0.00  0.00    +0.000 A 
ATOM     10  C   UNL     1       6.932   4.476  13.117  0.00  0.00    +0.000 A 
ATOM     11  C   UNL     1       5.982   3.527  13.492  0.00  0.00    +0.000 A 
ATOM     12  C   UNL     1       5.522   3.468  14.811  0.00  0.00    +0.000 A 
ATOM     13  C   UNL     1       6.016   4.344  15.783  0.00  0.00    +0.000 A 
ATOM     14  H   UNL     1       8.163   6.916  16.018  0.00  0.00    +0.000 HD
ENDROOT
BRANCH   1  15
ATOM     15  C   UNL     1       3.796   4.242  18.942  0.00  0.00    +0.000 C 
BRANCH  15  18
ATOM     16  C   UNL     1       2.628   6.811  19.675  0.00  0.00    +0.000 C 
ATOM     17  C   UNL     1       2.265   5.471  20.359  0.00  0.00    +0.000 C 
ATOM     18  N   UNL     1       2.418   4.769  19.062  0.00  0.00    +0.000 NA
ATOM     19  C   UNL     1       2.253   6.074  18.371  0.00  0.00    +0.000 C 
BRANCH  16  24
ATOM     20  C   UNL     1      -0.261   9.947  22.310  0.00  0.00    +0.000 C 
ATOM     21  C   UNL     1       0.511   9.280  21.240  0.00  0.00    +0.000 A 
ATOM     22  C   UNL     1       0.792   9.759  19.942  0.00  0.00    +0.000 A 
ATOM     23  N   UNL     1       1.538   8.914  19.230  0.00  0.00    +0.000 NA
ATOM     24  N   UNL     1       1.758   7.883  20.072  0.00  0.00    +0.000 N 
ATOM     25  C   UNL     1       1.138   8.051  21.283  0.00  0.00    +0.000 A 
ENDBRANCH  16  24
ENDBRANCH  15  18
ENDBRANCH   1  15
TORSDOF 3
ENDMDL
MODEL 4
REMARK VINA RESULT:      -7.0      4.743      9.800
REMARK  Name = 
REMARK  4 active torsions:
REMARK  status: ('A' for Active; 'I' for Inactive)
REMARK    1  A    between atoms: C_1  and  C_2
REMARK    2  A    between atoms: N_5  and  C_6
REMARK    3  A    between atoms: N_8  and  C_9
REMARK    4  A    between atoms: C_9  and  C_10
REMARK                            x       y       z     vdW  Elec       q    Type
REMARK                         _______ _______ _______ _____ _____    ______ ____
ROOT
ATOM      1  C   UNL     1       2.201   7.080  19.768  0.00  0.00    +0.000 C 
ATOM      2  O   UNL     1       2.848   7.766  18.966  0.00  0.00    +0.000 OA
ATOM      3  N   UNL     1       2.191   5.669  19.750  0.00  0.00    +0.000 N 
ATOM      4  C   UNL     1       1.437   4.846  20.709  0.00  0.00    +0.000 C 
ATOM      5  C   UNL     1       2.208   3.668  21.274  0.00  0.00    +0.000 C 
ATOM      6  O   UNL     1       1.918   3.143  22.350  0.00  0.00    +0.000 OA
ATOM      7  N   UNL     1       3.130   3.104  20.444  0.00  0.00    +0.000 N 
ATOM      8  C   UNL     1       3.444   3.637  19.189  0.00  0.00    +0.000 A 
ATOM      9  C   UNL     1       4.282   2.895  18.352  0.00  0.00    +0.000 A 
ATOM     10  C   UNL     1       4.623   3.393  17.098  0.00  0.00    +0.000 A 
ATOM     11  C   UNL     1       4.132   4.632  16.690  0.00  0.00    +0.000 A 
ATOM     12  C   UNL     1       3.322   5.389  17.542  0.00  0.00    +0.000 A 
ATOM     13  C   UNL     1       2.972   4.913  18.809  0.00  0.00    +0.000 A 
ATOM     14  H   UNL     1       3.564   2.248  20.766  0.00  0.00    +0.000 HD
ENDROOT
BRANCH   1  15
ATOM     15  C   UNL     1       1.461   7.752  20.947  0.00  0.00    +0.000 C 
BRANCH  15  18
ATOM     16  C   UNL     1       0.302  10.165  22.102  0.00  0.00    +0.000 C 
ATOM     17  C   UNL     1      -0.533   8.965  21.594  0.00  0.00    +0.000 C 
ATOM     18  N   UNL     1       0.452   8.743  20.508  0.00  0.00    +0.000 NA
ATOM     19  C   UNL     1       0.921  10.141  20.688  0.00  0.00    +0.000 C 
BRANCH  16  24
ATOM     20  C   UNL     1      -3.228  13.194  23.971  0.00  0.00    +0.000 C 
ATOM     21  C   UNL     1      -2.050  12.642  23.268  0.00  0.00    +0.000 A 
ATOM     22  C   UNL     1      -1.007  13.350  22.631  0.00  0.00    +0.000 A 
ATOM     23  N   UNL     1      -0.081  12.545  22.110  0.00  0.00    +0.000 NA
ATOM     24  N   UNL     1      -0.513  11.305  22.419  0.00  0.00    +0.000 N 
ATOM     25  C   UNL     1      -1.706  11.317  23.094  0.00  0.00    +0.000 A 
ENDBRANCH  16  24
ENDBRANCH  15  18
ENDBRANCH   1  15
TORSDOF 3
ENDMDL
MODEL 5
REMARK VINA RESULT:      -7.0      4.594      9.508
REMARK  Name = 
REMARK  4 active torsions:
REMARK  status: ('A' for Active; 'I' for Inactive)
REMARK    1  A    between atoms: C_1  and  C_2
REMARK    2  A    between atoms: N_5  and  C_6
REMARK    3  A    between atoms: N_8  and  C_9
REMARK    4  A    between atoms: C_9  and  C_10
REMARK                            x       y       z     vdW  Elec       q    Type
REMARK                         _______ _______ _______ _____ _____    ______ ____
ROOT
ATOM      1  C   UNL     1       2.071   6.633  19.847  0.00  0.00    +0.000 C 
ATOM      2  O   UNL     1       2.794   7.329  19.122  0.00  0.00    +0.000 OA
ATOM      3  N   UNL     1       2.015   5.226  19.763  0.00  0.00    +0.000 N 
ATOM      4  C   UNL     1       1.171   4.389  20.631  0.00  0.00    +0.000 C 
ATOM      5  C   UNL     1       1.862   3.160  21.191  0.00  0.00    +0.000 C 
ATOM      6  O   UNL     1       1.482   2.600  22.221  0.00  0.00    +0.000 OA
ATOM      7  N   UNL     1       2.819   2.600  20.399  0.00  0.00    +0.000 N 
ATOM      8  C   UNL     1       3.235   3.176  19.194  0.00  0.00    +0.000 A 
ATOM      9  C   UNL     1       4.102   2.441  18.381  0.00  0.00    +0.000 A 
ATOM     10  C   UNL     1       4.544   2.981  17.176  0.00  0.00    +0.000 A 
ATOM     11  C   UNL     1       4.124   4.253  16.794  0.00  0.00    +0.000 A 
ATOM     12  C   UNL     1       3.283   5.001  17.624  0.00  0.00    +0.000 A 
ATOM     13  C   UNL     1       2.833   4.483  18.842  0.00  0.00    +0.000 A 
ATOM     14  H   UNL     1       3.201   1.715  20.709  0.00  0.00    +0.000 HD
ENDROOT
BRANCH   1  15
ATOM     15  C   UNL     1       1.275   7.280  21.003  0.00  0.00    +0.000 C 
BRANCH  15  18
ATOM     16  C   UNL     1      -0.281   9.651  21.679  0.00  0.00    +0.000 C 
ATOM     17  C   UNL     1       0.612   9.535  20.420  0.00  0.00    +0.000 C 
ATOM     18  N   UNL     1       1.582   8.716  21.186  0.00  0.00    +0.000 NA
ATOM     19  C   UNL     1       1.002   9.259  22.442  0.00  0.00    +0.000 C 
BRANCH  16  24
ATOM     20  C   UNL     1      -2.506  14.110  21.142  0.00  0.00    +0.000 C 
ATOM     21  C   UNL     1      -1.768  12.939  21.662  0.00  0.00    +0.000 A 
ATOM     22  C   UNL     1      -1.316  12.712  22.980  0.00  0.00    +0.000 A 
ATOM     23  N   UNL     1      -0.700  11.538  23.119  0.00  0.00    +0.000 NA
ATOM     24  N   UNL     1      -0.762  10.988  21.888  0.00  0.00    +0.000 N 
ATOM     25  C   UNL     1      -1.374  11.808  20.976  0.00  0.00    +0.000 A 
ENDBRANCH  16  24
ENDBRANCH  15  18
ENDBRANCH   1  15
TORSDOF 3
ENDMDL
MODEL 6
REMARK VINA RESULT:      -6.8      6.884      9.945
REMARK  Name = 
REMARK  4 active torsions:
REMARK  status: ('A' for Active; 'I' for Inactive)
REMARK    1  A    between atoms: C_1  and  C_2
REMARK    2  A    between atoms: N_5  and  C_6
REMARK    3  A    between atoms: N_8  and  C_9
REMARK    4  A    between atoms: C_9  and  C_10
REMARK                            x       y       z     vdW  Elec       q    Type
REMARK                         _______ _______ _______ _____ _____    ______ ____
ROOT
ATOM      1  C   UNL     1      -2.054  12.345  19.112  0.00  0.00    +0.000 C 
ATOM      2  O   UNL     1      -2.315  13.036  20.105  0.00  0.00    +0.000 OA
ATOM      3  N   UNL     1      -3.036  11.667  18.358  0.00  0.00    +0.000 N 
ATOM      4  C   UNL     1      -2.737  10.856  17.168  0.00  0.00    +0.000 C 
ATOM      5  C   UNL     1      -3.671  11.087  15.995  0.00  0.00    +0.000 C 
ATOM      6  O   UNL     1      -3.345  10.839  14.832  0.00  0.00    +0.000 OA
ATOM      7  N   UNL     1      -4.955  11.417  16.309  0.00  0.00    +0.000 N 
ATOM      8  C   UNL     1      -5.376  11.650  17.623  0.00  0.00    +0.000 A 
ATOM      9  C   UNL     1      -6.743  11.823  17.852  0.00  0.00    +0.000 A 
ATOM     10  C   UNL     1      -7.203  12.061  19.144  0.00  0.00    +0.000 A 
ATOM     11  C   UNL     1      -6.294  12.133  20.198  0.00  0.00    +0.000 A 
ATOM     12  C   UNL     1      -4.923  11.993  19.962  0.00  0.00    +0.000 A 
ATOM     13  C   UNL     1      -4.437  11.761  18.671  0.00  0.00    +0.000 A 
ATOM     14  H   UNL     1      -5.613  11.457  15.540  0.00  0.00    +0.000 HD
ENDROOT
BRANCH   1  15
ATOM     15  C   UNL     1      -0.614  12.300  18.551  0.00  0.00    +0.000 C 
BRANCH  15  18
ATOM     16  C   UNL     1       1.039   9.924  18.199  0.00  0.00    +0.000 C 
ATOM     17  C   UNL     1      -0.001  10.091  19.333  0.00  0.00    +0.000 C 
ATOM     18  N   UNL     1       0.318  11.537  19.411  0.00  0.00    +0.000 NA
ATOM     19  C   UNL     1       1.609  11.257  18.730  0.00  0.00    +0.000 C 
BRANCH  16  24
ATOM     20  C   UNL     1       3.041   5.651  19.890  0.00  0.00    +0.000 C 
ATOM     21  C   UNL     1       2.725   6.865  19.107  0.00  0.00    +0.000 A 
ATOM     22  C   UNL     1       3.237   7.245  17.847  0.00  0.00    +0.000 A 
ATOM     23  N   UNL     1       2.726   8.395  17.408  0.00  0.00    +0.000 NA
ATOM     24  N   UNL     1       1.865   8.763  18.379  0.00  0.00    +0.000 N 
ATOM     25  C   UNL     1       1.852   7.883  19.431  0.00  0.00    +0.000 A 
ENDBRANCH  16  24
ENDBRANCH  15  18
ENDBRANCH   1  15
TORSDOF 3
ENDMDL
MODEL 7
REMARK VINA RESULT:      -6.8      1.443      1.889
REMARK  Name = 
REMARK  4 active torsions:
REMARK  status: ('A' for Active; 'I' for Inactive)
REMARK    1  A    between atoms: C_1  and  C_2
REMARK    2  A    between atoms: N_5  and  C_6
REMARK    3  A    between atoms: N_8  and  C_9
REMARK    4  A    between atoms: C_9  and  C_10
REMARK                            x       y       z     vdW  Elec       q    Type
REMARK                         _______ _______ _______ _____ _____    ______ ____
ROOT
ATOM      1  C   UNL     1       5.345   5.326  18.736  0.00  0.00    +0.000 C 
ATOM      2  O   UNL     1       5.968   4.280  18.959  0.00  0.00    +0.000 OA
ATOM      3  N   UNL     1       3.969   5.482  19.008  0.00  0.00    +0.000 N 
ATOM      4  C   UNL     1       3.223   6.726  18.762  0.00  0.00    +0.000 C 
ATOM      5  C   UNL     1       2.298   7.142  19.889  0.00  0.00    +0.000 C 
ATOM      6  O   UNL     1       1.935   8.309  20.050  0.00  0.00    +0.000 OA
ATOM      7  N   UNL     1       1.744   6.129  20.613  0.00  0.00    +0.000 N 
ATOM      8  C   UNL     1       2.087   4.787  20.419  0.00  0.00    +0.000 A 
ATOM      9  C   UNL     1       1.346   3.816  21.098  0.00  0.00    +0.000 A 
ATOM     10  C   UNL     1       1.659   2.470  20.937  0.00  0.00    +0.000 A 
ATOM     11  C   UNL     1       2.714   2.100  20.105  0.00  0.00    +0.000 A 
ATOM     12  C   UNL     1       3.476   3.074  19.453  0.00  0.00    +0.000 A 
ATOM     13  C   UNL     1       3.186   4.434  19.606  0.00  0.00    +0.000 A 
ATOM     14  H   UNL     1       1.036   6.391  21.288  0.00  0.00    +0.000 HD
ENDROOT
BRANCH   1  15
ATOM     15  C   UNL     1       6.094   6.593  18.265  0.00  0.00    +0.000 C 
BRANCH  15  18
ATOM     16  C   UNL     1       6.507   5.036  15.835  0.00  0.00    +0.000 C 
ATOM     17  C   UNL     1       7.159   6.415  16.097  0.00  0.00    +0.000 C 
ATOM     18  N   UNL     1       5.938   6.853  16.816  0.00  0.00    +0.000 NA
ATOM     19  C   UNL     1       5.183   5.773  16.129  0.00  0.00    +0.000 C 
BRANCH  16  24
ATOM     20  C   UNL     1       6.066   2.682  11.431  0.00  0.00    +0.000 C 
ATOM     21  C   UNL     1       6.483   3.573  12.536  0.00  0.00    +0.000 A 
ATOM     22  C   UNL     1       7.382   4.659  12.484  0.00  0.00    +0.000 A 
ATOM     23  N   UNL     1       7.521   5.270  13.661  0.00  0.00    +0.000 NA
ATOM     24  N   UNL     1       6.698   4.587  14.484  0.00  0.00    +0.000 N 
ATOM     25  C   UNL     1       6.073   3.543  13.854  0.00  0.00    +0.000 A 
ENDBRANCH  16  24
ENDBRANCH  15  18
ENDBRANCH   1  15
TORSDOF 3
ENDMDL
MODEL 8
REMARK VINA RESULT:      -6.7      4.813      9.868
REMARK  Name = 
REMARK  4 active torsions:
REMARK  status: ('A' for Active; 'I' for Inactive)
REMARK    1  A    between atoms: C_1  and  C_2
REMARK    2  A    between atoms: N_5  and  C_6
REMARK    3  A    between atoms: N_8  and  C_9
REMARK    4  A    between atoms: C_9  and  C_10
REMARK                            x       y       z     vdW  Elec       q    Type
REMARK                         _______ _______ _______ _____ _____    ______ ____
ROOT
ATOM      1  C   UNL     1       1.891   7.261  20.006  0.00  0.00    +0.000 C 
ATOM      2  O   UNL     1       2.488   8.104  19.325  0.00  0.00    +0.000 OA
ATOM      3  N   UNL     1       2.090   5.870  19.868  0.00  0.00    +0.000 N 
ATOM      4  C   UNL     1       1.397   4.861  20.684  0.00  0.00    +0.000 C 
ATOM      5  C   UNL     1       2.288   3.754  21.213  0.00  0.00    +0.000 C 
ATOM      6  O   UNL     1       1.998   3.093  22.212  0.00  0.00    +0.000 OA
ATOM      7  N   UNL     1       3.343   3.407  20.424  0.00  0.00    +0.000 N 
ATOM      8  C   UNL     1       3.669   4.098  19.252  0.00  0.00    +0.000 A 
ATOM      9  C   UNL     1       4.668   3.565  18.432  0.00  0.00    +0.000 A 
ATOM     10  C   UNL     1       5.025   4.224  17.260  0.00  0.00    +0.000 A 
ATOM     11  C   UNL     1       4.389   5.415  16.915  0.00  0.00    +0.000 A 
ATOM     12  C   UNL     1       3.413   5.965  17.753  0.00  0.00    +0.000 A 
ATOM     13  C   UNL     1       3.044   5.325  18.940  0.00  0.00    +0.000 A 
ATOM     14  H   UNL     1       3.874   2.594  20.710  0.00  0.00    +0.000 HD
ENDROOT
BRANCH   1  15
ATOM     15  C   UNL     1       0.972   7.706  21.166  0.00  0.00    +0.000 C 
BRANCH  15  18
ATOM     16  C   UNL     1      -0.445  10.123  21.970  0.00  0.00    +0.000 C 
ATOM     17  C   UNL     1       0.748  10.110  20.985  0.00  0.00    +0.000 C 
ATOM     18  N   UNL     1       1.369   9.005  21.754  0.00  0.00    +0.000 NA
ATOM     19  C   UNL     1       0.521   9.379  22.916  0.00  0.00    +0.000 C 
BRANCH  16  24
ATOM     20  C   UNL     1      -0.870  15.107  22.303  0.00  0.00    +0.000 C 
ATOM     21  C   UNL     1      -1.027  13.648  22.486  0.00  0.00    +0.000 A 
ATOM     22  C   UNL     1      -2.000  12.967  23.248  0.00  0.00    +0.000 A 
ATOM     23  N   UNL     1      -1.872  11.641  23.182  0.00  0.00    +0.000 NA
ATOM     24  N   UNL     1      -0.818  11.455  22.362  0.00  0.00    +0.000 N 
ATOM     25  C   UNL     1      -0.264  12.635  21.940  0.00  0.00    +0.000 A 
ENDBRANCH  16  24
ENDBRANCH  15  18
ENDBRANCH   1  15
TORSDOF 3
ENDMDL
MODEL 9
REMARK VINA RESULT:      -6.7      3.852      9.183
REMARK  Name = 
REMARK  4 active torsions:
REMARK  status: ('A' for Active; 'I' for Inactive)
REMARK    1  A    between atoms: C_1  and  C_2
REMARK    2  A    between atoms: N_5  and  C_6
REMARK    3  A    between atoms: N_8  and  C_9
REMARK    4  A    between atoms: C_9  and  C_10
REMARK                            x       y       z     vdW  Elec       q    Type
REMARK                         _______ _______ _______ _____ _____    ______ ____
ROOT
ATOM      1  C   UNL     1       2.910   6.969  18.358  0.00  0.00    +0.000 C 
ATOM      2  O   UNL     1       3.316   7.973  17.758  0.00  0.00    +0.000 OA
ATOM      3  N   UNL     1       3.463   5.683  18.181  0.00  0.00    +0.000 N 
ATOM      4  C   UNL     1       2.997   4.488  18.901  0.00  0.00    +0.000 C 
ATOM      5  C   UNL     1       4.105   3.610  19.452  0.00  0.00    +0.000 C 
ATOM      6  O   UNL     1       3.930   2.841  20.399  0.00  0.00    +0.000 OA
ATOM      7  N   UNL     1       5.261   3.583  18.731  0.00  0.00    +0.000 N 
ATOM      8  C   UNL     1       5.474   4.400  17.615  0.00  0.00    +0.000 A 
ATOM      9  C   UNL     1       6.625   4.181  16.853  0.00  0.00    +0.000 A 
ATOM     10  C   UNL     1       6.877   4.974  15.737  0.00  0.00    +0.000 A 
ATOM     11  C   UNL     1       5.983   5.986  15.393  0.00  0.00    +0.000 A 
ATOM     12  C   UNL     1       4.849   6.226  16.176  0.00  0.00    +0.000 A 
ATOM     13  C   UNL     1       4.580   5.447  17.306  0.00  0.00    +0.000 A 
ATOM     14  H   UNL     1       5.961   2.913  19.024  0.00  0.00    +0.000 HD
ENDROOT
BRANCH   1  15
ATOM     15  C   UNL     1       1.837   7.104  19.463  0.00  0.00    +0.000 C 
BRANCH  15  18
ATOM     16  C   UNL     1       0.056   8.952  20.845  0.00  0.00    +0.000 C 
ATOM     17  C   UNL     1       1.143   9.393  19.835  0.00  0.00    +0.000 C 
ATOM     18  N   UNL     1       2.026   8.302  20.311  0.00  0.00    +0.000 NA
ATOM     19  C   UNL     1       1.223   8.238  21.560  0.00  0.00    +0.000 C 
BRANCH  16  24
ATOM     20  C   UNL     1      -2.268  13.250  21.967  0.00  0.00    +0.000 C 
ATOM     21  C   UNL     1      -1.581  11.942  22.032  0.00  0.00    +0.000 A 
ATOM     22  C   UNL     1      -1.381  11.120  23.162  0.00  0.00    +0.000 A 
ATOM     23  N   UNL     1      -0.740   9.989  22.870  0.00  0.00    +0.000 NA
ATOM     24  N   UNL     1      -0.530  10.065  21.540  0.00  0.00    +0.000 N 
ATOM     25  C   UNL     1      -0.999  11.234  21.000  0.00  0.00    +0.000 A 
ENDBRANCH  16  24
ENDBRANCH  15  18
ENDBRANCH   1  15
TORSDOF 3
ENDMDL
