MODEL 1
REMARK VINA RESULT:      -8.4      0.000      0.000
REMARK  Name = 
REMARK  12 active torsions:
REMARK  status: ('A' for Active; 'I' for Inactive)
REMARK    1  A    between atoms: C_1  and  C_2
REMARK    2  A    between atoms: C_2  and  C_3
REMARK    3  A    between atoms: C_2  and  C_4
REMARK    4  A    between atoms: C_4  and  C_5
REMARK    5  A    between atoms: C_5  and  N_6
REMARK    6  A    between atoms: C_5  and  C_22
REMARK    7  A    between atoms: C_7  and  C_9
REMARK    8  A    between atoms: C_9  and  C_10
REMARK    9  A    between atoms: C_10  and  S_11
REMARK   10  A    between atoms: S_11  and  C_12
REMARK   11  A    between atoms: N_24  and  C_25
REMARK   12  A    between atoms: C_30  and  O_31
REMARK                            x       y       z     vdW  Elec       q    Type
REMARK                         _______ _______ _______ _____ _____    ______ ____
ROOT
ATOM      1  C   UNL     1       2.730   5.135  19.502  0.00  0.00    +0.000 C 
ENDROOT
BRANCH   1   2
ATOM      2  N   UNL     1       2.607   6.538  19.087  0.00  0.00    +0.000 N 
ATOM      3  C   UNL     1       1.928   7.472  19.832  0.00  0.00    +0.000 C 
ATOM      4  O   UNL     1       1.448   7.228  20.935  0.00  0.00    +0.000 OA
ATOM      5  H   UNL     1       2.916   6.761  18.145  0.00  0.00    +0.000 HD
BRANCH   3   6
ATOM      6  C   UNL     1       1.810   8.834  19.179  0.00  0.00    +0.000 C 
BRANCH   6   7
ATOM      7  C   UNL     1       0.752   9.703  19.853  0.00  0.00    +0.000 C 
BRANCH   7   8
ATOM      8  S   UNL     1       0.421  11.208  18.865  0.00  0.00    +0.000 S 
BRANCH   8   9
ATOM      9  C   UNL     1      -1.306  10.979  18.420  0.00  0.00    +0.000 A 
ATOM     10  C   UNL     1      -1.524  10.109  17.341  0.00  0.00    +0.000 A 
ATOM     11  C   UNL     1      -2.804   9.899  16.840  0.00  0.00    +0.000 A 
ATOM     12  C   UNL     1      -3.884  10.557  17.418  0.00  0.00    +0.000 A 
ATOM     13  C   UNL     1      -3.702  11.433  18.498  0.00  0.00    +0.000 A 
ATOM     14  C   UNL     1      -4.815  12.085  19.052  0.00  0.00    +0.000 A 
ATOM     15  C   UNL     1      -4.673  12.980  20.109  0.00  0.00    +0.000 A 
ATOM     16  C   UNL     1      -3.408  13.243  20.619  0.00  0.00    +0.000 A 
ATOM     17  C   UNL     1      -2.289  12.607  20.075  0.00  0.00    +0.000 A 
ATOM     18  C   UNL     1      -2.400  11.672  19.014  0.00  0.00    +0.000 A 
ENDBRANCH   8   9
ENDBRANCH   7   8
ENDBRANCH   6   7
ENDBRANCH   3   6
ENDBRANCH   1   2
BRANCH   1  19
ATOM     19  C   UNL     1       4.221   4.759  19.305  0.00  0.00    +0.000 C 
ATOM     20  O   UNL     1       4.674   3.669  19.648  0.00  0.00    +0.000 OA
ATOM     21  N   UNL     1       5.014   5.733  18.741  0.00  0.00    +0.000 N 
ATOM     22  H   UNL     1       4.565   6.578  18.406  0.00  0.00    +0.000 HD
BRANCH  21  23
ATOM     23  C   UNL     1       6.457   5.595  18.487  0.00  0.00    +0.000 C 
ATOM     24  C   UNL     1       6.782   4.668  17.337  0.00  0.00    +0.000 C 
ATOM     25  C   UNL     1       7.254   5.588  16.255  0.00  0.00    +0.000 C 
ATOM     26  O   UNL     1       7.514   5.237  15.114  0.00  0.00    +0.000 OA
ATOM     27  O   UNL     1       7.490   6.839  16.730  0.00  0.00    +0.000 OA
ATOM     28  C   UNL     1       7.236   6.867  18.122  0.00  0.00    +0.000 C 
BRANCH  28  29
ATOM     29  O   UNL     1       8.475   6.906  18.814  0.00  0.00    +0.000 OA
ATOM     30  H   UNL     1       8.468   6.175  19.456  0.00  0.00    +0.000 HD
ENDBRANCH  28  29
ENDBRANCH  21  23
ENDBRANCH   1  19
BRANCH   1  31
ATOM     31  C   UNL     1       1.783   4.299  18.627  0.00  0.00    +0.000 C 
BRANCH  31  33
ATOM     32  C   UNL     1       1.732   1.741  18.895  0.00  0.00    +0.000 C 
ATOM     33  C   UNL     1       1.077   3.077  19.240  0.00  0.00    +0.000 C 
ATOM     34  C   UNL     1       1.076   3.251  20.767  0.00  0.00    +0.000 C 
ENDBRANCH  31  33
ENDBRANCH   1  31
TORSDOF 10
ENDMDL
MODEL 2
REMARK VINA RESULT:      -8.4      1.522      1.982
REMARK  Name = 
REMARK  12 active torsions:
REMARK  status: ('A' for Active; 'I' for Inactive)
REMARK    1  A    between atoms: C_1  and  C_2
REMARK    2  A    between atoms: C_2  and  C_3
REMARK    3  A    between atoms: C_2  and  C_4
REMARK    4  A    between atoms: C_4  and  C_5
REMARK    5  A    between atoms: C_5  and  N_6
REMARK    6  A    between atoms: C_5  and  C_22
REMARK    7  A    between atoms: C_7  and  C_9
REMARK    8  A    between atoms: C_9  and  C_10
REMARK    9  A    between atoms: C_10  and  S_11
REMARK   10  A    between atoms: S_11  and  C_12
REMARK   11  A    between atoms: N_24  and  C_25
REMARK   12  A    between atoms: C_30  and  O_31
REMARK                            x       y       z     vdW  Elec       q    Type
REMARK                         _______ _______ _______ _____ _____    ______ ____
ROOT
ATOM      1  C   UNL     1       2.663   5.408  18.565  0.00  0.00    +0.000 C 
ENDROOT
BRANCH   1   2
ATOM      2  N   UNL     1       2.554   6.742  17.962  0.00  0.00    +0.000 N 
ATOM      3  C   UNL     1       2.312   7.872  18.705  0.00  0.00    +0.000 C 
ATOM      4  O   UNL     1       2.255   7.867  19.931  0.00  0.00    +0.000 OA
ATOM      5  H   UNL     1       2.510   6.778  16.947  0.00  0.00    +0.000 HD
BRANCH   3   6
ATOM      6  C   UNL     1       2.113   9.133  17.890  0.00  0.00    +0.000 C 
BRANCH   6   7
ATOM      7  C   UNL     1       0.736   9.750  18.115  0.00  0.00    +0.000 C 
BRANCH   7   8
ATOM      8  S   UNL     1       0.840  11.171  19.265  0.00  0.00    +0.000 S 
BRANCH   8   9
ATOM      9  C   UNL     1      -0.896  11.551  19.533  0.00  0.00    +0.000 A 
ATOM     10  C   UNL     1      -1.722  11.341  18.419  0.00  0.00    +0.000 A 
ATOM     11  C   UNL     1      -3.073  11.667  18.460  0.00  0.00    +0.000 A 
ATOM     12  C   UNL     1      -3.615  12.204  19.622  0.00  0.00    +0.000 A 
ATOM     13  C   UNL     1      -2.818  12.427  20.754  0.00  0.00    +0.000 A 
ATOM     14  C   UNL     1      -3.399  12.978  21.909  0.00  0.00    +0.000 A 
ATOM     15  C   UNL     1      -2.635  13.235  23.045  0.00  0.00    +0.000 A 
ATOM     16  C   UNL     1      -1.276  12.955  23.036  0.00  0.00    +0.000 A 
ATOM     17  C   UNL     1      -0.682  12.412  21.893  0.00  0.00    +0.000 A 
ATOM     18  C   UNL     1      -1.433  12.115  20.727  0.00  0.00    +0.000 A 
ENDBRANCH   8   9
ENDBRANCH   7   8
ENDBRANCH   6   7
ENDBRANCH   3   6
ENDBRANCH   1   2
BRANCH   1  19
ATOM     19  C   UNL     1       4.143   4.980  18.391  0.00  0.00    +0.000 C 
ATOM     20  O   UNL     1       4.977   5.119  19.284  0.00  0.00    +0.000 OA
ATOM     21  N   UNL     1       4.473   4.452  17.162  0.00  0.00    +0.000 N 
ATOM     22  H   UNL     1       3.724   4.289  16.498  0.00  0.00    +0.000 HD
BRANCH  21  23
ATOM     23  C   UNL     1       5.821   4.004  16.777  0.00  0.00    +0.000 C 
ATOM     24  C   UNL     1       5.996   3.831  15.284  0.00  0.00    +0.000 C 
ATOM     25  C   UNL     1       6.877   4.975  14.889  0.00  0.00    +0.000 C 
ATOM     26  O   UNL     1       7.170   5.255  13.737  0.00  0.00    +0.000 OA
ATOM     27  O   UNL     1       7.425   5.582  15.974  0.00  0.00    +0.000 OA
ATOM     28  C   UNL     1       7.001   4.913  17.148  0.00  0.00    +0.000 C 
BRANCH  28  29
ATOM     29  O   UNL     1       8.081   4.142  17.653  0.00  0.00    +0.000 OA
ATOM     30  H   UNL     1       8.690   3.984  16.911  0.00  0.00    +0.000 HD
ENDBRANCH  28  29
ENDBRANCH  21  23
ENDBRANCH   1  19
BRANCH   1  31
ATOM     31  C   UNL     1       1.683   4.476  17.837  0.00  0.00    +0.000 C 
BRANCH  31  33
ATOM     32  C   UNL     1       1.776   2.016  18.578  0.00  0.00    +0.000 C 
ATOM     33  C   UNL     1       1.009   3.336  18.618  0.00  0.00    +0.000 C 
ATOM     34  C   UNL     1       0.870   3.787  20.082  0.00  0.00    +0.000 C 
ENDBRANCH  31  33
ENDBRANCH   1  31
TORSDOF 10
ENDMDL
MODEL 3
REMARK VINA RESULT:      -8.0      6.532      9.330
REMARK  Name = 
REMARK  12 active torsions:
REMARK  status: ('A' for Active; 'I' for Inactive)
REMARK    1  A    between atoms: C_1  and  C_2
REMARK    2  A    between atoms: C_2  and  C_3
REMARK    3  A    between atoms: C_2  and  C_4
REMARK    4  A    between atoms: C_4  and  C_5
REMARK    5  A    between atoms: C_5  and  N_6
REMARK    6  A    between atoms: C_5  and  C_22
REMARK    7  A    between atoms: C_7  and  C_9
REMARK    8  A    between atoms: C_9  and  C_10
REMARK    9  A    between atoms: C_10  and  S_11
REMARK   10  A    between atoms: S_11  and  C_12
REMARK   11  A    between atoms: N_24  and  C_25
REMARK   12  A    between atoms: C_30  and  O_31
REMARK                            x       y       z     vdW  Elec       q    Type
REMARK                         _______ _______ _______ _____ _____    ______ ____
ROOT
ATOM      1  C   UNL     1       6.493   5.806  17.421  0.00  0.00    +0.000 C 
ENDROOT
BRANCH   1   2
ATOM      2  N   UNL     1       7.421   6.671  18.159  0.00  0.00    +0.000 N 
ATOM      3  C   UNL     1       7.618   7.992  17.832  0.00  0.00    +0.000 C 
ATOM      4  O   UNL     1       6.975   8.569  16.960  0.00  0.00    +0.000 OA
ATOM      5  H   UNL     1       8.032   6.214  18.830  0.00  0.00    +0.000 HD
BRANCH   3   6
ATOM      6  C   UNL     1       8.702   8.684  18.632  0.00  0.00    +0.000 C 
BRANCH   6   7
ATOM      7  C   UNL     1       8.870  10.146  18.226  0.00  0.00    +0.000 C 
BRANCH   7   8
ATOM      8  S   UNL     1       9.947  11.031  19.412  0.00  0.00    +0.000 S 
BRANCH   8   9
ATOM      9  C   UNL     1      10.473  12.448  18.439  0.00  0.00    +0.000 A 
ATOM     10  C   UNL     1      11.685  12.273  17.755  0.00  0.00    +0.000 A 
ATOM     11  C   UNL     1      12.250  13.314  17.026  0.00  0.00    +0.000 A 
ATOM     12  C   UNL     1      11.605  14.544  16.970  0.00  0.00    +0.000 A 
ATOM     13  C   UNL     1      10.391  14.753  17.643  0.00  0.00    +0.000 A 
ATOM     14  C   UNL     1       9.771  16.010  17.570  0.00  0.00    +0.000 A 
ATOM     15  C   UNL     1       8.578  16.264  18.242  0.00  0.00    +0.000 A 
ATOM     16  C   UNL     1       7.996  15.263  19.008  0.00  0.00    +0.000 A 
ATOM     17  C   UNL     1       8.604  14.007  19.096  0.00  0.00    +0.000 A 
ATOM     18  C   UNL     1       9.806  13.707  18.405  0.00  0.00    +0.000 A 
ENDBRANCH   8   9
ENDBRANCH   7   8
ENDBRANCH   6   7
ENDBRANCH   3   6
ENDBRANCH   1   2
BRANCH   1  19
ATOM     19  C   UNL     1       5.995   4.747  18.438  0.00  0.00    +0.000 C 
ATOM     20  O   UNL     1       6.516   4.600  19.542  0.00  0.00    +0.000 OA
ATOM     21  N   UNL     1       4.943   3.963  18.019  0.00  0.00    +0.000 N 
ATOM     22  H   UNL     1       4.506   4.188  17.132  0.00  0.00    +0.000 HD
BRANCH  21  23
ATOM     23  C   UNL     1       4.332   2.886  18.814  0.00  0.00    +0.000 C 
ATOM     24  C   UNL     1       3.272   3.373  19.777  0.00  0.00    +0.000 C 
ATOM     25  C   UNL     1       1.989   2.889  19.177  0.00  0.00    +0.000 C 
ATOM     26  O   UNL     1       0.879   3.171  19.601  0.00  0.00    +0.000 OA
ATOM     27  O   UNL     1       2.210   1.987  18.186  0.00  0.00    +0.000 OA
ATOM     28  C   UNL     1       3.603   1.770  18.052  0.00  0.00    +0.000 C 
BRANCH  28  29
ATOM     29  O   UNL     1       3.925   0.502  18.601  0.00  0.00    +0.000 OA
ATOM     30  H   UNL     1       3.228  -0.116  18.321  0.00  0.00    +0.000 HD
ENDBRANCH  28  29
ENDBRANCH  21  23
ENDBRANCH   1  19
BRANCH   1  31
ATOM     31  C   UNL     1       7.259   5.186  16.243  0.00  0.00    +0.000 C 
BRANCH  31  33
ATOM     32  C   UNL     1       6.346   3.766  14.302  0.00  0.00    +0.000 C 
ATOM     33  C   UNL     1       6.608   5.168  14.849  0.00  0.00    +0.000 C 
ATOM     34  C   UNL     1       5.271   5.922  14.945  0.00  0.00    +0.000 C 
ENDBRANCH  31  33
ENDBRANCH   1  31
TORSDOF 10
ENDMDL
MODEL 4
REMARK VINA RESULT:      -7.9      5.901      9.695
REMARK  Name = 
REMARK  12 active torsions:
REMARK  status: ('A' for Active; 'I' for Inactive)
REMARK    1  A    between atoms: C_1  and  C_2
REMARK    2  A    between atoms: C_2  and  C_3
REMARK    3  A    between atoms: C_2  and  C_4
REMARK    4  A    between atoms: C_4  and  C_5
REMARK    5  A    between atoms: C_5  and  N_6
REMARK    6  A    between atoms: C_5  and  C_22
REMARK    7  A    between atoms: C_7  and  C_9
REMARK    8  A    between atoms: C_9  and  C_10
REMARK    9  A    between atoms: C_10  and  S_11
REMARK   10  A    between atoms: S_11  and  C_12
REMARK   11  A    between atoms: N_24  and  C_25
REMARK   12  A    between atoms: C_30  and  O_31
REMARK                            x       y       z     vdW  Elec       q    Type
REMARK                         _______ _______ _______ _____ _____    ______ ____
ROOT
ATOM      1  C   UNL     1       6.286   5.859  17.711  0.00  0.00    +0.000 C 
ENDROOT
BRANCH   1   2
ATOM      2  N   UNL     1       7.339   6.683  18.317  0.00  0.00    +0.000 N 
ATOM      3  C   UNL     1       7.623   7.956  17.882  0.00  0.00    +0.000 C 
ATOM      4  O   UNL     1       6.967   8.529  17.018  0.00  0.00    +0.000 OA
ATOM      5  H   UNL     1       7.958   6.217  18.975  0.00  0.00    +0.000 HD
BRANCH   3   6
ATOM      6  C   UNL     1       8.821   8.598  18.551  0.00  0.00    +0.000 C 
BRANCH   6   7
ATOM      7  C   UNL     1       8.832  10.113  18.375  0.00  0.00    +0.000 C 
BRANCH   7   8
ATOM      8  S   UNL     1       9.558  10.933  19.843  0.00  0.00    +0.000 S 
BRANCH   8   9
ATOM      9  C   UNL     1      10.419  12.322  19.095  0.00  0.00    +0.000 A 
ATOM     10  C   UNL     1      10.940  12.071  17.817  0.00  0.00    +0.000 A 
ATOM     11  C   UNL     1      11.696  13.031  17.152  0.00  0.00    +0.000 A 
ATOM     12  C   UNL     1      11.937  14.257  17.761  0.00  0.00    +0.000 A 
ATOM     13  C   UNL     1      11.432  14.542  19.038  0.00  0.00    +0.000 A 
ATOM     14  C   UNL     1      11.701  15.789  19.624  0.00  0.00    +0.000 A 
ATOM     15  C   UNL     1      11.237  16.099  20.900  0.00  0.00    +0.000 A 
ATOM     16  C   UNL     1      10.505  15.159  21.611  0.00  0.00    +0.000 A 
ATOM     17  C   UNL     1      10.233  13.910  21.044  0.00  0.00    +0.000 A 
ATOM     18  C   UNL     1      10.670  13.569  19.739  0.00  0.00    +0.000 A 
ENDBRANCH   8   9
ENDBRANCH   7   8
ENDBRANCH   6   7
ENDBRANCH   3   6
ENDBRANCH   1   2
BRANCH   1  19
ATOM     19  C   UNL     1       5.607   5.103  18.882  0.00  0.00    +0.000 C 
ATOM     20  O   UNL     1       6.225   4.759  19.888  0.00  0.00    +0.000 OA
ATOM     21  N   UNL     1       4.270   4.819  18.716  0.00  0.00    +0.000 N 
ATOM     22  H   UNL     1       3.800   5.200  17.902  0.00  0.00    +0.000 HD
BRANCH  21  23
ATOM     23  C   UNL     1       3.440   4.092  19.690  0.00  0.00    +0.000 C 
ATOM     24  C   UNL     1       1.962   4.133  19.373  0.00  0.00    +0.000 C 
ATOM     25  C   UNL     1       1.651   2.741  18.920  0.00  0.00    +0.000 C 
ATOM     26  O   UNL     1       0.574   2.385  18.469  0.00  0.00    +0.000 OA
ATOM     27  O   UNL     1       2.670   1.885  19.199  0.00  0.00    +0.000 OA
ATOM     28  C   UNL     1       3.704   2.590  19.862  0.00  0.00    +0.000 C 
BRANCH  28  29
ATOM     29  O   UNL     1       3.691   2.237  21.237  0.00  0.00    +0.000 OA
ATOM     30  H   UNL     1       4.614   2.239  21.542  0.00  0.00    +0.000 HD
ENDBRANCH  28  29
ENDBRANCH  21  23
ENDBRANCH   1  19
BRANCH   1  31
ATOM     31  C   UNL     1       6.949   4.915  16.697  0.00  0.00    +0.000 C 
BRANCH  31  33
ATOM     32  C   UNL     1       6.265   3.716  14.526  0.00  0.00    +0.000 C 
ATOM     33  C   UNL     1       6.594   5.045  15.206  0.00  0.00    +0.000 C 
ATOM     34  C   UNL     1       5.375   5.976  15.092  0.00  0.00    +0.000 C 
ENDBRANCH  31  33
ENDBRANCH   1  31
TORSDOF 10
ENDMDL
MODEL 5
REMARK VINA RESULT:      -7.9      1.229      2.483
REMARK  Name = 
REMARK  12 active torsions:
REMARK  status: ('A' for Active; 'I' for Inactive)
REMARK    1  A    between atoms: C_1  and  C_2
REMARK    2  A    between atoms: C_2  and  C_3
REMARK    3  A    between atoms: C_2  and  C_4
REMARK    4  A    between atoms: C_4  and  C_5
REMARK    5  A    between atoms: C_5  and  N_6
REMARK    6  A    between atoms: C_5  and  C_22
REMARK    7  A    between atoms: C_7  and  C_9
REMARK    8  A    between atoms: C_9  and  C_10
REMARK    9  A    between atoms: C_10  and  S_11
REMARK   10  A    between atoms: S_11  and  C_12
REMARK   11  A    between atoms: N_24  and  C_25
REMARK   12  A    between atoms: C_30  and  O_31
REMARK                            x       y       z     vdW  Elec       q    Type
REMARK                         _______ _______ _______ _____ _____    ______ ____
ROOT
ATOM      1  C   UNL     1       2.762   5.392  18.613  0.00  0.00    +0.000 C 
ENDROOT
BRANCH   1   2
ATOM      2  N   UNL     1       2.557   6.702  17.982  0.00  0.00    +0.000 N 
ATOM      3  C   UNL     1       2.194   7.818  18.697  0.00  0.00    +0.000 C 
ATOM      4  O   UNL     1       2.097   7.827  19.921  0.00  0.00    +0.000 OA
ATOM      5  H   UNL     1       2.544   6.718  16.966  0.00  0.00    +0.000 HD
BRANCH   3   6
ATOM      6  C   UNL     1       1.913   9.044  17.852  0.00  0.00    +0.000 C 
BRANCH   6   7
ATOM      7  C   UNL     1       1.517  10.248  18.703  0.00  0.00    +0.000 C 
BRANCH   7   8
ATOM      8  S   UNL     1       0.347   9.755  20.022  0.00  0.00    +0.000 S 
BRANCH   8   9
ATOM      9  C   UNL     1      -1.061  10.819  19.674  0.00  0.00    +0.000 A 
ATOM     10  C   UNL     1      -1.372  11.733  20.693  0.00  0.00    +0.000 A 
ATOM     11  C   UNL     1      -2.482  12.563  20.592  0.00  0.00    +0.000 A 
ATOM     12  C   UNL     1      -3.294  12.492  19.466  0.00  0.00    +0.000 A 
ATOM     13  C   UNL     1      -3.012  11.590  18.429  0.00  0.00    +0.000 A 
ATOM     14  C   UNL     1      -3.858  11.540  17.309  0.00  0.00    +0.000 A 
ATOM     15  C   UNL     1      -3.625  10.642  16.270  0.00  0.00    +0.000 A 
ATOM     16  C   UNL     1      -2.546   9.772  16.345  0.00  0.00    +0.000 A 
ATOM     17  C   UNL     1      -1.698   9.805  17.456  0.00  0.00    +0.000 A 
ATOM     18  C   UNL     1      -1.892  10.722  18.520  0.00  0.00    +0.000 A 
ENDBRANCH   8   9
ENDBRANCH   7   8
ENDBRANCH   6   7
ENDBRANCH   3   6
ENDBRANCH   1   2
BRANCH   1  19
ATOM     19  C   UNL     1       4.270   5.071  18.453  0.00  0.00    +0.000 C 
ATOM     20  O   UNL     1       4.831   4.204  19.120  0.00  0.00    +0.000 OA
ATOM     21  N   UNL     1       4.950   5.835  17.530  0.00  0.00    +0.000 N 
ATOM     22  H   UNL     1       4.414   6.476  16.956  0.00  0.00    +0.000 HD
BRANCH  21  23
ATOM     23  C   UNL     1       6.387   5.713  17.237  0.00  0.00    +0.000 C 
ATOM     24  C   UNL     1       7.082   7.044  17.062  0.00  0.00    +0.000 C 
ATOM     25  C   UNL     1       7.922   7.177  18.294  0.00  0.00    +0.000 C 
ATOM     26  O   UNL     1       8.562   8.174  18.589  0.00  0.00    +0.000 OA
ATOM     27  O   UNL     1       7.995   6.006  18.979  0.00  0.00    +0.000 OA
ATOM     28  C   UNL     1       7.265   5.012  18.283  0.00  0.00    +0.000 C 
BRANCH  28  29
ATOM     29  O   UNL     1       8.179   4.128  17.652  0.00  0.00    +0.000 OA
ATOM     30  H   UNL     1       8.099   4.270  16.693  0.00  0.00    +0.000 HD
ENDBRANCH  28  29
ENDBRANCH  21  23
ENDBRANCH   1  19
BRANCH   1  31
ATOM     31  C   UNL     1       1.857   4.377  17.900  0.00  0.00    +0.000 C 
BRANCH  31  33
ATOM     32  C   UNL     1       1.961   1.992  18.858  0.00  0.00    +0.000 C 
ATOM     33  C   UNL     1       1.157   3.284  18.727  0.00  0.00    +0.000 C 
ATOM     34  C   UNL     1       0.895   3.852  20.132  0.00  0.00    +0.000 C 
ENDBRANCH  31  33
ENDBRANCH   1  31
TORSDOF 10
ENDMDL
MODEL 6
REMARK VINA RESULT:      -7.8      1.224      1.469
REMARK  Name = 
REMARK  12 active torsions:
REMARK  status: ('A' for Active; 'I' for Inactive)
REMARK    1  A    between atoms: C_1  and  C_2
REMARK    2  A    between atoms: C_2  and  C_3
REMARK    3  A    between atoms: C_2  and  C_4
REMARK    4  A    between atoms: C_4  and  C_5
REMARK    5  A    between atoms: C_5  and  N_6
REMARK    6  A    between atoms: C_5  and  C_22
REMARK    7  A    between atoms: C_7  and  C_9
REMARK    8  A    between atoms: C_9  and  C_10
REMARK    9  A    between atoms: C_10  and  S_11
REMARK   10  A    between atoms: S_11  and  C_12
REMARK   11  A    between atoms: N_24  and  C_25
REMARK   12  A    between atoms: C_30  and  O_31
REMARK                            x       y       z     vdW  Elec       q    Type
REMARK                         _______ _______ _______ _____ _____    ______ ____
ROOT
ATOM      1  C   UNL     1       3.123   5.396  19.452  0.00  0.00    +0.000 C 
ENDROOT
BRANCH   1   2
ATOM      2  N   UNL     1       2.936   6.487  18.488  0.00  0.00    +0.000 N 
ATOM      3  C   UNL     1       2.371   7.691  18.836  0.00  0.00    +0.000 C 
ATOM      4  O   UNL     1       2.060   7.976  19.989  0.00  0.00    +0.000 OA
ATOM      5  H   UNL     1       3.101   6.263  17.511  0.00  0.00    +0.000 HD
BRANCH   3   6
ATOM      6  C   UNL     1       2.153   8.643  17.678  0.00  0.00    +0.000 C 
BRANCH   6   7
ATOM      7  C   UNL     1       1.827  10.057  18.152  0.00  0.00    +0.000 C 
BRANCH   7   8
ATOM      8  S   UNL     1       0.747  10.014  19.630  0.00  0.00    +0.000 S 
BRANCH   8   9
ATOM      9  C   UNL     1      -0.842  10.486  18.934  0.00  0.00    +0.000 A 
ATOM     10  C   UNL     1      -1.087   9.994  17.643  0.00  0.00    +0.000 A 
ATOM     11  C   UNL     1      -2.242  10.344  16.953  0.00  0.00    +0.000 A 
ATOM     12  C   UNL     1      -3.169  11.191  17.549  0.00  0.00    +0.000 A 
ATOM     13  C   UNL     1      -2.956  11.701  18.838  0.00  0.00    +0.000 A 
ATOM     14  C   UNL     1      -3.911  12.559  19.407  0.00  0.00    +0.000 A 
ATOM     15  C   UNL     1      -3.724  13.105  20.675  0.00  0.00    +0.000 A 
ATOM     16  C   UNL     1      -2.569  12.807  21.386  0.00  0.00    +0.000 A 
ATOM     17  C   UNL     1      -1.606  11.959  20.832  0.00  0.00    +0.000 A 
ATOM     18  C   UNL     1      -1.775  11.367  19.554  0.00  0.00    +0.000 A 
ENDBRANCH   8   9
ENDBRANCH   7   8
ENDBRANCH   6   7
ENDBRANCH   3   6
ENDBRANCH   1   2
BRANCH   1  19
ATOM     19  C   UNL     1       4.414   4.656  19.015  0.00  0.00    +0.000 C 
ATOM     20  O   UNL     1       5.099   4.009  19.804  0.00  0.00    +0.000 OA
ATOM     21  N   UNL     1       4.759   4.787  17.688  0.00  0.00    +0.000 N 
ATOM     22  H   UNL     1       4.110   5.265  17.073  0.00  0.00    +0.000 HD
BRANCH  21  23
ATOM     23  C   UNL     1       5.953   4.188  17.070  0.00  0.00    +0.000 C 
ATOM     24  C   UNL     1       5.854   4.061  15.566  0.00  0.00    +0.000 C 
ATOM     25  C   UNL     1       6.802   5.099  15.053  0.00  0.00    +0.000 C 
ATOM     26  O   UNL     1       6.935   5.391  13.874  0.00  0.00    +0.000 OA
ATOM     27  O   UNL     1       7.598   5.582  16.042  0.00  0.00    +0.000 OA
ATOM     28  C   UNL     1       7.288   4.922  17.256  0.00  0.00    +0.000 C 
BRANCH  28  29
ATOM     29  O   UNL     1       8.325   3.998  17.552  0.00  0.00    +0.000 OA
ATOM     30  H   UNL     1       8.653   3.654  16.704  0.00  0.00    +0.000 HD
ENDBRANCH  28  29
ENDBRANCH  21  23
ENDBRANCH   1  19
BRANCH   1  31
ATOM     31  C   UNL     1       1.876   4.500  19.400  0.00  0.00    +0.000 C 
BRANCH  31  33
ATOM     32  C   UNL     1       1.397   2.778  21.250  0.00  0.00    +0.000 C 
ATOM     33  C   UNL     1       1.982   3.037  19.862  0.00  0.00    +0.000 C 
ATOM     34  C   UNL     1       1.237   2.165  18.838  0.00  0.00    +0.000 C 
ENDBRANCH  31  33
ENDBRANCH   1  31
TORSDOF 10
ENDMDL
MODEL 7
REMARK VINA RESULT:      -7.8      2.220      2.750
REMARK  Name = 
REMARK  12 active torsions:
REMARK  status: ('A' for Active; 'I' for Inactive)
REMARK    1  A    between atoms: C_1  and  C_2
REMARK    2  A    between atoms: C_2  and  C_3
REMARK    3  A    between atoms: C_2  and  C_4
REMARK    4  A    between atoms: C_4  and  C_5
REMARK    5  A    between atoms: C_5  and  N_6
REMARK    6  A    between atoms: C_5  and  C_22
REMARK    7  A    between atoms: C_7  and  C_9
REMARK    8  A    between atoms: C_9  and  C_10
REMARK    9  A    between atoms: C_10  and  S_11
REMARK   10  A    between atoms: S_11  and  C_12
REMARK   11  A    between atoms: N_24  and  C_25
REMARK   12  A    between atoms: C_30  and  O_31
REMARK                            x       y       z     vdW  Elec       q    Type
REMARK                         _______ _______ _______ _____ _____    ______ ____
ROOT
ATOM      1  C   UNL     1       3.283   5.315  19.710  0.00  0.00    +0.000 C 
ENDROOT
BRANCH   1   2
ATOM      2  N   UNL     1       2.961   6.363  18.734  0.00  0.00    +0.000 N 
ATOM      3  C   UNL     1       2.353   7.543  19.090  0.00  0.00    +0.000 C 
ATOM      4  O   UNL     1       2.113   7.847  20.255  0.00  0.00    +0.000 OA
ATOM      5  H   UNL     1       3.065   6.117  17.753  0.00  0.00    +0.000 HD
BRANCH   3   6
ATOM      6  C   UNL     1       1.994   8.444  17.927  0.00  0.00    +0.000 C 
BRANCH   6   7
ATOM      7  C   UNL     1       1.628   9.853  18.385  0.00  0.00    +0.000 C 
BRANCH   7   8
ATOM      8  S   UNL     1      -0.187  10.036  18.537  0.00  0.00    +0.000 S 
BRANCH   8   9
ATOM      9  C   UNL     1      -0.374  10.363  20.295  0.00  0.00    +0.000 A 
ATOM     10  C   UNL     1      -0.319   9.225  21.113  0.00  0.00    +0.000 A 
ATOM     11  C   UNL     1      -0.525   9.320  22.485  0.00  0.00    +0.000 A 
ATOM     12  C   UNL     1      -0.786  10.561  23.055  0.00  0.00    +0.000 A 
ATOM     13  C   UNL     1      -0.848  11.719  22.267  0.00  0.00    +0.000 A 
ATOM     14  C   UNL     1      -1.120  12.955  22.877  0.00  0.00    +0.000 A 
ATOM     15  C   UNL     1      -1.213  14.123  22.125  0.00  0.00    +0.000 A 
ATOM     16  C   UNL     1      -1.045  14.068  20.748  0.00  0.00    +0.000 A 
ATOM     17  C   UNL     1      -0.780  12.845  20.125  0.00  0.00    +0.000 A 
ATOM     18  C   UNL     1      -0.655  11.640  20.862  0.00  0.00    +0.000 A 
ENDBRANCH   8   9
ENDBRANCH   7   8
ENDBRANCH   6   7
ENDBRANCH   3   6
ENDBRANCH   1   2
BRANCH   1  19
ATOM     19  C   UNL     1       4.531   4.581  19.154  0.00  0.00    +0.000 C 
ATOM     20  O   UNL     1       5.248   3.876  19.861  0.00  0.00    +0.000 OA
ATOM     21  N   UNL     1       4.801   4.787  17.819  0.00  0.00    +0.000 N 
ATOM     22  H   UNL     1       4.127   5.313  17.273  0.00  0.00    +0.000 HD
BRANCH  21  23
ATOM     23  C   UNL     1       5.945   4.208  17.096  0.00  0.00    +0.000 C 
ATOM     24  C   UNL     1       5.717   4.085  15.606  0.00  0.00    +0.000 C 
ATOM     25  C   UNL     1       6.604   5.138  15.018  0.00  0.00    +0.000 C 
ATOM     26  O   UNL     1       6.630   5.436  13.834  0.00  0.00    +0.000 OA
ATOM     27  O   UNL     1       7.475   5.628  15.937  0.00  0.00    +0.000 OA
ATOM     28  C   UNL     1       7.282   4.959  17.170  0.00  0.00    +0.000 C 
BRANCH  28  29
ATOM     29  O   UNL     1       8.352   4.048  17.371  0.00  0.00    +0.000 OA
ATOM     30  H   UNL     1       8.804   3.946  16.515  0.00  0.00    +0.000 HD
ENDBRANCH  28  29
ENDBRANCH  21  23
ENDBRANCH   1  19
BRANCH   1  31
ATOM     31  C   UNL     1       2.059   4.395  19.838  0.00  0.00    +0.000 C 
BRANCH  31  33
ATOM     32  C   UNL     1       2.533   1.870  19.730  0.00  0.00    +0.000 C 
ATOM     33  C   UNL     1       1.999   3.104  19.005  0.00  0.00    +0.000 C 
ATOM     34  C   UNL     1       0.530   2.859  18.623  0.00  0.00    +0.000 C 
ENDBRANCH  31  33
ENDBRANCH   1  31
TORSDOF 10
ENDMDL
MODEL 8
REMARK VINA RESULT:      -7.7      0.876      2.075
REMARK  Name = 
REMARK  12 active torsions:
REMARK  status: ('A' for Active; 'I' for Inactive)
REMARK    1  A    between atoms: C_1  and  C_2
REMARK    2  A    between atoms: C_2  and  C_3
REMARK    3  A    between atoms: C_2  and  C_4
REMARK    4  A    between atoms: C_4  and  C_5
REMARK    5  A    between atoms: C_5  and  N_6
REMARK    6  A    between atoms: C_5  and  C_22
REMARK    7  A    between atoms: C_7  and  C_9
REMARK    8  A    between atoms: C_9  and  C_10
REMARK    9  A    between atoms: C_10  and  S_11
REMARK   10  A    between atoms: S_11  and  C_12
REMARK   11  A    between atoms: N_24  and  C_25
REMARK   12  A    between atoms: C_30  and  O_31
REMARK                            x       y       z     vdW  Elec       q    Type
REMARK                         _______ _______ _______ _____ _____    ______ ____
ROOT
ATOM      1  C   UNL     1       2.569   5.288  18.987  0.00  0.00    +0.000 C 
ENDROOT
BRANCH   1   2
ATOM      2  N   UNL     1       2.426   6.537  18.229  0.00  0.00    +0.000 N 
ATOM      3  C   UNL     1       2.210   7.751  18.837  0.00  0.00    +0.000 C 
ATOM      4  O   UNL     1       2.206   7.897  20.056  0.00  0.00    +0.000 OA
ATOM      5  H   UNL     1       2.338   6.448  17.220  0.00  0.00    +0.000 HD
BRANCH   3   6
ATOM      6  C   UNL     1       1.969   8.901  17.881  0.00  0.00    +0.000 C 
BRANCH   6   7
ATOM      7  C   UNL     1       1.455  10.145  18.600  0.00  0.00    +0.000 C 
BRANCH   7   8
ATOM      8  S   UNL     1       0.283   9.689  19.931  0.00  0.00    +0.000 S 
BRANCH   8   9
ATOM      9  C   UNL     1      -1.110  10.767  19.574  0.00  0.00    +0.000 A 
ATOM     10  C   UNL     1      -1.436  11.666  20.601  0.00  0.00    +0.000 A 
ATOM     11  C   UNL     1      -2.539  12.506  20.493  0.00  0.00    +0.000 A 
ATOM     12  C   UNL     1      -3.329  12.459  19.350  0.00  0.00    +0.000 A 
ATOM     13  C   UNL     1      -3.032  11.572  18.304  0.00  0.00    +0.000 A 
ATOM     14  C   UNL     1      -3.856  11.547  17.167  0.00  0.00    +0.000 A 
ATOM     15  C   UNL     1      -3.608  10.664  16.118  0.00  0.00    +0.000 A 
ATOM     16  C   UNL     1      -2.536   9.786  16.199  0.00  0.00    +0.000 A 
ATOM     17  C   UNL     1      -1.710   9.795  17.327  0.00  0.00    +0.000 A 
ATOM     18  C   UNL     1      -1.919  10.695  18.402  0.00  0.00    +0.000 A 
ENDBRANCH   8   9
ENDBRANCH   7   8
ENDBRANCH   6   7
ENDBRANCH   3   6
ENDBRANCH   1   2
BRANCH   1  19
ATOM     19  C   UNL     1       4.080   4.941  18.959  0.00  0.00    +0.000 C 
ATOM     20  O   UNL     1       4.531   3.927  19.487  0.00  0.00    +0.000 OA
ATOM     21  N   UNL     1       4.892   5.853  18.322  0.00  0.00    +0.000 N 
ATOM     22  H   UNL     1       4.450   6.627  17.837  0.00  0.00    +0.000 HD
BRANCH  21  23
ATOM     23  C   UNL     1       6.353   5.732  18.200  0.00  0.00    +0.000 C 
ATOM     24  C   UNL     1       6.791   4.639  17.250  0.00  0.00    +0.000 C 
ATOM     25  C   UNL     1       7.320   5.383  16.063  0.00  0.00    +0.000 C 
ATOM     26  O   UNL     1       7.676   4.857  15.021  0.00  0.00    +0.000 OA
ATOM     27  O   UNL     1       7.485   6.704  16.335  0.00  0.00    +0.000 OA
ATOM     28  C   UNL     1       7.123   6.955  17.680  0.00  0.00    +0.000 C 
BRANCH  28  29
ATOM     29  O   UNL     1       8.303   7.158  18.443  0.00  0.00    +0.000 OA
ATOM     30  H   UNL     1       8.105   6.886  19.355  0.00  0.00    +0.000 HD
ENDBRANCH  28  29
ENDBRANCH  21  23
ENDBRANCH   1  19
BRANCH   1  31
ATOM     31  C   UNL     1       1.699   4.220  18.308  0.00  0.00    +0.000 C 
BRANCH  31  33
ATOM     32  C   UNL     1       1.063   1.822  18.986  0.00  0.00    +0.000 C 
ATOM     33  C   UNL     1       0.806   3.316  19.176  0.00  0.00    +0.000 C 
ATOM     34  C   UNL     1       1.057   3.680  20.648  0.00  0.00    +0.000 C 
ENDBRANCH  31  33
ENDBRANCH   1  31
TORSDOF 10
ENDMDL
MODEL 9
REMARK VINA RESULT:      -7.7      1.133      2.491
REMARK  Name = 
REMARK  12 active torsions:
REMARK  status: ('A' for Active; 'I' for Inactive)
REMARK    1  A    between atoms: C_1  and  C_2
REMARK    2  A    between atoms: C_2  and  C_3
REMARK    3  A    between atoms: C_2  and  C_4
REMARK    4  A    between atoms: C_4  and  C_5
REMARK    5  A    between atoms: C_5  and  N_6
REMARK    6  A    between atoms: C_5  and  C_22
REMARK    7  A    between atoms: C_7  and  C_9
REMARK    8  A    between atoms: C_9  and  C_10
REMARK    9  A    between atoms: C_10  and  S_11
REMARK   10  A    between atoms: S_11  and  C_12
REMARK   11  A    between atoms: N_24  and  C_25
REMARK   12  A    between atoms: C_30  and  O_31
REMARK                            x       y       z     vdW  Elec       q    Type
REMARK                         _______ _______ _______ _____ _____    ______ ____
ROOT
ATOM      1  C   UNL     1       2.656   5.879  18.777  0.00  0.00    +0.000 C 
ENDROOT
BRANCH   1   2
ATOM      2  N   UNL     1       2.386   7.264  18.371  0.00  0.00    +0.000 N 
ATOM      3  C   UNL     1       1.810   8.183  19.217  0.00  0.00    +0.000 C 
ATOM      4  O   UNL     1       1.558   7.942  20.394  0.00  0.00    +0.000 OA
ATOM      5  H   UNL     1       2.501   7.478  17.385  0.00  0.00    +0.000 HD
BRANCH   3   6
ATOM      6  C   UNL     1       1.501   9.521  18.578  0.00  0.00    +0.000 C 
BRANCH   6   7
ATOM      7  C   UNL     1       1.117  10.575  19.612  0.00  0.00    +0.000 C 
BRANCH   7   8
ATOM      8  S   UNL     1       0.722  12.168  18.801  0.00  0.00    +0.000 S 
BRANCH   8   9
ATOM      9  C   UNL     1      -1.025  12.347  19.181  0.00  0.00    +0.000 A 
ATOM     10  C   UNL     1      -1.299  13.038  20.371  0.00  0.00    +0.000 A 
ATOM     11  C   UNL     1      -2.604  13.184  20.828  0.00  0.00    +0.000 A 
ATOM     12  C   UNL     1      -3.654  12.641  20.095  0.00  0.00    +0.000 A 
ATOM     13  C   UNL     1      -3.416  11.944  18.902  0.00  0.00    +0.000 A 
ATOM     14  C   UNL     1      -4.499  11.403  18.191  0.00  0.00    +0.000 A 
ATOM     15  C   UNL     1      -4.302  10.685  17.014  0.00  0.00    +0.000 A 
ATOM     16  C   UNL     1      -3.012  10.489  16.539  0.00  0.00    +0.000 A 
ATOM     17  C   UNL     1      -1.922  11.015  17.238  0.00  0.00    +0.000 A 
ATOM     18  C   UNL     1      -2.088  11.771  18.426  0.00  0.00    +0.000 A 
ENDBRANCH   8   9
ENDBRANCH   7   8
ENDBRANCH   6   7
ENDBRANCH   3   6
ENDBRANCH   1   2
BRANCH   1  19
ATOM     19  C   UNL     1       4.185   5.677  18.615  0.00  0.00    +0.000 C 
ATOM     20  O   UNL     1       4.870   5.132  19.479  0.00  0.00    +0.000 OA
ATOM     21  N   UNL     1       4.734   6.167  17.452  0.00  0.00    +0.000 N 
ATOM     22  H   UNL     1       4.105   6.532  16.745  0.00  0.00    +0.000 HD
BRANCH  21  23
ATOM     23  C   UNL     1       6.164   6.102  17.107  0.00  0.00    +0.000 C 
ATOM     24  C   UNL     1       7.071   6.643  18.190  0.00  0.00    +0.000 C 
ATOM     25  C   UNL     1       7.730   5.422  18.751  0.00  0.00    +0.000 C 
ATOM     26  O   UNL     1       8.464   5.420  19.727  0.00  0.00    +0.000 OA
ATOM     27  O   UNL     1       7.524   4.335  17.962  0.00  0.00    +0.000 OA
ATOM     28  C   UNL     1       6.762   4.716  16.831  0.00  0.00    +0.000 C 
BRANCH  28  29
ATOM     29  O   UNL     1       7.615   4.760  15.697  0.00  0.00    +0.000 OA
ATOM     30  H   UNL     1       7.320   5.507  15.146  0.00  0.00    +0.000 HD
ENDBRANCH  28  29
ENDBRANCH  21  23
ENDBRANCH   1  19
BRANCH   1  31
ATOM     31  C   UNL     1       1.833   4.952  17.871  0.00  0.00    +0.000 C 
BRANCH  31  33
ATOM     32  C   UNL     1       2.144   2.425  18.235  0.00  0.00    +0.000 C 
ATOM     33  C   UNL     1       1.258   3.650  18.453  0.00  0.00    +0.000 C 
ATOM     34  C   UNL     1       1.059   3.857  19.964  0.00  0.00    +0.000 C 
ENDBRANCH  31  33
ENDBRANCH   1  31
TORSDOF 10
ENDMDL
