MODEL 1
REMARK VINA RESULT:      -7.6      0.000      0.000
REMARK  Name = 
REMARK  3 active torsions:
REMARK  status: ('A' for Active; 'I' for Inactive)
REMARK    1  A    between atoms: S_2  and  N_4
REMARK    2  A    between atoms: S_2  and  C_17
REMARK    3  A    between atoms: N_4  and  C_5
REMARK                            x       y       z     vdW  Elec       q    Type
REMARK                         _______ _______ _______ _____ _____    ______ ____
ROOT
ATOM      1  N   UNL     1       7.033   4.200  15.908  0.00  0.00    +0.000 N 
ATOM      2  H   UNL     1       7.864   4.513  16.413  0.00  0.00    +0.000 HD
ENDROOT
BRANCH   1   3
ATOM      3  C   UNL     1       5.870   4.213  16.765  0.00  0.00    +0.000 A 
ATOM      4  C   UNL     1       5.907   4.704  18.047  0.00  0.00    +0.000 A 
ATOM      5  N   UNL     1       4.851   4.674  18.896  0.00  0.00    +0.000 NA
ATOM      6  C   UNL     1       3.713   4.095  18.474  0.00  0.00    +0.000 A 
ATOM      7  N   UNL     1       2.643   4.040  19.322  0.00  0.00    +0.000 N 
ATOM      8  C   UNL     1       2.683   4.623  20.661  0.00  0.00    +0.000 C 
ATOM      9  C   UNL     1       2.241   3.572  21.692  0.00  0.00    +0.000 C 
ATOM     10  O   UNL     1       0.962   3.003  21.358  0.00  0.00    +0.000 OA
ATOM     11  C   UNL     1       1.019   2.371  20.067  0.00  0.00    +0.000 C 
ATOM     12  C   UNL     1       1.394   3.375  18.963  0.00  0.00    +0.000 C 
ATOM     13  N   UNL     1       3.602   3.556  17.246  0.00  0.00    +0.000 NA
ATOM     14  C   UNL     1       4.678   3.611  16.428  0.00  0.00    +0.000 A 
ENDBRANCH   1   3
BRANCH   1  16
ATOM     15  O   UNL     1       5.757   6.129  14.789  0.00  0.00    +0.000 OA
ATOM     16  S   UNL     1       6.838   5.202  14.538  0.00  0.00    +0.000 S 
ATOM     17  O   UNL     1       8.164   5.648  14.166  0.00  0.00    +0.000 OA
BRANCH  16  18
ATOM     18  C   UNL     1       6.290   4.049  13.301  0.00  0.00    +0.000 A 
ATOM     19  C   UNL     1       4.930   3.979  12.972  0.00  0.00    +0.000 A 
ATOM     20  C   UNL     1       4.512   3.161  11.918  0.00  0.00    +0.000 A 
ATOM     21  C   UNL     1       5.450   2.421  11.197  0.00  0.00    +0.000 A 
ATOM     22  C   UNL     1       6.798   2.502  11.535  0.00  0.00    +0.000 A 
ATOM     23  F   UNL     1       7.695   1.801  10.830  0.00  0.00    +0.000 F 
ATOM     24  C   UNL     1       7.232   3.311  12.578  0.00  0.00    +0.000 A 
ENDBRANCH  16  18
ENDBRANCH   1  16
TORSDOF 3
ENDMDL
MODEL 2
REMARK VINA RESULT:      -7.4      0.956      1.390
REMARK  Name = 
REMARK  3 active torsions:
REMARK  status: ('A' for Active; 'I' for Inactive)
REMARK    1  A    between atoms: S_2  and  N_4
REMARK    2  A    between atoms: S_2  and  C_17
REMARK    3  A    between atoms: N_4  and  C_5
REMARK                            x       y       z     vdW  Elec       q    Type
REMARK                         _______ _______ _______ _____ _____    ______ ____
ROOT
ATOM      1  N   UNL     1       6.972   4.077  15.717  0.00  0.00    +0.000 N 
ATOM      2  H   UNL     1       7.838   4.286  16.218  0.00  0.00    +0.000 HD
ENDROOT
BRANCH   1   3
ATOM      3  C   UNL     1       5.831   4.144  16.601  0.00  0.00    +0.000 A 
ATOM      4  C   UNL     1       5.928   4.604  17.892  0.00  0.00    +0.000 A 
ATOM      5  N   UNL     1       4.891   4.621  18.765  0.00  0.00    +0.000 NA
ATOM      6  C   UNL     1       3.710   4.123  18.358  0.00  0.00    +0.000 A 
ATOM      7  N   UNL     1       2.659   4.117  19.230  0.00  0.00    +0.000 N 
ATOM      8  C   UNL     1       2.765   4.667  20.579  0.00  0.00    +0.000 C 
ATOM      9  C   UNL     1       2.281   3.623  21.599  0.00  0.00    +0.000 C 
ATOM     10  O   UNL     1       0.962   3.142  21.284  0.00  0.00    +0.000 OA
ATOM     11  C   UNL     1       0.951   2.535  19.980  0.00  0.00    +0.000 C 
ATOM     12  C   UNL     1       1.362   3.538  18.887  0.00  0.00    +0.000 C 
ATOM     13  N   UNL     1       3.538   3.619  17.123  0.00  0.00    +0.000 NA
ATOM     14  C   UNL     1       4.597   3.625  16.280  0.00  0.00    +0.000 A 
ENDBRANCH   1   3
BRANCH   1  16
ATOM     15  O   UNL     1       5.740   6.070  14.664  0.00  0.00    +0.000 OA
ATOM     16  S   UNL     1       6.841   5.169  14.410  0.00  0.00    +0.000 S 
ATOM     17  O   UNL     1       8.181   5.647  14.141  0.00  0.00    +0.000 OA
BRANCH  16  18
ATOM     18  C   UNL     1       6.371   4.100  13.069  0.00  0.00    +0.000 A 
ATOM     19  C   UNL     1       7.343   3.316  12.434  0.00  0.00    +0.000 A 
ATOM     20  C   UNL     1       6.959   2.388  11.461  0.00  0.00    +0.000 A 
ATOM     21  C   UNL     1       5.611   2.244  11.130  0.00  0.00    +0.000 A 
ATOM     22  C   UNL     1       4.657   3.029  11.771  0.00  0.00    +0.000 A 
ATOM     23  F   UNL     1       3.364   2.877  11.459  0.00  0.00    +0.000 F 
ATOM     24  C   UNL     1       5.019   3.956  12.741  0.00  0.00    +0.000 A 
ENDBRANCH  16  18
ENDBRANCH   1  16
TORSDOF 3
ENDMDL
MODEL 3
REMARK VINA RESULT:      -7.3      4.346      5.583
REMARK  Name = 
REMARK  3 active torsions:
REMARK  status: ('A' for Active; 'I' for Inactive)
REMARK    1  A    between atoms: S_2  and  N_4
REMARK    2  A    between atoms: S_2  and  C_17
REMARK    3  A    between atoms: N_4  and  C_5
REMARK                            x       y       z     vdW  Elec       q    Type
REMARK                         _______ _______ _______ _____ _____    ______ ____
ROOT
ATOM      1  N   UNL     1       2.944   4.915  18.282  0.00  0.00    +0.000 N 
ATOM      2  H   UNL     1       2.292   4.139  18.414  0.00  0.00    +0.000 HD
ENDROOT
BRANCH   1   3
ATOM      3  C   UNL     1       2.524   6.079  19.028  0.00  0.00    +0.000 A 
ATOM      4  C   UNL     1       2.113   6.004  20.336  0.00  0.00    +0.000 A 
ATOM      5  N   UNL     1       1.655   7.065  21.043  0.00  0.00    +0.000 NA
ATOM      6  C   UNL     1       1.560   8.252  20.418  0.00  0.00    +0.000 A 
ATOM      7  N   UNL     1       1.084   9.329  21.111  0.00  0.00    +0.000 N 
ATOM      8  C   UNL     1       0.709   9.243  22.520  0.00  0.00    +0.000 C 
ATOM      9  C   UNL     1      -0.712   9.798  22.708  0.00  0.00    +0.000 C 
ATOM     10  O   UNL     1      -0.842  11.125  22.166  0.00  0.00    +0.000 OA
ATOM     11  C   UNL     1      -0.543  11.120  20.759  0.00  0.00    +0.000 C 
ATOM     12  C   UNL     1       0.892  10.636  20.488  0.00  0.00    +0.000 C 
ATOM     13  N   UNL     1       1.907   8.405  19.128  0.00  0.00    +0.000 NA
ATOM     14  C   UNL     1       2.364   7.322  18.458  0.00  0.00    +0.000 A 
ENDBRANCH   1   3
BRANCH   1  16
ATOM     15  O   UNL     1       5.055   5.319  19.689  0.00  0.00    +0.000 OA
ATOM     16  S   UNL     1       4.501   4.381  18.739  0.00  0.00    +0.000 S 
ATOM     17  O   UNL     1       4.379   2.969  19.034  0.00  0.00    +0.000 OA
BRANCH  16  18
ATOM     18  C   UNL     1       5.416   4.538  17.223  0.00  0.00    +0.000 A 
ATOM     19  C   UNL     1       6.800   4.748  17.267  0.00  0.00    +0.000 A 
ATOM     20  C   UNL     1       7.539   4.753  16.080  0.00  0.00    +0.000 A 
ATOM     21  C   UNL     1       6.896   4.546  14.858  0.00  0.00    +0.000 A 
ATOM     22  C   UNL     1       5.521   4.338  14.831  0.00  0.00    +0.000 A 
ATOM     23  F   UNL     1       4.911   4.126  13.658  0.00  0.00    +0.000 F 
ATOM     24  C   UNL     1       4.769   4.328  16.001  0.00  0.00    +0.000 A 
ENDBRANCH  16  18
ENDBRANCH   1  16
TORSDOF 3
ENDMDL
MODEL 4
REMARK VINA RESULT:      -7.3      3.946      5.442
REMARK  Name = 
REMARK  3 active torsions:
REMARK  status: ('A' for Active; 'I' for Inactive)
REMARK    1  A    between atoms: S_2  and  N_4
REMARK    2  A    between atoms: S_2  and  C_17
REMARK    3  A    between atoms: N_4  and  C_5
REMARK                            x       y       z     vdW  Elec       q    Type
REMARK                         _______ _______ _______ _____ _____    ______ ____
ROOT
ATOM      1  N   UNL     1       3.804   4.082  19.530  0.00  0.00    +0.000 N 
ATOM      2  H   UNL     1       4.791   4.336  19.603  0.00  0.00    +0.000 HD
ENDROOT
BRANCH   1   3
ATOM      3  C   UNL     1       2.953   5.214  19.812  0.00  0.00    +0.000 A 
ATOM      4  C   UNL     1       3.127   6.434  19.203  0.00  0.00    +0.000 A 
ATOM      5  N   UNL     1       2.387   7.531  19.492  0.00  0.00    +0.000 NA
ATOM      6  C   UNL     1       1.455   7.434  20.456  0.00  0.00    +0.000 A 
ATOM      7  N   UNL     1       0.711   8.536  20.773  0.00  0.00    +0.000 N 
ATOM      8  C   UNL     1       0.868   9.807  20.071  0.00  0.00    +0.000 C 
ATOM      9  C   UNL     1       1.084  10.934  21.093  0.00  0.00    +0.000 C 
ATOM     10  O   UNL     1       0.043  10.959  22.087  0.00  0.00    +0.000 OA
ATOM     11  C   UNL     1       0.002   9.709  22.797  0.00  0.00    +0.000 C 
ATOM     12  C   UNL     1      -0.276   8.530  21.849  0.00  0.00    +0.000 C 
ATOM     13  N   UNL     1       1.245   6.288  21.129  0.00  0.00    +0.000 NA
ATOM     14  C   UNL     1       2.002   5.214  20.808  0.00  0.00    +0.000 A 
ENDBRANCH   1   3
BRANCH   1  16
ATOM     15  O   UNL     1       3.637   2.005  18.026  0.00  0.00    +0.000 OA
ATOM     16  S   UNL     1       3.536   3.446  17.967  0.00  0.00    +0.000 S 
ATOM     17  O   UNL     1       2.360   4.114  17.449  0.00  0.00    +0.000 OA
BRANCH  16  18
ATOM     18  C   UNL     1       4.942   4.053  17.065  0.00  0.00    +0.000 A 
ATOM     19  C   UNL     1       6.081   4.480  17.761  0.00  0.00    +0.000 A 
ATOM     20  C   UNL     1       7.230   4.845  17.054  0.00  0.00    +0.000 A 
ATOM     21  C   UNL     1       7.240   4.781  15.660  0.00  0.00    +0.000 A 
ATOM     22  C   UNL     1       6.102   4.354  14.983  0.00  0.00    +0.000 A 
ATOM     23  F   UNL     1       6.121   4.280  13.646  0.00  0.00    +0.000 F 
ATOM     24  C   UNL     1       4.950   3.985  15.668  0.00  0.00    +0.000 A 
ENDBRANCH  16  18
ENDBRANCH   1  16
TORSDOF 3
ENDMDL
MODEL 5
REMARK VINA RESULT:      -7.2      4.582      5.729
REMARK  Name = 
REMARK  3 active torsions:
REMARK  status: ('A' for Active; 'I' for Inactive)
REMARK    1  A    between atoms: S_2  and  N_4
REMARK    2  A    between atoms: S_2  and  C_17
REMARK    3  A    between atoms: N_4  and  C_5
REMARK                            x       y       z     vdW  Elec       q    Type
REMARK                         _______ _______ _______ _____ _____    ______ ____
ROOT
ATOM      1  N   UNL     1       3.069   4.675  18.566  0.00  0.00    +0.000 N 
ATOM      2  H   UNL     1       2.498   3.988  19.062  0.00  0.00    +0.000 HD
ENDROOT
BRANCH   1   3
ATOM      3  C   UNL     1       2.656   6.022  18.886  0.00  0.00    +0.000 A 
ATOM      4  C   UNL     1       2.139   6.360  20.113  0.00  0.00    +0.000 A 
ATOM      5  N   UNL     1       1.686   7.599  20.423  0.00  0.00    +0.000 NA
ATOM      6  C   UNL     1       1.706   8.542  19.464  0.00  0.00    +0.000 A 
ATOM      7  N   UNL     1       1.237   9.791  19.754  0.00  0.00    +0.000 N 
ATOM      8  C   UNL     1       0.748  10.149  21.083  0.00  0.00    +0.000 C 
ATOM      9  C   UNL     1      -0.651  10.775  20.964  0.00  0.00    +0.000 C 
ATOM     10  O   UNL     1      -0.665  11.877  20.039  0.00  0.00    +0.000 OA
ATOM     11  C   UNL     1      -0.257  11.436  18.732  0.00  0.00    +0.000 C 
ATOM     12  C   UNL     1       1.166  10.852  18.752  0.00  0.00    +0.000 C 
ATOM     13  N   UNL     1       2.161   8.285  18.225  0.00  0.00    +0.000 NA
ATOM     14  C   UNL     1       2.609   7.037  17.957  0.00  0.00    +0.000 A 
ENDBRANCH   1   3
BRANCH   1  16
ATOM     15  O   UNL     1       5.174   5.463  19.812  0.00  0.00    +0.000 OA
ATOM     16  S   UNL     1       4.705   4.389  18.966  0.00  0.00    +0.000 S 
ATOM     17  O   UNL     1       4.791   3.000  19.367  0.00  0.00    +0.000 OA
BRANCH  16  18
ATOM     18  C   UNL     1       5.513   4.545  17.390  0.00  0.00    +0.000 A 
ATOM     19  C   UNL     1       6.900   4.736  17.338  0.00  0.00    +0.000 A 
ATOM     20  C   UNL     1       7.554   4.741  16.103  0.00  0.00    +0.000 A 
ATOM     21  C   UNL     1       6.825   4.552  14.928  0.00  0.00    +0.000 A 
ATOM     22  C   UNL     1       5.448   4.362  14.996  0.00  0.00    +0.000 A 
ATOM     23  F   UNL     1       4.754   4.167  13.867  0.00  0.00    +0.000 F 
ATOM     24  C   UNL     1       4.780   4.353  16.215  0.00  0.00    +0.000 A 
ENDBRANCH  16  18
ENDBRANCH   1  16
TORSDOF 3
ENDMDL
MODEL 6
REMARK VINA RESULT:      -7.1      1.123      1.673
REMARK  Name = 
REMARK  3 active torsions:
REMARK  status: ('A' for Active; 'I' for Inactive)
REMARK    1  A    between atoms: S_2  and  N_4
REMARK    2  A    between atoms: S_2  and  C_17
REMARK    3  A    between atoms: N_4  and  C_5
REMARK                            x       y       z     vdW  Elec       q    Type
REMARK                         _______ _______ _______ _____ _____    ______ ____
ROOT
ATOM      1  N   UNL     1       5.781   5.888  14.834  0.00  0.00    +0.000 N 
ATOM      2  H   UNL     1       5.100   5.902  14.072  0.00  0.00    +0.000 HD
ENDROOT
BRANCH   1   3
ATOM      3  C   UNL     1       5.181   5.409  16.057  0.00  0.00    +0.000 A 
ATOM      4  C   UNL     1       4.922   4.078  16.276  0.00  0.00    +0.000 A 
ATOM      5  N   UNL     1       4.304   3.603  17.385  0.00  0.00    +0.000 NA
ATOM      6  C   UNL     1       3.886   4.489  18.307  0.00  0.00    +0.000 A 
ATOM      7  N   UNL     1       3.245   4.029  19.423  0.00  0.00    +0.000 N 
ATOM      8  C   UNL     1       3.034   2.605  19.667  0.00  0.00    +0.000 C 
ATOM      9  C   UNL     1       1.548   2.351  19.969  0.00  0.00    +0.000 C 
ATOM     10  O   UNL     1       1.071   3.187  21.039  0.00  0.00    +0.000 OA
ATOM     11  C   UNL     1       1.229   4.575  20.695  0.00  0.00    +0.000 C 
ATOM     12  C   UNL     1       2.705   4.928  20.439  0.00  0.00    +0.000 C 
ATOM     13  N   UNL     1       4.065   5.813  18.154  0.00  0.00    +0.000 NA
ATOM     14  C   UNL     1       4.690   6.245  17.035  0.00  0.00    +0.000 A 
ENDBRANCH   1   3
BRANCH   1  16
ATOM     15  O   UNL     1       8.058   5.764  13.650  0.00  0.00    +0.000 OA
ATOM     16  S   UNL     1       7.105   4.926  14.343  0.00  0.00    +0.000 S 
ATOM     17  O   UNL     1       7.477   4.126  15.491  0.00  0.00    +0.000 OA
BRANCH  16  18
ATOM     18  C   UNL     1       6.362   3.842  13.147  0.00  0.00    +0.000 A 
ATOM     19  C   UNL     1       5.000   3.968  12.848  0.00  0.00    +0.000 A 
ATOM     20  C   UNL     1       4.439   3.198  11.824  0.00  0.00    +0.000 A 
ATOM     21  C   UNL     1       5.239   2.312  11.102  0.00  0.00    +0.000 A 
ATOM     22  C   UNL     1       6.592   2.199  11.409  0.00  0.00    +0.000 A 
ATOM     23  F   UNL     1       7.358   1.357  10.704  0.00  0.00    +0.000 F 
ATOM     24  C   UNL     1       7.167   2.956  12.423  0.00  0.00    +0.000 A 
ENDBRANCH  16  18
ENDBRANCH   1  16
TORSDOF 3
ENDMDL
MODEL 7
REMARK VINA RESULT:      -7.1      4.223      5.700
REMARK  Name = 
REMARK  3 active torsions:
REMARK  status: ('A' for Active; 'I' for Inactive)
REMARK    1  A    between atoms: S_2  and  N_4
REMARK    2  A    between atoms: S_2  and  C_17
REMARK    3  A    between atoms: N_4  and  C_5
REMARK                            x       y       z     vdW  Elec       q    Type
REMARK                         _______ _______ _______ _____ _____    ______ ____
ROOT
ATOM      1  N   UNL     1       3.682   4.001  19.592  0.00  0.00    +0.000 N 
ATOM      2  H   UNL     1       4.672   4.209  19.737  0.00  0.00    +0.000 HD
ENDROOT
BRANCH   1   3
ATOM      3  C   UNL     1       2.864   5.164  19.849  0.00  0.00    +0.000 A 
ATOM      4  C   UNL     1       3.086   6.370  19.230  0.00  0.00    +0.000 A 
ATOM      5  N   UNL     1       2.377   7.494  19.495  0.00  0.00    +0.000 NA
ATOM      6  C   UNL     1       1.427   7.437  20.445  0.00  0.00    +0.000 A 
ATOM      7  N   UNL     1       0.715   8.565  20.738  0.00  0.00    +0.000 N 
ATOM      8  C   UNL     1       0.924   9.823  20.026  0.00  0.00    +0.000 C 
ATOM      9  C   UNL     1       1.159  10.954  21.040  0.00  0.00    +0.000 C 
ATOM     10  O   UNL     1       0.104  11.023  22.016  0.00  0.00    +0.000 OA
ATOM     11  C   UNL     1       0.011   9.783  22.738  0.00  0.00    +0.000 C 
ATOM     12  C   UNL     1      -0.289   8.602  21.798  0.00  0.00    +0.000 C 
ATOM     13  N   UNL     1       1.170   6.305  21.126  0.00  0.00    +0.000 NA
ATOM     14  C   UNL     1       1.897   5.204  20.828  0.00  0.00    +0.000 A 
ENDBRANCH   1   3
BRANCH   1  16
ATOM     15  O   UNL     1       3.618   1.977  18.011  0.00  0.00    +0.000 OA
ATOM     16  S   UNL     1       3.493   3.417  17.998  0.00  0.00    +0.000 S 
ATOM     17  O   UNL     1       2.327   4.082  17.454  0.00  0.00    +0.000 OA
BRANCH  16  18
ATOM     18  C   UNL     1       4.924   4.080  17.179  0.00  0.00    +0.000 A 
ATOM     19  C   UNL     1       4.916   4.235  15.787  0.00  0.00    +0.000 A 
ATOM     20  C   UNL     1       5.991   4.865  15.153  0.00  0.00    +0.000 A 
ATOM     21  C   UNL     1       7.064   5.341  15.908  0.00  0.00    +0.000 A 
ATOM     22  C   UNL     1       7.056   5.181  17.291  0.00  0.00    +0.000 A 
ATOM     23  F   UNL     1       8.081   5.652  18.012  0.00  0.00    +0.000 F 
ATOM     24  C   UNL     1       5.996   4.558  17.939  0.00  0.00    +0.000 A 
ENDBRANCH  16  18
ENDBRANCH   1  16
TORSDOF 3
ENDMDL
MODEL 8
REMARK VINA RESULT:      -7.1      5.568      7.715
REMARK  Name = 
REMARK  3 active torsions:
REMARK  status: ('A' for Active; 'I' for Inactive)
REMARK    1  A    between atoms: S_2  and  N_4
REMARK    2  A    between atoms: S_2  and  C_17
REMARK    3  A    between atoms: N_4  and  C_5
REMARK                            x       y       z     vdW  Elec       q    Type
REMARK                         _______ _______ _______ _____ _____    ______ ____
ROOT
ATOM      1  N   UNL     1       3.569   6.234  18.293  0.00  0.00    +0.000 N 
ATOM      2  H   UNL     1       4.175   6.509  17.517  0.00  0.00    +0.000 HD
ENDROOT
BRANCH   1   3
ATOM      3  C   UNL     1       2.649   7.293  18.635  0.00  0.00    +0.000 A 
ATOM      4  C   UNL     1       2.322   8.296  17.755  0.00  0.00    +0.000 A 
ATOM      5  N   UNL     1       1.511   9.336  18.066  0.00  0.00    +0.000 NA
ATOM      6  C   UNL     1       1.030   9.414  19.319  0.00  0.00    +0.000 A 
ATOM      7  N   UNL     1       0.226  10.466  19.655  0.00  0.00    +0.000 N 
ATOM      8  C   UNL     1      -0.161  11.489  18.687  0.00  0.00    +0.000 C 
ATOM      9  C   UNL     1       0.152  12.881  19.260  0.00  0.00    +0.000 C 
ATOM     10  O   UNL     1      -0.445  13.071  20.555  0.00  0.00    +0.000 OA
ATOM     11  C   UNL     1       0.045  12.084  21.480  0.00  0.00    +0.000 C 
ATOM     12  C   UNL     1      -0.286  10.656  21.010  0.00  0.00    +0.000 C 
ATOM     13  N   UNL     1       1.331   8.495  20.254  0.00  0.00    +0.000 NA
ATOM     14  C   UNL     1       2.140   7.469  19.902  0.00  0.00    +0.000 A 
ENDBRANCH   1   3
BRANCH   1  16
ATOM     15  O   UNL     1       1.402   5.117  17.482  0.00  0.00    +0.000 OA
ATOM     16  S   UNL     1       2.762   4.795  17.848  0.00  0.00    +0.000 S 
ATOM     17  O   UNL     1       3.653   4.086  16.953  0.00  0.00    +0.000 OA
BRANCH  16  18
ATOM     18  C   UNL     1       2.715   3.898  19.383  0.00  0.00    +0.000 A 
ATOM     19  C   UNL     1       1.524   3.844  20.117  0.00  0.00    +0.000 A 
ATOM     20  C   UNL     1       1.449   3.044  21.261  0.00  0.00    +0.000 A 
ATOM     21  C   UNL     1       2.559   2.299  21.663  0.00  0.00    +0.000 A 
ATOM     22  C   UNL     1       3.735   2.361  20.922  0.00  0.00    +0.000 A 
ATOM     23  F   UNL     1       4.792   1.634  21.304  0.00  0.00    +0.000 F 
ATOM     24  C   UNL     1       3.827   3.151  19.781  0.00  0.00    +0.000 A 
ENDBRANCH  16  18
ENDBRANCH   1  16
TORSDOF 3
ENDMDL
MODEL 9
REMARK VINA RESULT:      -7.0      0.724      1.577
REMARK  Name = 
REMARK  3 active torsions:
REMARK  status: ('A' for Active; 'I' for Inactive)
REMARK    1  A    between atoms: S_2  and  N_4
REMARK    2  A    between atoms: S_2  and  C_17
REMARK    3  A    between atoms: N_4  and  C_5
REMARK                            x       y       z     vdW  Elec       q    Type
REMARK                         _______ _______ _______ _____ _____    ______ ____
ROOT
ATOM      1  N   UNL     1       7.499   4.295  15.724  0.00  0.00    +0.000 N 
ATOM      2  H   UNL     1       8.314   4.733  16.159  0.00  0.00    +0.000 HD
ENDROOT
BRANCH   1   3
ATOM      3  C   UNL     1       6.438   4.103  16.686  0.00  0.00    +0.000 A 
ATOM      4  C   UNL     1       5.384   3.252  16.457  0.00  0.00    +0.000 A 
ATOM      5  N   UNL     1       4.343   3.097  17.311  0.00  0.00    +0.000 NA
ATOM      6  C   UNL     1       4.320   3.847  18.427  0.00  0.00    +0.000 A 
ATOM      7  N   UNL     1       3.269   3.717  19.290  0.00  0.00    +0.000 N 
ATOM      8  C   UNL     1       2.188   2.762  19.060  0.00  0.00    +0.000 C 
ATOM      9  C   UNL     1       0.835   3.486  19.150  0.00  0.00    +0.000 C 
ATOM     10  O   UNL     1       0.699   4.210  20.386  0.00  0.00    +0.000 OA
ATOM     11  C   UNL     1       1.744   5.191  20.507  0.00  0.00    +0.000 C 
ATOM     12  C   UNL     1       3.137   4.538  20.491  0.00  0.00    +0.000 C 
ATOM     13  N   UNL     1       5.293   4.732  18.710  0.00  0.00    +0.000 NA
ATOM     14  C   UNL     1       6.317   4.853  17.834  0.00  0.00    +0.000 A 
ENDBRANCH   1   3
BRANCH   1  16
ATOM     15  O   UNL     1       5.912   6.109  14.835  0.00  0.00    +0.000 OA
ATOM     16  S   UNL     1       7.011   5.272  14.410  0.00  0.00    +0.000 S 
ATOM     17  O   UNL     1       8.222   5.824  13.839  0.00  0.00    +0.000 OA
BRANCH  16  18
ATOM     18  C   UNL     1       6.372   4.074  13.264  0.00  0.00    +0.000 A 
ATOM     19  C   UNL     1       4.993   4.013  13.022  0.00  0.00    +0.000 A 
ATOM     20  C   UNL     1       4.500   3.154  12.035  0.00  0.00    +0.000 A 
ATOM     21  C   UNL     1       5.381   2.366  11.293  0.00  0.00    +0.000 A 
ATOM     22  C   UNL     1       6.747   2.439  11.545  0.00  0.00    +0.000 A 
ATOM     23  F   UNL     1       7.590   1.691  10.821  0.00  0.00    +0.000 F 
ATOM     24  C   UNL     1       7.257   3.287  12.521  0.00  0.00    +0.000 A 
ENDBRANCH  16  18
ENDBRANCH   1  16
TORSDOF 3
ENDMDL
