MODEL 1
REMARK VINA RESULT:      -7.9      0.000      0.000
REMARK  Name = 
REMARK  7 active torsions:
REMARK  status: ('A' for Active; 'I' for Inactive)
REMARK    1  A    between atoms: C_1  and  C_2
REMARK    2  A    between atoms: C_2  and  C_3
REMARK    3  A    between atoms: C_3  and  C_4
REMARK    4  A    between atoms: C_4  and  C_5
REMARK    5  A    between atoms: C_5  and  C_6
REMARK    6  A    between atoms: C_5  and  C_8
REMARK    7  A    between atoms: C_6  and  C_7
REMARK                            x       y       z     vdW  Elec       q    Type
REMARK                         _______ _______ _______ _____ _____    ______ ____
ROOT
ATOM      1  C   UNL     1       6.660   5.237  14.990  0.00  0.00    +0.000 C 
ATOM      2  O   UNL     1       7.297   5.936  15.779  0.00  0.00    +0.000 OA
ATOM      3  N   UNL     1       5.297   5.022  15.099  0.00  0.00    +0.000 N 
ATOM      4  C   UNL     1       4.583   5.546  16.187  0.00  0.00    +0.000 A 
ATOM      5  C   UNL     1       4.651   6.894  16.505  0.00  0.00    +0.000 A 
ATOM      6  C   UNL     1       3.966   7.341  17.620  0.00  0.00    +0.000 A 
ATOM      7  C   UNL     1       3.272   6.432  18.423  0.00  0.00    +0.000 A 
ATOM      8  C   UNL     1       2.654   6.877  19.594  0.00  0.00    +0.000 A 
ATOM      9  C   UNL     1       2.013   5.973  20.425  0.00  0.00    +0.000 A 
ATOM     10  C   UNL     1       1.983   4.619  20.087  0.00  0.00    +0.000 A 
ATOM     11  C   UNL     1       1.355   3.707  20.947  0.00  0.00    +0.000 A 
ATOM     12  C   UNL     1       1.332   2.360  20.634  0.00  0.00    +0.000 A 
ATOM     13  C   UNL     1       1.931   1.969  19.452  0.00  0.00    +0.000 A 
ATOM     14  N   UNL     1       2.535   2.822  18.594  0.00  0.00    +0.000 NA
ATOM     15  C   UNL     1       2.581   4.150  18.891  0.00  0.00    +0.000 A 
ATOM     16  C   UNL     1       3.234   5.066  18.039  0.00  0.00    +0.000 A 
ATOM     17  N   UNL     1       3.841   4.665  16.885  0.00  0.00    +0.000 NA
ATOM     18  H   UNL     1       4.949   4.117  14.819  0.00  0.00    +0.000 HD
ENDROOT
BRANCH   1  19
ATOM     19  C   UNL     1       7.343   4.602  13.760  0.00  0.00    +0.000 C 
BRANCH  19  20
ATOM     20  C   UNL     1       8.361   5.512  13.046  0.00  0.00    +0.000 C 
ATOM     21  C   UNL     1       7.892   6.106  11.725  0.00  0.00    +0.000 C 
ENDBRANCH  19  20
BRANCH  19  22
ATOM     22  C   UNL     1       6.247   4.034  12.814  0.00  0.00    +0.000 C 
BRANCH  22  23
ATOM     23  C   UNL     1       6.627   2.742  12.085  0.00  0.00    +0.000 C 
BRANCH  23  25
ATOM     24  C   UNL     1       4.249   3.097  11.337  0.00  0.00    +0.000 C 
ATOM     25  C   UNL     1       5.432   2.140  11.336  0.00  0.00    +0.000 C 
ENDBRANCH  23  25
ENDBRANCH  22  23
ENDBRANCH  19  22
ENDBRANCH   1  19
TORSDOF 5
ENDMDL
MODEL 2
REMARK VINA RESULT:      -7.7      1.045      1.274
REMARK  Name = 
REMARK  7 active torsions:
REMARK  status: ('A' for Active; 'I' for Inactive)
REMARK    1  A    between atoms: C_1  and  C_2
REMARK    2  A    between atoms: C_2  and  C_3
REMARK    3  A    between atoms: C_3  and  C_4
REMARK    4  A    between atoms: C_4  and  C_5
REMARK    5  A    between atoms: C_5  and  C_6
REMARK    6  A    between atoms: C_5  and  C_8
REMARK    7  A    between atoms: C_6  and  C_7
REMARK                            x       y       z     vdW  Elec       q    Type
REMARK                         _______ _______ _______ _____ _____    ______ ____
ROOT
ATOM      1  C   UNL     1       6.537   4.235  14.271  0.00  0.00    +0.000 C 
ATOM      2  O   UNL     1       7.432   4.451  15.088  0.00  0.00    +0.000 OA
ATOM      3  N   UNL     1       5.207   4.543  14.504  0.00  0.00    +0.000 N 
ATOM      4  C   UNL     1       4.810   5.060  15.746  0.00  0.00    +0.000 A 
ATOM      5  C   UNL     1       5.426   6.179  16.287  0.00  0.00    +0.000 A 
ATOM      6  C   UNL     1       5.025   6.609  17.538  0.00  0.00    +0.000 A 
ATOM      7  C   UNL     1       4.057   5.892  18.245  0.00  0.00    +0.000 A 
ATOM      8  C   UNL     1       3.718   6.284  19.543  0.00  0.00    +0.000 A 
ATOM      9  C   UNL     1       2.802   5.543  20.273  0.00  0.00    +0.000 A 
ATOM     10  C   UNL     1       2.217   4.410  19.707  0.00  0.00    +0.000 A 
ATOM     11  C   UNL     1       1.311   3.652  20.461  0.00  0.00    +0.000 A 
ATOM     12  C   UNL     1       0.735   2.516  19.920  0.00  0.00    +0.000 A 
ATOM     13  C   UNL     1       1.078   2.183  18.625  0.00  0.00    +0.000 A 
ATOM     14  N   UNL     1       1.938   2.897  17.865  0.00  0.00    +0.000 NA
ATOM     15  C   UNL     1       2.527   4.010  18.383  0.00  0.00    +0.000 A 
ATOM     16  C   UNL     1       3.457   4.760  17.634  0.00  0.00    +0.000 A 
ATOM     17  N   UNL     1       3.805   4.408  16.362  0.00  0.00    +0.000 NA
ATOM     18  H   UNL     1       4.514   3.923  14.113  0.00  0.00    +0.000 HD
ENDROOT
BRANCH   1  19
ATOM     19  C   UNL     1       6.856   3.659  12.875  0.00  0.00    +0.000 C 
BRANCH  19  20
ATOM     20  C   UNL     1       7.496   4.662  11.895  0.00  0.00    +0.000 C 
ATOM     21  C   UNL     1       8.271   5.802  12.542  0.00  0.00    +0.000 C 
ENDBRANCH  19  20
BRANCH  19  22
ATOM     22  C   UNL     1       5.582   2.967  12.312  0.00  0.00    +0.000 C 
BRANCH  22  23
ATOM     23  C   UNL     1       4.636   3.886  11.533  0.00  0.00    +0.000 C 
BRANCH  23  25
ATOM     24  C   UNL     1       2.954   3.918   9.660  0.00  0.00    +0.000 C 
ATOM     25  C   UNL     1       3.562   3.090  10.782  0.00  0.00    +0.000 C 
ENDBRANCH  23  25
ENDBRANCH  22  23
ENDBRANCH  19  22
ENDBRANCH   1  19
TORSDOF 5
ENDMDL
MODEL 3
REMARK VINA RESULT:      -7.5      4.719      8.804
REMARK  Name = 
REMARK  7 active torsions:
REMARK  status: ('A' for Active; 'I' for Inactive)
REMARK    1  A    between atoms: C_1  and  C_2
REMARK    2  A    between atoms: C_2  and  C_3
REMARK    3  A    between atoms: C_3  and  C_4
REMARK    4  A    between atoms: C_4  and  C_5
REMARK    5  A    between atoms: C_5  and  C_6
REMARK    6  A    between atoms: C_5  and  C_8
REMARK    7  A    between atoms: C_6  and  C_7
REMARK                            x       y       z     vdW  Elec       q    Type
REMARK                         _______ _______ _______ _____ _____    ______ ____
ROOT
ATOM      1  C   UNL     1      -0.120  10.055  19.168  0.00  0.00    +0.000 C 
ATOM      2  O   UNL     1      -0.344   9.807  17.983  0.00  0.00    +0.000 OA
ATOM      3  N   UNL     1       0.941   9.509  19.870  0.00  0.00    +0.000 N 
ATOM      4  C   UNL     1       1.782   8.567  19.258  0.00  0.00    +0.000 A 
ATOM      5  C   UNL     1       2.395   8.837  18.044  0.00  0.00    +0.000 A 
ATOM      6  C   UNL     1       3.171   7.848  17.467  0.00  0.00    +0.000 A 
ATOM      7  C   UNL     1       3.280   6.598  18.082  0.00  0.00    +0.000 A 
ATOM      8  C   UNL     1       3.995   5.578  17.450  0.00  0.00    +0.000 A 
ATOM      9  C   UNL     1       4.059   4.319  18.025  0.00  0.00    +0.000 A 
ATOM     10  C   UNL     1       3.412   4.075  19.237  0.00  0.00    +0.000 A 
ATOM     11  C   UNL     1       3.460   2.792  19.799  0.00  0.00    +0.000 A 
ATOM     12  C   UNL     1       2.809   2.531  20.991  0.00  0.00    +0.000 A 
ATOM     13  C   UNL     1       2.137   3.577  21.595  0.00  0.00    +0.000 A 
ATOM     14  N   UNL     1       2.080   4.828  21.087  0.00  0.00    +0.000 NA
ATOM     15  C   UNL     1       2.702   5.103  19.908  0.00  0.00    +0.000 A 
ATOM     16  C   UNL     1       2.634   6.388  19.329  0.00  0.00    +0.000 A 
ATOM     17  N   UNL     1       1.950   7.407  19.922  0.00  0.00    +0.000 NA
ATOM     18  H   UNL     1       0.792   9.305  20.847  0.00  0.00    +0.000 HD
ENDROOT
BRANCH   1  19
ATOM     19  C   UNL     1      -0.986  11.070  19.945  0.00  0.00    +0.000 C 
BRANCH  19  20
ATOM     20  C   UNL     1      -1.674  12.135  19.069  0.00  0.00    +0.000 C 
ATOM     21  C   UNL     1      -3.183  11.988  18.928  0.00  0.00    +0.000 C 
ENDBRANCH  19  20
BRANCH  19  22
ATOM     22  C   UNL     1      -0.140  11.670  21.104  0.00  0.00    +0.000 C 
BRANCH  22  23
ATOM     23  C   UNL     1      -0.702  11.430  22.508  0.00  0.00    +0.000 C 
BRANCH  23  25
ATOM     24  C   UNL     1      -2.948  12.230  23.319  0.00  0.00    +0.000 C 
ATOM     25  C   UNL     1      -1.514  12.632  23.008  0.00  0.00    +0.000 C 
ENDBRANCH  23  25
ENDBRANCH  22  23
ENDBRANCH  19  22
ENDBRANCH   1  19
TORSDOF 5
ENDMDL
MODEL 4
REMARK VINA RESULT:      -7.4      5.361      7.651
REMARK  Name = 
REMARK  7 active torsions:
REMARK  status: ('A' for Active; 'I' for Inactive)
REMARK    1  A    between atoms: C_1  and  C_2
REMARK    2  A    between atoms: C_2  and  C_3
REMARK    3  A    between atoms: C_3  and  C_4
REMARK    4  A    between atoms: C_4  and  C_5
REMARK    5  A    between atoms: C_5  and  C_6
REMARK    6  A    between atoms: C_5  and  C_8
REMARK    7  A    between atoms: C_6  and  C_7
REMARK                            x       y       z     vdW  Elec       q    Type
REMARK                         _______ _______ _______ _____ _____    ______ ____
ROOT
ATOM      1  C   UNL     1       2.418   7.283  18.989  0.00  0.00    +0.000 C 
ATOM      2  O   UNL     1       1.979   7.073  20.120  0.00  0.00    +0.000 OA
ATOM      3  N   UNL     1       2.104   8.412  18.253  0.00  0.00    +0.000 N 
ATOM      4  C   UNL     1       1.189   9.350  18.754  0.00  0.00    +0.000 A 
ATOM      5  C   UNL     1       1.353   9.909  20.012  0.00  0.00    +0.000 A 
ATOM      6  C   UNL     1       0.389  10.788  20.471  0.00  0.00    +0.000 A 
ATOM      7  C   UNL     1      -0.739  11.055  19.691  0.00  0.00    +0.000 A 
ATOM      8  C   UNL     1      -1.749  11.877  20.197  0.00  0.00    +0.000 A 
ATOM      9  C   UNL     1      -2.897  12.100  19.454  0.00  0.00    +0.000 A 
ATOM     10  C   UNL     1      -3.039  11.506  18.199  0.00  0.00    +0.000 A 
ATOM     11  C   UNL     1      -4.215  11.716  17.466  0.00  0.00    +0.000 A 
ATOM     12  C   UNL     1      -4.378  11.119  16.228  0.00  0.00    +0.000 A 
ATOM     13  C   UNL     1      -3.342  10.336  15.756  0.00  0.00    +0.000 A 
ATOM     14  N   UNL     1      -2.191  10.122  16.431  0.00  0.00    +0.000 NA
ATOM     15  C   UNL     1      -2.016  10.689  17.657  0.00  0.00    +0.000 A 
ATOM     16  C   UNL     1      -0.844  10.459  18.407  0.00  0.00    +0.000 A 
ATOM     17  N   UNL     1       0.163   9.666  17.940  0.00  0.00    +0.000 NA
ATOM     18  H   UNL     1       2.026   8.304  17.253  0.00  0.00    +0.000 HD
ENDROOT
BRANCH   1  19
ATOM     19  C   UNL     1       3.425   6.314  18.334  0.00  0.00    +0.000 C 
BRANCH  19  20
ATOM     20  C   UNL     1       4.346   6.957  17.279  0.00  0.00    +0.000 C 
ATOM     21  C   UNL     1       5.044   5.981  16.341  0.00  0.00    +0.000 C 
ENDBRANCH  19  20
BRANCH  19  22
ATOM     22  C   UNL     1       2.656   5.067  17.811  0.00  0.00    +0.000 C 
BRANCH  22  23
ATOM     23  C   UNL     1       2.626   3.875  18.771  0.00  0.00    +0.000 C 
BRANCH  23  25
ATOM     24  C   UNL     1       1.180   3.487  20.796  0.00  0.00    +0.000 C 
ATOM     25  C   UNL     1       1.207   3.590  19.278  0.00  0.00    +0.000 C 
ENDBRANCH  23  25
ENDBRANCH  22  23
ENDBRANCH  19  22
ENDBRANCH   1  19
TORSDOF 5
ENDMDL
MODEL 5
REMARK VINA RESULT:      -7.3      4.356      8.322
REMARK  Name = 
REMARK  7 active torsions:
REMARK  status: ('A' for Active; 'I' for Inactive)
REMARK    1  A    between atoms: C_1  and  C_2
REMARK    2  A    between atoms: C_2  and  C_3
REMARK    3  A    between atoms: C_3  and  C_4
REMARK    4  A    between atoms: C_4  and  C_5
REMARK    5  A    between atoms: C_5  and  C_6
REMARK    6  A    between atoms: C_5  and  C_8
REMARK    7  A    between atoms: C_6  and  C_7
REMARK                            x       y       z     vdW  Elec       q    Type
REMARK                         _______ _______ _______ _____ _____    ______ ____
ROOT
ATOM      1  C   UNL     1      -0.100   9.945  18.926  0.00  0.00    +0.000 C 
ATOM      2  O   UNL     1      -0.253   9.660  17.738  0.00  0.00    +0.000 OA
ATOM      3  N   UNL     1       0.931   9.441  19.699  0.00  0.00    +0.000 N 
ATOM      4  C   UNL     1       1.823   8.501  19.161  0.00  0.00    +0.000 A 
ATOM      5  C   UNL     1       2.498   8.752  17.975  0.00  0.00    +0.000 A 
ATOM      6  C   UNL     1       3.323   7.765  17.469  0.00  0.00    +0.000 A 
ATOM      7  C   UNL     1       3.424   6.535  18.124  0.00  0.00    +0.000 A 
ATOM      8  C   UNL     1       4.193   5.513  17.561  0.00  0.00    +0.000 A 
ATOM      9  C   UNL     1       4.251   4.273  18.174  0.00  0.00    +0.000 A 
ATOM     10  C   UNL     1       3.543   4.047  19.355  0.00  0.00    +0.000 A 
ATOM     11  C   UNL     1       3.586   2.781  19.955  0.00  0.00    +0.000 A 
ATOM     12  C   UNL     1       2.875   2.538  21.117  0.00  0.00    +0.000 A 
ATOM     13  C   UNL     1       2.151   3.585  21.653  0.00  0.00    +0.000 A 
ATOM     14  N   UNL     1       2.096   4.821  21.108  0.00  0.00    +0.000 NA
ATOM     15  C   UNL     1       2.777   5.077  19.957  0.00  0.00    +0.000 A 
ATOM     16  C   UNL     1       2.715   6.344  19.339  0.00  0.00    +0.000 A 
ATOM     17  N   UNL     1       1.978   7.364  19.866  0.00  0.00    +0.000 NA
ATOM     18  H   UNL     1       0.734   9.261  20.672  0.00  0.00    +0.000 HD
ENDROOT
BRANCH   1  19
ATOM     19  C   UNL     1      -1.028  10.961  19.626  0.00  0.00    +0.000 C 
BRANCH  19  20
ATOM     20  C   UNL     1      -1.610  12.047  18.700  0.00  0.00    +0.000 C 
ATOM     21  C   UNL     1      -2.989  11.745  18.127  0.00  0.00    +0.000 C 
ENDBRANCH  19  20
BRANCH  19  22
ATOM     22  C   UNL     1      -0.296  11.535  20.873  0.00  0.00    +0.000 C 
BRANCH  22  23
ATOM     23  C   UNL     1      -1.031  11.340  22.202  0.00  0.00    +0.000 C 
BRANCH  23  25
ATOM     24  C   UNL     1      -0.589   8.891  22.582  0.00  0.00    +0.000 C 
ATOM     25  C   UNL     1      -0.333  10.302  23.089  0.00  0.00    +0.000 C 
ENDBRANCH  23  25
ENDBRANCH  22  23
ENDBRANCH  19  22
ENDBRANCH   1  19
TORSDOF 5
ENDMDL
MODEL 6
REMARK VINA RESULT:      -7.2      5.291      7.254
REMARK  Name = 
REMARK  7 active torsions:
REMARK  status: ('A' for Active; 'I' for Inactive)
REMARK    1  A    between atoms: C_1  and  C_2
REMARK    2  A    between atoms: C_2  and  C_3
REMARK    3  A    between atoms: C_3  and  C_4
REMARK    4  A    between atoms: C_4  and  C_5
REMARK    5  A    between atoms: C_5  and  C_6
REMARK    6  A    between atoms: C_5  and  C_8
REMARK    7  A    between atoms: C_6  and  C_7
REMARK                            x       y       z     vdW  Elec       q    Type
REMARK                         _______ _______ _______ _____ _____    ______ ____
ROOT
ATOM      1  C   UNL     1       2.528   7.181  18.861  0.00  0.00    +0.000 C 
ATOM      2  O   UNL     1       2.099   6.974  19.996  0.00  0.00    +0.000 OA
ATOM      3  N   UNL     1       2.212   8.311  18.127  0.00  0.00    +0.000 N 
ATOM      4  C   UNL     1       1.305   9.254  18.636  0.00  0.00    +0.000 A 
ATOM      5  C   UNL     1       1.483   9.812  19.892  0.00  0.00    +0.000 A 
ATOM      6  C   UNL     1       0.528  10.696  20.359  0.00  0.00    +0.000 A 
ATOM      7  C   UNL     1      -0.607  10.967  19.590  0.00  0.00    +0.000 A 
ATOM      8  C   UNL     1      -1.609  11.794  20.105  0.00  0.00    +0.000 A 
ATOM      9  C   UNL     1      -2.763  12.021  19.373  0.00  0.00    +0.000 A 
ATOM     10  C   UNL     1      -2.919  11.426  18.120  0.00  0.00    +0.000 A 
ATOM     11  C   UNL     1      -4.101  11.640  17.398  0.00  0.00    +0.000 A 
ATOM     12  C   UNL     1      -4.278  11.043  16.163  0.00  0.00    +0.000 A 
ATOM     13  C   UNL     1      -3.250  10.256  15.681  0.00  0.00    +0.000 A 
ATOM     14  N   UNL     1      -2.093  10.038  16.345  0.00  0.00    +0.000 NA
ATOM     15  C   UNL     1      -1.904  10.605  17.568  0.00  0.00    +0.000 A 
ATOM     16  C   UNL     1      -0.726  10.370  18.307  0.00  0.00    +0.000 A 
ATOM     17  N   UNL     1       0.273   9.573  17.831  0.00  0.00    +0.000 NA
ATOM     18  H   UNL     1       2.124   8.203  17.128  0.00  0.00    +0.000 HD
ENDROOT
BRANCH   1  19
ATOM     19  C   UNL     1       3.525   6.208  18.197  0.00  0.00    +0.000 C 
BRANCH  19  20
ATOM     20  C   UNL     1       4.417   5.427  19.181  0.00  0.00    +0.000 C 
ATOM     21  C   UNL     1       4.204   3.919  19.200  0.00  0.00    +0.000 C 
ENDBRANCH  19  20
BRANCH  19  22
ATOM     22  C   UNL     1       4.326   6.975  17.106  0.00  0.00    +0.000 C 
BRANCH  22  23
ATOM     23  C   UNL     1       5.651   6.324  16.697  0.00  0.00    +0.000 C 
BRANCH  23  25
ATOM     24  C   UNL     1       5.773   3.988  15.764  0.00  0.00    +0.000 C 
ATOM     25  C   UNL     1       5.492   5.450  15.447  0.00  0.00    +0.000 C 
ENDBRANCH  23  25
ENDBRANCH  22  23
ENDBRANCH  19  22
ENDBRANCH   1  19
TORSDOF 5
ENDMDL
MODEL 7
REMARK VINA RESULT:      -7.2      3.949      8.166
REMARK  Name = 
REMARK  7 active torsions:
REMARK  status: ('A' for Active; 'I' for Inactive)
REMARK    1  A    between atoms: C_1  and  C_2
REMARK    2  A    between atoms: C_2  and  C_3
REMARK    3  A    between atoms: C_3  and  C_4
REMARK    4  A    between atoms: C_4  and  C_5
REMARK    5  A    between atoms: C_5  and  C_6
REMARK    6  A    between atoms: C_5  and  C_8
REMARK    7  A    between atoms: C_6  and  C_7
REMARK                            x       y       z     vdW  Elec       q    Type
REMARK                         _______ _______ _______ _____ _____    ______ ____
ROOT
ATOM      1  C   UNL     1       0.544   9.650  18.889  0.00  0.00    +0.000 C 
ATOM      2  O   UNL     1       0.554   9.714  17.659  0.00  0.00    +0.000 OA
ATOM      3  N   UNL     1       1.364   8.800  19.610  0.00  0.00    +0.000 N 
ATOM      4  C   UNL     1       2.210   7.900  18.943  0.00  0.00    +0.000 A 
ATOM      5  C   UNL     1       3.095   8.338  17.969  0.00  0.00    +0.000 A 
ATOM      6  C   UNL     1       3.865   7.396  17.312  0.00  0.00    +0.000 A 
ATOM      7  C   UNL     1       3.704   6.038  17.599  0.00  0.00    +0.000 A 
ATOM      8  C   UNL     1       4.423   5.088  16.871  0.00  0.00    +0.000 A 
ATOM      9  C   UNL     1       4.226   3.738  17.111  0.00  0.00    +0.000 A 
ATOM     10  C   UNL     1       3.311   3.331  18.083  0.00  0.00    +0.000 A 
ATOM     11  C   UNL     1       3.099   1.963  18.301  0.00  0.00    +0.000 A 
ATOM     12  C   UNL     1       2.183   1.544  19.250  0.00  0.00    +0.000 A 
ATOM     13  C   UNL     1       1.515   2.519  19.965  0.00  0.00    +0.000 A 
ATOM     14  N   UNL     1       1.703   3.846  19.790  0.00  0.00    +0.000 NA
ATOM     15  C   UNL     1       2.590   4.279  18.852  0.00  0.00    +0.000 A 
ATOM     16  C   UNL     1       2.787   5.655  18.614  0.00  0.00    +0.000 A 
ATOM     17  N   UNL     1       2.105   6.609  19.311  0.00  0.00    +0.000 NA
ATOM     18  H   UNL     1       0.989   8.406  20.460  0.00  0.00    +0.000 HD
ENDROOT
BRANCH   1  19
ATOM     19  C   UNL     1      -0.354  10.586  19.726  0.00  0.00    +0.000 C 
BRANCH  19  20
ATOM     20  C   UNL     1      -0.905  11.805  18.962  0.00  0.00    +0.000 C 
ATOM     21  C   UNL     1      -2.400  11.774  18.674  0.00  0.00    +0.000 C 
ENDBRANCH  19  20
BRANCH  19  22
ATOM     22  C   UNL     1       0.395  10.960  21.037  0.00  0.00    +0.000 C 
BRANCH  22  23
ATOM     23  C   UNL     1      -0.461  11.663  22.095  0.00  0.00    +0.000 C 
BRANCH  23  25
ATOM     24  C   UNL     1      -0.145   9.454  23.261  0.00  0.00    +0.000 C 
ATOM     25  C   UNL     1      -1.049  10.667  23.103  0.00  0.00    +0.000 C 
ENDBRANCH  23  25
ENDBRANCH  22  23
ENDBRANCH  19  22
ENDBRANCH   1  19
TORSDOF 5
ENDMDL
MODEL 8
REMARK VINA RESULT:      -7.2      4.558      8.306
REMARK  Name = 
REMARK  7 active torsions:
REMARK  status: ('A' for Active; 'I' for Inactive)
REMARK    1  A    between atoms: C_1  and  C_2
REMARK    2  A    between atoms: C_2  and  C_3
REMARK    3  A    between atoms: C_3  and  C_4
REMARK    4  A    between atoms: C_4  and  C_5
REMARK    5  A    between atoms: C_5  and  C_6
REMARK    6  A    between atoms: C_5  and  C_8
REMARK    7  A    between atoms: C_6  and  C_7
REMARK                            x       y       z     vdW  Elec       q    Type
REMARK                         _______ _______ _______ _____ _____    ______ ____
ROOT
ATOM      1  C   UNL     1      -0.140  10.180  19.268  0.00  0.00    +0.000 C 
ATOM      2  O   UNL     1      -0.387   9.944  18.085  0.00  0.00    +0.000 OA
ATOM      3  N   UNL     1       0.927   9.616  19.946  0.00  0.00    +0.000 N 
ATOM      4  C   UNL     1       1.746   8.669  19.312  0.00  0.00    +0.000 A 
ATOM      5  C   UNL     1       2.341   8.941  18.089  0.00  0.00    +0.000 A 
ATOM      6  C   UNL     1       3.094   7.948  17.490  0.00  0.00    +0.000 A 
ATOM      7  C   UNL     1       3.199   6.692  18.094  0.00  0.00    +0.000 A 
ATOM      8  C   UNL     1       3.891   5.668  17.442  0.00  0.00    +0.000 A 
ATOM      9  C   UNL     1       3.950   4.405  18.007  0.00  0.00    +0.000 A 
ATOM     10  C   UNL     1       3.322   4.159  19.228  0.00  0.00    +0.000 A 
ATOM     11  C   UNL     1       3.365   2.871  19.780  0.00  0.00    +0.000 A 
ATOM     12  C   UNL     1       2.733   2.608  20.981  0.00  0.00    +0.000 A 
ATOM     13  C   UNL     1       2.085   3.657  21.604  0.00  0.00    +0.000 A 
ATOM     14  N   UNL     1       2.033   4.913  21.108  0.00  0.00    +0.000 NA
ATOM     15  C   UNL     1       2.637   5.190  19.919  0.00  0.00    +0.000 A 
ATOM     16  C   UNL     1       2.574   6.479  19.351  0.00  0.00    +0.000 A 
ATOM     17  N   UNL     1       1.912   7.502  19.964  0.00  0.00    +0.000 NA
ATOM     18  H   UNL     1       0.794   9.407  20.924  0.00  0.00    +0.000 HD
ENDROOT
BRANCH   1  19
ATOM     19  C   UNL     1      -0.979  11.199  20.068  0.00  0.00    +0.000 C 
BRANCH  19  20
ATOM     20  C   UNL     1      -2.048  11.942  19.244  0.00  0.00    +0.000 C 
ATOM     21  C   UNL     1      -3.186  12.553  20.051  0.00  0.00    +0.000 C 
ENDBRANCH  19  20
BRANCH  19  22
ATOM     22  C   UNL     1      -0.018  12.148  20.839  0.00  0.00    +0.000 C 
BRANCH  22  23
ATOM     23  C   UNL     1       0.561  13.298  20.010  0.00  0.00    +0.000 C 
BRANCH  23  25
ATOM     24  C   UNL     1       2.225  13.142  18.126  0.00  0.00    +0.000 C 
ATOM     25  C   UNL     1       2.025  13.044  19.631  0.00  0.00    +0.000 C 
ENDBRANCH  23  25
ENDBRANCH  22  23
ENDBRANCH  19  22
ENDBRANCH   1  19
TORSDOF 5
ENDMDL
MODEL 9
REMARK VINA RESULT:      -7.1      4.218      8.152
REMARK  Name = 
REMARK  7 active torsions:
REMARK  status: ('A' for Active; 'I' for Inactive)
REMARK    1  A    between atoms: C_1  and  C_2
REMARK    2  A    between atoms: C_2  and  C_3
REMARK    3  A    between atoms: C_3  and  C_4
REMARK    4  A    between atoms: C_4  and  C_5
REMARK    5  A    between atoms: C_5  and  C_6
REMARK    6  A    between atoms: C_5  and  C_8
REMARK    7  A    between atoms: C_6  and  C_7
REMARK                            x       y       z     vdW  Elec       q    Type
REMARK                         _______ _______ _______ _____ _____    ______ ____
ROOT
ATOM      1  C   UNL     1       0.320   9.866  18.521  0.00  0.00    +0.000 C 
ATOM      2  O   UNL     1       0.174   9.513  17.350  0.00  0.00    +0.000 OA
ATOM      3  N   UNL     1       1.296   9.347  19.354  0.00  0.00    +0.000 N 
ATOM      4  C   UNL     1       2.132   8.314  18.903  0.00  0.00    +0.000 A 
ATOM      5  C   UNL     1       2.849   8.437  17.722  0.00  0.00    +0.000 A 
ATOM      6  C   UNL     1       3.615   7.364  17.305  0.00  0.00    +0.000 A 
ATOM      7  C   UNL     1       3.615   6.177  18.042  0.00  0.00    +0.000 A 
ATOM      8  C   UNL     1       4.323   5.070  17.569  0.00  0.00    +0.000 A 
ATOM      9  C   UNL     1       4.281   3.873  18.264  0.00  0.00    +0.000 A 
ATOM     10  C   UNL     1       3.532   3.777  19.438  0.00  0.00    +0.000 A 
ATOM     11  C   UNL     1       3.473   2.554  20.120  0.00  0.00    +0.000 A 
ATOM     12  C   UNL     1       2.721   2.439  21.276  0.00  0.00    +0.000 A 
ATOM     13  C   UNL     1       2.059   3.566  21.722  0.00  0.00    +0.000 A 
ATOM     14  N   UNL     1       2.104   4.764  21.095  0.00  0.00    +0.000 NA
ATOM     15  C   UNL     1       2.826   4.895  19.949  0.00  0.00    +0.000 A 
ATOM     16  C   UNL     1       2.867   6.118  19.247  0.00  0.00    +0.000 A 
ATOM     17  N   UNL     1       2.191   7.219  19.685  0.00  0.00    +0.000 NA
ATOM     18  H   UNL     1       1.064   9.246  20.330  0.00  0.00    +0.000 HD
ENDROOT
BRANCH   1  19
ATOM     19  C   UNL     1      -0.550  10.988  19.126  0.00  0.00    +0.000 C 
BRANCH  19  20
ATOM     20  C   UNL     1      -0.150  12.415  18.703  0.00  0.00    +0.000 C 
ATOM     21  C   UNL     1       1.348  12.667  18.597  0.00  0.00    +0.000 C 
ENDBRANCH  19  20
BRANCH  19  22
ATOM     22  C   UNL     1      -0.620  10.793  20.668  0.00  0.00    +0.000 C 
BRANCH  22  23
ATOM     23  C   UNL     1      -0.986  12.050  21.464  0.00  0.00    +0.000 C 
BRANCH  23  25
ATOM     24  C   UNL     1      -0.878  10.318  23.288  0.00  0.00    +0.000 C 
ATOM     25  C   UNL     1      -1.347  11.717  22.917  0.00  0.00    +0.000 C 
ENDBRANCH  23  25
ENDBRANCH  22  23
ENDBRANCH  19  22
ENDBRANCH   1  19
TORSDOF 5
ENDMDL
