MODEL 1
REMARK VINA RESULT:      -6.8      0.000      0.000
REMARK  Name = 
REMARK  7 active torsions:
REMARK  status: ('A' for Active; 'I' for Inactive)
REMARK    1  A    between atoms: N_1  and  C_2
REMARK    2  A    between atoms: C_3  and  S_4
REMARK    3  A    between atoms: S_4  and  C_5
REMARK    4  A    between atoms: C_12  and  C_13
REMARK    5  A    between atoms: C_13  and  O_14
REMARK    6  A    between atoms: C_15  and  O_16
REMARK    7  A    between atoms: C_17  and  O_18
REMARK                            x       y       z     vdW  Elec       q    Type
REMARK                         _______ _______ _______ _____ _____    ______ ____
ROOT
ATOM      1  C   UNL     1       5.803   3.897  18.062  0.00  0.00    +0.000 C 
ATOM      2  C   UNL     1       4.622   4.001  17.053  0.00  0.00    +0.000 C 
ATOM      3  O   UNL     1       5.185   4.116  15.742  0.00  0.00    +0.000 OA
ATOM      4  C   UNL     1       6.018   5.266  15.522  0.00  0.00    +0.000 C 
ATOM      5  C   UNL     1       7.148   5.395  16.551  0.00  0.00    +0.000 C 
ATOM      6  C   UNL     1       6.647   5.191  17.989  0.00  0.00    +0.000 C 
ENDROOT
BRANCH   1   7
ATOM      7  N   UNL     1       5.476   3.536  19.457  0.00  0.00    +0.000 NA
ATOM      8  H   UNL     1       6.340   3.415  19.988  0.00  0.00    +0.000 HD
ATOM      9  H   UNL     1       5.017   2.620  19.473  0.00  0.00    +0.000 HD
ENDBRANCH   1   7
BRANCH   5  10
ATOM     10  O   UNL     1       7.796   6.663  16.383  0.00  0.00    +0.000 OA
ATOM     11  H   UNL     1       8.449   6.579  15.658  0.00  0.00    +0.000 HD
ENDBRANCH   5  10
BRANCH   6  12
ATOM     12  O   UNL     1       7.785   5.120  18.861  0.00  0.00    +0.000 OA
ATOM     13  H   UNL     1       8.132   6.029  18.946  0.00  0.00    +0.000 HD
ENDBRANCH   6  12
BRANCH   2  14
ATOM     14  S   UNL     1       3.397   5.311  17.485  0.00  0.00    +0.000 S 
BRANCH  14  15
ATOM     15  C   UNL     1       2.289   4.471  18.612  0.00  0.00    +0.000 A 
ATOM     16  C   UNL     1       1.645   3.310  18.174  0.00  0.00    +0.000 A 
ATOM     17  C   UNL     1       0.799   2.596  19.029  0.00  0.00    +0.000 A 
ATOM     18  C   UNL     1       0.603   3.031  20.340  0.00  0.00    +0.000 A 
ATOM     19  C   UNL     1       1.262   4.163  20.799  0.00  0.00    +0.000 A 
ATOM     20  C   UNL     1       2.107   4.877  19.939  0.00  0.00    +0.000 A 
ENDBRANCH  14  15
ENDBRANCH   2  14
BRANCH   4  21
ATOM     21  C   UNL     1       6.621   5.133  14.112  0.00  0.00    +0.000 C 
BRANCH  21  22
ATOM     22  O   UNL     1       8.008   5.476  14.123  0.00  0.00    +0.000 OA
ATOM     23  H   UNL     1       8.053   6.447  14.147  0.00  0.00    +0.000 HD
ENDBRANCH  21  22
ENDBRANCH   4  21
TORSDOF 7
ENDMDL
MODEL 2
REMARK VINA RESULT:      -6.7      1.949      3.134
REMARK  Name = 
REMARK  7 active torsions:
REMARK  status: ('A' for Active; 'I' for Inactive)
REMARK    1  A    between atoms: N_1  and  C_2
REMARK    2  A    between atoms: C_3  and  S_4
REMARK    3  A    between atoms: S_4  and  C_5
REMARK    4  A    between atoms: C_12  and  C_13
REMARK    5  A    between atoms: C_13  and  O_14
REMARK    6  A    between atoms: C_15  and  O_16
REMARK    7  A    between atoms: C_17  and  O_18
REMARK                            x       y       z     vdW  Elec       q    Type
REMARK                         _______ _______ _______ _____ _____    ______ ____
ROOT
ATOM      1  C   UNL     1       5.405   5.022  15.814  0.00  0.00    +0.000 C 
ATOM      2  C   UNL     1       4.445   4.845  17.027  0.00  0.00    +0.000 C 
ATOM      3  O   UNL     1       5.067   5.459  18.161  0.00  0.00    +0.000 OA
ATOM      4  C   UNL     1       6.332   4.900  18.552  0.00  0.00    +0.000 C 
ATOM      5  C   UNL     1       7.349   4.853  17.406  0.00  0.00    +0.000 C 
ATOM      6  C   UNL     1       6.737   4.293  16.113  0.00  0.00    +0.000 C 
ENDROOT
BRANCH   1   7
ATOM      7  N   UNL     1       4.883   4.678  14.476  0.00  0.00    +0.000 NA
ATOM      8  H   UNL     1       4.444   3.756  14.508  0.00  0.00    +0.000 HD
ATOM      9  H   UNL     1       5.664   4.583  13.819  0.00  0.00    +0.000 HD
ENDBRANCH   1   7
BRANCH   5  10
ATOM     10  O   UNL     1       8.498   4.104  17.825  0.00  0.00    +0.000 OA
ATOM     11  H   UNL     1       8.295   3.152  17.722  0.00  0.00    +0.000 HD
ENDBRANCH   5  10
BRANCH   6  12
ATOM     12  O   UNL     1       7.681   4.475  15.047  0.00  0.00    +0.000 OA
ATOM     13  H   UNL     1       8.570   4.419  15.446  0.00  0.00    +0.000 HD
ENDBRANCH   6  12
BRANCH   2  14
ATOM     14  S   UNL     1       3.904   3.102  17.290  0.00  0.00    +0.000 S 
BRANCH  14  15
ATOM     15  C   UNL     1       2.919   3.207  18.781  0.00  0.00    +0.000 A 
ATOM     16  C   UNL     1       3.436   2.666  19.962  0.00  0.00    +0.000 A 
ATOM     17  C   UNL     1       2.723   2.756  21.162  0.00  0.00    +0.000 A 
ATOM     18  C   UNL     1       1.488   3.404  21.192  0.00  0.00    +0.000 A 
ATOM     19  C   UNL     1       0.977   3.975  20.034  0.00  0.00    +0.000 A 
ATOM     20  C   UNL     1       1.694   3.881  18.835  0.00  0.00    +0.000 A 
ENDBRANCH  14  15
ENDBRANCH   2  14
BRANCH   4  21
ATOM     21  C   UNL     1       6.885   5.774  19.693  0.00  0.00    +0.000 C 
BRANCH  21  22
ATOM     22  O   UNL     1       8.048   5.176  20.267  0.00  0.00    +0.000 OA
ATOM     23  H   UNL     1       8.727   5.871  20.307  0.00  0.00    +0.000 HD
ENDBRANCH  21  22
ENDBRANCH   4  21
TORSDOF 7
ENDMDL
MODEL 3
REMARK VINA RESULT:      -6.7      1.936      3.125
REMARK  Name = 
REMARK  7 active torsions:
REMARK  status: ('A' for Active; 'I' for Inactive)
REMARK    1  A    between atoms: N_1  and  C_2
REMARK    2  A    between atoms: C_3  and  S_4
REMARK    3  A    between atoms: S_4  and  C_5
REMARK    4  A    between atoms: C_12  and  C_13
REMARK    5  A    between atoms: C_13  and  O_14
REMARK    6  A    between atoms: C_15  and  O_16
REMARK    7  A    between atoms: C_17  and  O_18
REMARK                            x       y       z     vdW  Elec       q    Type
REMARK                         _______ _______ _______ _____ _____    ______ ____
ROOT
ATOM      1  C   UNL     1       5.480   5.092  15.879  0.00  0.00    +0.000 C 
ATOM      2  C   UNL     1       4.518   4.943  17.094  0.00  0.00    +0.000 C 
ATOM      3  O   UNL     1       5.160   5.541  18.225  0.00  0.00    +0.000 OA
ATOM      4  C   UNL     1       6.410   4.948  18.614  0.00  0.00    +0.000 C 
ATOM      5  C   UNL     1       7.423   4.873  17.465  0.00  0.00    +0.000 C 
ATOM      6  C   UNL     1       6.792   4.327  16.174  0.00  0.00    +0.000 C 
ENDROOT
BRANCH   1   7
ATOM      7  N   UNL     1       4.944   4.761  14.542  0.00  0.00    +0.000 NA
ATOM      8  H   UNL     1       5.007   3.752  14.391  0.00  0.00    +0.000 HD
ATOM      9  H   UNL     1       5.541   5.181  13.823  0.00  0.00    +0.000 HD
ENDBRANCH   1   7
BRANCH   5  10
ATOM     10  O   UNL     1       8.552   4.093  17.882  0.00  0.00    +0.000 OA
ATOM     11  H   UNL     1       8.750   4.317  18.814  0.00  0.00    +0.000 HD
ENDBRANCH   5  10
BRANCH   6  12
ATOM     12  O   UNL     1       7.738   4.483  15.105  0.00  0.00    +0.000 OA
ATOM     13  H   UNL     1       8.222   5.313  15.277  0.00  0.00    +0.000 HD
ENDBRANCH   6  12
BRANCH   2  14
ATOM     14  S   UNL     1       3.931   3.215  17.361  0.00  0.00    +0.000 S 
BRANCH  14  15
ATOM     15  C   UNL     1       3.034   3.329  18.905  0.00  0.00    +0.000 A 
ATOM     16  C   UNL     1       1.848   4.070  18.936  0.00  0.00    +0.000 A 
ATOM     17  C   UNL     1       1.090   4.157  20.109  0.00  0.00    +0.000 A 
ATOM     18  C   UNL     1       1.507   3.489  21.260  0.00  0.00    +0.000 A 
ATOM     19  C   UNL     1       2.664   2.723  21.235  0.00  0.00    +0.000 A 
ATOM     20  C   UNL     1       3.421   2.639  20.060  0.00  0.00    +0.000 A 
ENDBRANCH  14  15
ENDBRANCH   2  14
BRANCH   4  21
ATOM     21  C   UNL     1       6.990   5.809  19.752  0.00  0.00    +0.000 C 
BRANCH  21  22
ATOM     22  O   UNL     1       8.129   5.172  20.334  0.00  0.00    +0.000 OA
ATOM     23  H   UNL     1       8.055   4.226  20.125  0.00  0.00    +0.000 HD
ENDBRANCH  21  22
ENDBRANCH   4  21
TORSDOF 7
ENDMDL
MODEL 4
REMARK VINA RESULT:      -6.7      0.102      1.137
REMARK  Name = 
REMARK  7 active torsions:
REMARK  status: ('A' for Active; 'I' for Inactive)
REMARK    1  A    between atoms: N_1  and  C_2
REMARK    2  A    between atoms: C_3  and  S_4
REMARK    3  A    between atoms: S_4  and  C_5
REMARK    4  A    between atoms: C_12  and  C_13
REMARK    5  A    between atoms: C_13  and  O_14
REMARK    6  A    between atoms: C_15  and  O_16
REMARK    7  A    between atoms: C_17  and  O_18
REMARK                            x       y       z     vdW  Elec       q    Type
REMARK                         _______ _______ _______ _____ _____    ______ ____
ROOT
ATOM      1  C   UNL     1       5.834   3.885  18.044  0.00  0.00    +0.000 C 
ATOM      2  C   UNL     1       4.679   3.941  17.001  0.00  0.00    +0.000 C 
ATOM      3  O   UNL     1       5.275   4.075  15.707  0.00  0.00    +0.000 OA
ATOM      4  C   UNL     1       6.068   5.256  15.507  0.00  0.00    +0.000 C 
ATOM      5  C   UNL     1       7.163   5.431  16.566  0.00  0.00    +0.000 C 
ATOM      6  C   UNL     1       6.630   5.211  17.991  0.00  0.00    +0.000 C 
ENDROOT
BRANCH   1   7
ATOM      7  N   UNL     1       5.482   3.514  19.430  0.00  0.00    +0.000 NA
ATOM      8  H   UNL     1       4.467   3.527  19.539  0.00  0.00    +0.000 HD
ATOM      9  H   UNL     1       5.833   4.231  20.073  0.00  0.00    +0.000 HD
ENDBRANCH   1   7
BRANCH   5  10
ATOM     10  O   UNL     1       7.766   6.723  16.413  0.00  0.00    +0.000 OA
ATOM     11  H   UNL     1       8.732   6.599  16.318  0.00  0.00    +0.000 HD
ENDBRANCH   5  10
BRANCH   6  12
ATOM     12  O   UNL     1       7.745   5.185  18.895  0.00  0.00    +0.000 OA
ATOM     13  H   UNL     1       7.381   5.311  19.792  0.00  0.00    +0.000 HD
ENDBRANCH   6  12
BRANCH   2  14
ATOM     14  S   UNL     1       3.393   5.203  17.395  0.00  0.00    +0.000 S 
BRANCH  14  15
ATOM     15  C   UNL     1       2.330   4.348  18.553  0.00  0.00    +0.000 A 
ATOM     16  C   UNL     1       2.123   4.915  19.814  0.00  0.00    +0.000 A 
ATOM     17  C   UNL     1       1.271   4.305  20.741  0.00  0.00    +0.000 A 
ATOM     18  C   UNL     1       0.604   3.126  20.405  0.00  0.00    +0.000 A 
ATOM     19  C   UNL     1       0.774   2.570  19.145  0.00  0.00    +0.000 A 
ATOM     20  C   UNL     1       1.630   3.182  18.221  0.00  0.00    +0.000 A 
ENDBRANCH  14  15
ENDBRANCH   2  14
BRANCH   4  21
ATOM     21  C   UNL     1       6.716   5.143  14.115  0.00  0.00    +0.000 C 
BRANCH  21  22
ATOM     22  O   UNL     1       8.093   5.518  14.169  0.00  0.00    +0.000 OA
ATOM     23  H   UNL     1       8.490   5.013  14.899  0.00  0.00    +0.000 HD
ENDBRANCH  21  22
ENDBRANCH   4  21
TORSDOF 7
ENDMDL
MODEL 5
REMARK VINA RESULT:      -6.6      3.479      4.825
REMARK  Name = 
REMARK  7 active torsions:
REMARK  status: ('A' for Active; 'I' for Inactive)
REMARK    1  A    between atoms: N_1  and  C_2
REMARK    2  A    between atoms: C_3  and  S_4
REMARK    3  A    between atoms: S_4  and  C_5
REMARK    4  A    between atoms: C_12  and  C_13
REMARK    5  A    between atoms: C_13  and  O_14
REMARK    6  A    between atoms: C_15  and  O_16
REMARK    7  A    between atoms: C_17  and  O_18
REMARK                            x       y       z     vdW  Elec       q    Type
REMARK                         _______ _______ _______ _____ _____    ______ ____
ROOT
ATOM      1  C   UNL     1       2.612   4.287  17.747  0.00  0.00    +0.000 C 
ATOM      2  C   UNL     1       3.010   5.716  18.219  0.00  0.00    +0.000 C 
ATOM      3  O   UNL     1       4.440   5.784  18.224  0.00  0.00    +0.000 OA
ATOM      4  C   UNL     1       5.101   4.861  19.105  0.00  0.00    +0.000 C 
ATOM      5  C   UNL     1       4.685   3.404  18.870  0.00  0.00    +0.000 C 
ATOM      6  C   UNL     1       3.161   3.250  18.755  0.00  0.00    +0.000 C 
ENDROOT
BRANCH   1   7
ATOM      7  N   UNL     1       1.188   4.044  17.434  0.00  0.00    +0.000 NA
ATOM      8  H   UNL     1       0.904   3.143  17.822  0.00  0.00    +0.000 HD
ATOM      9  H   UNL     1       1.074   3.952  16.420  0.00  0.00    +0.000 HD
ENDBRANCH   1   7
BRANCH   5  10
ATOM     10  O   UNL     1       5.231   2.584  19.913  0.00  0.00    +0.000 OA
ATOM     11  H   UNL     1       4.525   2.415  20.569  0.00  0.00    +0.000 HD
ENDBRANCH   5  10
BRANCH   6  12
ATOM     12  O   UNL     1       2.870   1.909  18.334  0.00  0.00    +0.000 OA
ATOM     13  H   UNL     1       2.954   1.341  19.123  0.00  0.00    +0.000 HD
ENDBRANCH   6  12
BRANCH   2  14
ATOM     14  S   UNL     1       2.204   6.221  19.799  0.00  0.00    +0.000 S 
BRANCH  14  15
ATOM     15  C   UNL     1       1.803   7.942  19.515  0.00  0.00    +0.000 A 
ATOM     16  C   UNL     1       2.084   8.496  18.262  0.00  0.00    +0.000 A 
ATOM     17  C   UNL     1       1.754   9.825  17.978  0.00  0.00    +0.000 A 
ATOM     18  C   UNL     1       1.125  10.610  18.945  0.00  0.00    +0.000 A 
ATOM     19  C   UNL     1       0.810  10.064  20.182  0.00  0.00    +0.000 A 
ATOM     20  C   UNL     1       1.143   8.733  20.463  0.00  0.00    +0.000 A 
ENDBRANCH  14  15
ENDBRANCH   2  14
BRANCH   4  21
ATOM     21  C   UNL     1       6.615   5.006  18.866  0.00  0.00    +0.000 C 
BRANCH  21  22
ATOM     22  O   UNL     1       7.074   4.027  17.933  0.00  0.00    +0.000 OA
ATOM     23  H   UNL     1       6.384   3.343  17.887  0.00  0.00    +0.000 HD
ENDBRANCH  21  22
ENDBRANCH   4  21
TORSDOF 7
ENDMDL
MODEL 6
REMARK VINA RESULT:      -6.6      3.499      4.923
REMARK  Name = 
REMARK  7 active torsions:
REMARK  status: ('A' for Active; 'I' for Inactive)
REMARK    1  A    between atoms: N_1  and  C_2
REMARK    2  A    between atoms: C_3  and  S_4
REMARK    3  A    between atoms: S_4  and  C_5
REMARK    4  A    between atoms: C_12  and  C_13
REMARK    5  A    between atoms: C_13  and  O_14
REMARK    6  A    between atoms: C_15  and  O_16
REMARK    7  A    between atoms: C_17  and  O_18
REMARK                            x       y       z     vdW  Elec       q    Type
REMARK                         _______ _______ _______ _____ _____    ______ ____
ROOT
ATOM      1  C   UNL     1       2.642   4.396  17.723  0.00  0.00    +0.000 C 
ATOM      2  C   UNL     1       3.040   5.816  18.222  0.00  0.00    +0.000 C 
ATOM      3  O   UNL     1       4.470   5.879  18.241  0.00  0.00    +0.000 OA
ATOM      4  C   UNL     1       5.122   4.939  19.111  0.00  0.00    +0.000 C 
ATOM      5  C   UNL     1       4.703   3.487  18.848  0.00  0.00    +0.000 C 
ATOM      6  C   UNL     1       3.179   3.340  18.718  0.00  0.00    +0.000 C 
ENDROOT
BRANCH   1   7
ATOM      7  N   UNL     1       1.220   4.164  17.394  0.00  0.00    +0.000 NA
ATOM      8  H   UNL     1       1.118   4.056  16.384  0.00  0.00    +0.000 HD
ATOM      9  H   UNL     1       0.675   4.997  17.636  0.00  0.00    +0.000 HD
ENDBRANCH   1   7
BRANCH   5  10
ATOM     10  O   UNL     1       5.237   2.648  19.880  0.00  0.00    +0.000 OA
ATOM     11  H   UNL     1       4.776   2.861  20.717  0.00  0.00    +0.000 HD
ENDBRANCH   5  10
BRANCH   6  12
ATOM     12  O   UNL     1       2.888   2.007  18.271  0.00  0.00    +0.000 OA
ATOM     13  H   UNL     1       3.683   1.687  17.803  0.00  0.00    +0.000 HD
ENDBRANCH   6  12
BRANCH   2  14
ATOM     14  S   UNL     1       2.224   6.296  19.804  0.00  0.00    +0.000 S 
BRANCH  14  15
ATOM     15  C   UNL     1       1.730   7.990  19.505  0.00  0.00    +0.000 A 
ATOM     16  C   UNL     1       1.132   8.706  20.547  0.00  0.00    +0.000 A 
ATOM     17  C   UNL     1       0.763  10.044  20.375  0.00  0.00    +0.000 A 
ATOM     18  C   UNL     1       1.005  10.684  19.159  0.00  0.00    +0.000 A 
ATOM     19  C   UNL     1       1.627   9.996  18.127  0.00  0.00    +0.000 A 
ATOM     20  C   UNL     1       1.994   8.655  18.302  0.00  0.00    +0.000 A 
ENDBRANCH  14  15
ENDBRANCH   2  14
BRANCH   4  21
ATOM     21  C   UNL     1       6.638   5.083  18.887  0.00  0.00    +0.000 C 
BRANCH  21  22
ATOM     22  O   UNL     1       7.116   4.066  18.005  0.00  0.00    +0.000 OA
ATOM     23  H   UNL     1       7.861   4.451  17.514  0.00  0.00    +0.000 HD
ENDBRANCH  21  22
ENDBRANCH   4  21
TORSDOF 7
ENDMDL
MODEL 7
REMARK VINA RESULT:      -6.6      3.590      5.645
REMARK  Name = 
REMARK  7 active torsions:
REMARK  status: ('A' for Active; 'I' for Inactive)
REMARK    1  A    between atoms: N_1  and  C_2
REMARK    2  A    between atoms: C_3  and  S_4
REMARK    3  A    between atoms: S_4  and  C_5
REMARK    4  A    between atoms: C_12  and  C_13
REMARK    5  A    between atoms: C_13  and  O_14
REMARK    6  A    between atoms: C_15  and  O_16
REMARK    7  A    between atoms: C_17  and  O_18
REMARK                            x       y       z     vdW  Elec       q    Type
REMARK                         _______ _______ _______ _____ _____    ______ ____
ROOT
ATOM      1  C   UNL     1       4.715   3.654  19.048  0.00  0.00    +0.000 C 
ATOM      2  C   UNL     1       3.947   4.960  19.406  0.00  0.00    +0.000 C 
ATOM      3  O   UNL     1       2.976   4.626  20.404  0.00  0.00    +0.000 OA
ATOM      4  C   UNL     1       1.987   3.662  20.009  0.00  0.00    +0.000 C 
ATOM      5  C   UNL     1       2.597   2.362  19.471  0.00  0.00    +0.000 C 
ATOM      6  C   UNL     1       3.720   2.627  18.457  0.00  0.00    +0.000 C 
ENDROOT
BRANCH   1   7
ATOM      7  N   UNL     1       5.926   3.785  18.211  0.00  0.00    +0.000 NA
ATOM      8  H   UNL     1       5.978   4.732  17.833  0.00  0.00    +0.000 HD
ATOM      9  H   UNL     1       5.844   3.171  17.395  0.00  0.00    +0.000 HD
ENDBRANCH   1   7
BRANCH   5  10
ATOM     10  O   UNL     1       1.555   1.546  18.916  0.00  0.00    +0.000 OA
ATOM     11  H   UNL     1       1.952   0.963  18.239  0.00  0.00    +0.000 HD
ENDBRANCH   5  10
BRANCH   6  12
ATOM     12  O   UNL     1       4.371   1.381  18.163  0.00  0.00    +0.000 OA
ATOM     13  H   UNL     1       5.323   1.514  18.334  0.00  0.00    +0.000 HD
ENDBRANCH   6  12
BRANCH   2  14
ATOM     14  S   UNL     1       3.273   5.845  17.936  0.00  0.00    +0.000 S 
BRANCH  14  15
ATOM     15  C   UNL     1       2.463   7.268  18.659  0.00  0.00    +0.000 A 
ATOM     16  C   UNL     1       2.137   8.345  17.828  0.00  0.00    +0.000 A 
ATOM     17  C   UNL     1       1.469   9.463  18.337  0.00  0.00    +0.000 A 
ATOM     18  C   UNL     1       1.107   9.507  19.684  0.00  0.00    +0.000 A 
ATOM     19  C   UNL     1       1.395   8.431  20.513  0.00  0.00    +0.000 A 
ATOM     20  C   UNL     1       2.065   7.314  20.000  0.00  0.00    +0.000 A 
ENDBRANCH  14  15
ENDBRANCH   2  14
BRANCH   4  21
ATOM     21  C   UNL     1       1.130   3.350  21.250  0.00  0.00    +0.000 C 
BRANCH  21  22
ATOM     22  O   UNL     1       1.713   2.292  22.011  0.00  0.00    +0.000 OA
ATOM     23  H   UNL     1       1.962   2.672  22.871  0.00  0.00    +0.000 HD
ENDBRANCH  21  22
ENDBRANCH   4  21
TORSDOF 7
ENDMDL
MODEL 8
REMARK VINA RESULT:      -6.5      3.083      4.140
REMARK  Name = 
REMARK  7 active torsions:
REMARK  status: ('A' for Active; 'I' for Inactive)
REMARK    1  A    between atoms: N_1  and  C_2
REMARK    2  A    between atoms: C_3  and  S_4
REMARK    3  A    between atoms: S_4  and  C_5
REMARK    4  A    between atoms: C_12  and  C_13
REMARK    5  A    between atoms: C_13  and  O_14
REMARK    6  A    between atoms: C_15  and  O_16
REMARK    7  A    between atoms: C_17  and  O_18
REMARK                            x       y       z     vdW  Elec       q    Type
REMARK                         _______ _______ _______ _____ _____    ______ ____
ROOT
ATOM      1  C   UNL     1       3.177   4.421  17.338  0.00  0.00    +0.000 C 
ATOM      2  C   UNL     1       3.135   5.919  17.759  0.00  0.00    +0.000 C 
ATOM      3  O   UNL     1       4.338   6.533  17.284  0.00  0.00    +0.000 OA
ATOM      4  C   UNL     1       5.560   5.991  17.811  0.00  0.00    +0.000 C 
ATOM      5  C   UNL     1       5.678   4.474  17.617  0.00  0.00    +0.000 C 
ATOM      6  C   UNL     1       4.390   3.739  18.014  0.00  0.00    +0.000 C 
ENDROOT
BRANCH   1   7
ATOM      7  N   UNL     1       1.940   3.631  17.509  0.00  0.00    +0.000 NA
ATOM      8  H   UNL     1       1.906   3.252  18.457  0.00  0.00    +0.000 HD
ATOM      9  H   UNL     1       1.970   2.814  16.891  0.00  0.00    +0.000 HD
ENDBRANCH   1   7
BRANCH   5  10
ATOM     10  O   UNL     1       6.817   3.993  18.343  0.00  0.00    +0.000 OA
ATOM     11  H   UNL     1       6.581   3.957  19.292  0.00  0.00    +0.000 HD
ENDBRANCH   5  10
BRANCH   6  12
ATOM     12  O   UNL     1       4.507   2.366  17.611  0.00  0.00    +0.000 OA
ATOM     13  H   UNL     1       4.192   1.825  18.360  0.00  0.00    +0.000 HD
ENDBRANCH   6  12
BRANCH   2  14
ATOM     14  S   UNL     1       2.794   6.171  19.554  0.00  0.00    +0.000 S 
BRANCH  14  15
ATOM     15  C   UNL     1       1.953   7.750  19.587  0.00  0.00    +0.000 A 
ATOM     16  C   UNL     1       1.404   8.190  20.795  0.00  0.00    +0.000 A 
ATOM     17  C   UNL     1       0.771   9.434  20.882  0.00  0.00    +0.000 A 
ATOM     18  C   UNL     1       0.695  10.258  19.759  0.00  0.00    +0.000 A 
ATOM     19  C   UNL     1       1.265   9.850  18.561  0.00  0.00    +0.000 A 
ATOM     20  C   UNL     1       1.896   8.603  18.477  0.00  0.00    +0.000 A 
ENDBRANCH  14  15
ENDBRANCH   2  14
BRANCH   4  21
ATOM     21  C   UNL     1       6.723   6.693  17.085  0.00  0.00    +0.000 C 
BRANCH  21  22
ATOM     22  O   UNL     1       7.307   5.823  16.114  0.00  0.00    +0.000 OA
ATOM     23  H   UNL     1       7.633   5.045  16.597  0.00  0.00    +0.000 HD
ENDBRANCH  21  22
ENDBRANCH   4  21
TORSDOF 7
ENDMDL
MODEL 9
REMARK VINA RESULT:      -6.4      3.150      4.129
REMARK  Name = 
REMARK  7 active torsions:
REMARK  status: ('A' for Active; 'I' for Inactive)
REMARK    1  A    between atoms: N_1  and  C_2
REMARK    2  A    between atoms: C_3  and  S_4
REMARK    3  A    between atoms: S_4  and  C_5
REMARK    4  A    between atoms: C_12  and  C_13
REMARK    5  A    between atoms: C_13  and  O_14
REMARK    6  A    between atoms: C_15  and  O_16
REMARK    7  A    between atoms: C_17  and  O_18
REMARK                            x       y       z     vdW  Elec       q    Type
REMARK                         _______ _______ _______ _____ _____    ______ ____
ROOT
ATOM      1  C   UNL     1       3.107   4.388  17.428  0.00  0.00    +0.000 C 
ATOM      2  C   UNL     1       3.073   5.902  17.792  0.00  0.00    +0.000 C 
ATOM      3  O   UNL     1       4.292   6.484  17.321  0.00  0.00    +0.000 OA
ATOM      4  C   UNL     1       5.497   5.950  17.894  0.00  0.00    +0.000 C 
ATOM      5  C   UNL     1       5.602   4.426  17.758  0.00  0.00    +0.000 C 
ATOM      6  C   UNL     1       4.297   3.719  18.155  0.00  0.00    +0.000 C 
ENDROOT
BRANCH   1   7
ATOM      7  N   UNL     1       1.858   3.618  17.602  0.00  0.00    +0.000 NA
ATOM      8  H   UNL     1       1.533   3.709  18.567  0.00  0.00    +0.000 HD
ATOM      9  H   UNL     1       2.053   2.620  17.475  0.00  0.00    +0.000 HD
ENDBRANCH   1   7
BRANCH   5  10
ATOM     10  O   UNL     1       6.720   3.961  18.526  0.00  0.00    +0.000 OA
ATOM     11  H   UNL     1       6.461   3.956  19.470  0.00  0.00    +0.000 HD
ENDBRANCH   5  10
BRANCH   6  12
ATOM     12  O   UNL     1       4.407   2.331  17.806  0.00  0.00    +0.000 OA
ATOM     13  H   UNL     1       3.638   2.121  17.242  0.00  0.00    +0.000 HD
ENDBRANCH   6  12
BRANCH   2  14
ATOM     14  S   UNL     1       2.697   6.224  19.568  0.00  0.00    +0.000 S 
BRANCH  14  15
ATOM     15  C   UNL     1       1.949   7.849  19.534  0.00  0.00    +0.000 A 
ATOM     16  C   UNL     1       1.929   8.550  18.323  0.00  0.00    +0.000 A 
ATOM     17  C   UNL     1       1.322   9.807  18.236  0.00  0.00    +0.000 A 
ATOM     18  C   UNL     1       0.714  10.369  19.359  0.00  0.00    +0.000 A 
ATOM     19  C   UNL     1       0.698   9.671  20.558  0.00  0.00    +0.000 A 
ATOM     20  C   UNL     1       1.308   8.413  20.643  0.00  0.00    +0.000 A 
ENDBRANCH  14  15
ENDBRANCH   2  14
BRANCH   4  21
ATOM     21  C   UNL     1       6.682   6.612  17.167  0.00  0.00    +0.000 C 
BRANCH  21  22
ATOM     22  O   UNL     1       7.385   5.653  16.375  0.00  0.00    +0.000 OA
ATOM     23  H   UNL     1       6.818   5.455  15.610  0.00  0.00    +0.000 HD
ENDBRANCH  21  22
ENDBRANCH   4  21
TORSDOF 7
ENDMDL
