MODEL 1
REMARK VINA RESULT:      -8.7      0.000      0.000
REMARK  Name = 
REMARK  7 active torsions:
REMARK  status: ('A' for Active; 'I' for Inactive)
REMARK    1  A    between atoms: C_1  and  N_2
REMARK    2  A    between atoms: N_2  and  C_3
REMARK    3  A    between atoms: C_3  and  C_4
REMARK    4  A    between atoms: C_10  and  C_12
REMARK    5  A    between atoms: C_18  and  C_19
REMARK    6  A    between atoms: C_23  and  S_24
REMARK    7  A    between atoms: S_24  and  N_25
REMARK                            x       y       z     vdW  Elec       q    Type
REMARK                         _______ _______ _______ _____ _____    ______ ____
ROOT
ATOM      1  C   UNL     1       2.554   6.429  18.937  0.00  0.00    +0.000 A 
ATOM      2  C   UNL     1       3.142   6.815  17.729  0.00  0.00    +0.000 A 
ATOM      3  C   UNL     1       3.083   8.136  17.259  0.00  0.00    +0.000 A 
ATOM      4  C   UNL     1       2.316   9.033  17.999  0.00  0.00    +0.000 A 
ATOM      5  N   UNL     1       1.997  10.349  17.815  0.00  0.00    +0.000 N 
ATOM      6  N   UNL     1       1.198  10.868  18.762  0.00  0.00    +0.000 NA
ATOM      7  C   UNL     1       0.980   9.842  19.600  0.00  0.00    +0.000 A 
ATOM      8  C   UNL     1       1.678   8.675  19.178  0.00  0.00    +0.000 A 
ATOM      9  C   UNL     1       1.841   7.373  19.680  0.00  0.00    +0.000 A 
ATOM     10  H   UNL     1       2.293  10.956  17.056  0.00  0.00    +0.000 HD
ENDROOT
BRANCH   7  11
ATOM     11  C   UNL     1       0.204   9.964  20.829  0.00  0.00    +0.000 A 
ATOM     12  C   UNL     1       0.423   9.086  21.905  0.00  0.00    +0.000 A 
ATOM     13  C   UNL     1      -0.112   9.350  23.164  0.00  0.00    +0.000 A 
ATOM     14  C   UNL     1      -0.926  10.462  23.343  0.00  0.00    +0.000 A 
ATOM     15  C   UNL     1      -1.228  11.274  22.246  0.00  0.00    +0.000 A 
ATOM     16  C   UNL     1      -0.665  11.040  20.991  0.00  0.00    +0.000 A 
BRANCH  15  17
ATOM     17  S   UNL     1      -2.339  12.624  22.446  0.00  0.00    +0.000 S 
ATOM     18  O   UNL     1      -3.592  12.137  22.973  0.00  0.00    +0.000 OA
ATOM     19  O   UNL     1      -1.643  13.753  23.017  0.00  0.00    +0.000 OA
BRANCH  17  20
ATOM     20  N   UNL     1      -2.623  13.015  20.841  0.00  0.00    +0.000 NA
ATOM     21  H   UNL     1      -2.606  12.180  20.258  0.00  0.00    +0.000 HD
ATOM     22  H   UNL     1      -3.458  13.593  20.752  0.00  0.00    +0.000 HD
ENDBRANCH  17  20
ENDBRANCH  15  17
ENDBRANCH   7  11
BRANCH   1  25
ATOM     23  C   UNL     1       3.498   2.962  20.230  0.00  0.00    +0.000 C 
ATOM     24  N   UNL     1       3.675   4.300  19.688  0.00  0.00    +0.000 N 
ATOM     25  C   UNL     1       2.514   5.038  19.465  0.00  0.00    +0.000 C 
ATOM     26  O   UNL     1       1.403   4.582  19.740  0.00  0.00    +0.000 OA
BRANCH  24  27
ATOM     27  C   UNL     1       5.043   4.762  19.479  0.00  0.00    +0.000 C 
BRANCH  27  28
ATOM     28  C   UNL     1       5.594   4.497  18.092  0.00  0.00    +0.000 A 
ATOM     29  C   UNL     1       4.817   3.980  17.039  0.00  0.00    +0.000 A 
ATOM     30  C   UNL     1       5.350   3.846  15.757  0.00  0.00    +0.000 A 
ATOM     31  C   UNL     1       6.672   4.206  15.511  0.00  0.00    +0.000 A 
ATOM     32  C   UNL     1       7.461   4.704  16.546  0.00  0.00    +0.000 A 
ATOM     33  C   UNL     1       6.926   4.850  17.826  0.00  0.00    +0.000 A 
ENDBRANCH  27  28
ENDBRANCH  24  27
ENDBRANCH   1  25
TORSDOF 6
ENDMDL
MODEL 2
REMARK VINA RESULT:      -8.6      0.863      1.393
REMARK  Name = 
REMARK  7 active torsions:
REMARK  status: ('A' for Active; 'I' for Inactive)
REMARK    1  A    between atoms: C_1  and  N_2
REMARK    2  A    between atoms: N_2  and  C_3
REMARK    3  A    between atoms: C_3  and  C_4
REMARK    4  A    between atoms: C_10  and  C_12
REMARK    5  A    between atoms: C_18  and  C_19
REMARK    6  A    between atoms: C_23  and  S_24
REMARK    7  A    between atoms: S_24  and  N_25
REMARK                            x       y       z     vdW  Elec       q    Type
REMARK                         _______ _______ _______ _____ _____    ______ ____
ROOT
ATOM      1  C   UNL     1       2.599   6.549  19.220  0.00  0.00    +0.000 A 
ATOM      2  C   UNL     1       3.168   6.866  17.984  0.00  0.00    +0.000 A 
ATOM      3  C   UNL     1       3.036   8.139  17.406  0.00  0.00    +0.000 A 
ATOM      4  C   UNL     1       2.217   9.049  18.070  0.00  0.00    +0.000 A 
ATOM      5  N   UNL     1       1.825  10.325  17.778  0.00  0.00    +0.000 N 
ATOM      6  N   UNL     1       0.994  10.874  18.680  0.00  0.00    +0.000 NA
ATOM      7  C   UNL     1       0.831   9.910  19.600  0.00  0.00    +0.000 A 
ATOM      8  C   UNL     1       1.596   8.754  19.275  0.00  0.00    +0.000 A 
ATOM      9  C   UNL     1       1.830   7.508  19.883  0.00  0.00    +0.000 A 
ATOM     10  H   UNL     1       2.089  10.883  16.972  0.00  0.00    +0.000 HD
ENDROOT
BRANCH   7  11
ATOM     11  C   UNL     1       0.045  10.088  20.815  0.00  0.00    +0.000 A 
ATOM     12  C   UNL     1       0.290   9.296  21.950  0.00  0.00    +0.000 A 
ATOM     13  C   UNL     1      -0.262   9.626  23.187  0.00  0.00    +0.000 A 
ATOM     14  C   UNL     1      -1.116  10.718  23.286  0.00  0.00    +0.000 A 
ATOM     15  C   UNL     1      -1.441  11.440  22.134  0.00  0.00    +0.000 A 
ATOM     16  C   UNL     1      -0.863  11.141  20.900  0.00  0.00    +0.000 A 
BRANCH  15  17
ATOM     17  S   UNL     1      -2.601  12.760  22.237  0.00  0.00    +0.000 S 
ATOM     18  O   UNL     1      -1.956  13.919  22.808  0.00  0.00    +0.000 OA
ATOM     19  O   UNL     1      -3.381  12.825  21.022  0.00  0.00    +0.000 OA
BRANCH  17  20
ATOM     20  N   UNL     1      -3.628  12.161  23.419  0.00  0.00    +0.000 NA
ATOM     21  H   UNL     1      -4.579  12.078  23.061  0.00  0.00    +0.000 HD
ATOM     22  H   UNL     1      -3.243  11.315  23.837  0.00  0.00    +0.000 HD
ENDBRANCH  17  20
ENDBRANCH  15  17
ENDBRANCH   7  11
BRANCH   1  25
ATOM     23  C   UNL     1       2.955   2.806  19.888  0.00  0.00    +0.000 C 
ATOM     24  N   UNL     1       2.927   4.051  19.137  0.00  0.00    +0.000 N 
ATOM     25  C   UNL     1       2.635   5.206  19.861  0.00  0.00    +0.000 C 
ATOM     26  O   UNL     1       2.440   5.167  21.076  0.00  0.00    +0.000 OA
BRANCH  24  27
ATOM     27  C   UNL     1       3.254   3.984  17.717  0.00  0.00    +0.000 C 
BRANCH  27  28
ATOM     28  C   UNL     1       4.711   4.245  17.391  0.00  0.00    +0.000 A 
ATOM     29  C   UNL     1       5.692   4.473  18.373  0.00  0.00    +0.000 A 
ATOM     30  C   UNL     1       7.035   4.611  18.023  0.00  0.00    +0.000 A 
ATOM     31  C   UNL     1       7.417   4.544  16.685  0.00  0.00    +0.000 A 
ATOM     32  C   UNL     1       6.456   4.336  15.698  0.00  0.00    +0.000 A 
ATOM     33  C   UNL     1       5.113   4.185  16.048  0.00  0.00    +0.000 A 
ENDBRANCH  27  28
ENDBRANCH  24  27
ENDBRANCH   1  25
TORSDOF 6
ENDMDL
MODEL 3
REMARK VINA RESULT:      -8.5      2.516      4.506
REMARK  Name = 
REMARK  7 active torsions:
REMARK  status: ('A' for Active; 'I' for Inactive)
REMARK    1  A    between atoms: C_1  and  N_2
REMARK    2  A    between atoms: N_2  and  C_3
REMARK    3  A    between atoms: C_3  and  C_4
REMARK    4  A    between atoms: C_10  and  C_12
REMARK    5  A    between atoms: C_18  and  C_19
REMARK    6  A    between atoms: C_23  and  S_24
REMARK    7  A    between atoms: S_24  and  N_25
REMARK                            x       y       z     vdW  Elec       q    Type
REMARK                         _______ _______ _______ _____ _____    ______ ____
ROOT
ATOM      1  C   UNL     1       4.159   3.965  17.542  0.00  0.00    +0.000 A 
ATOM      2  C   UNL     1       3.999   2.804  18.304  0.00  0.00    +0.000 A 
ATOM      3  C   UNL     1       3.190   2.770  19.451  0.00  0.00    +0.000 A 
ATOM      4  C   UNL     1       2.632   3.978  19.863  0.00  0.00    +0.000 A 
ATOM      5  N   UNL     1       1.858   4.322  20.935  0.00  0.00    +0.000 N 
ATOM      6  N   UNL     1       1.532   5.624  20.994  0.00  0.00    +0.000 NA
ATOM      7  C   UNL     1       2.125   6.156  19.914  0.00  0.00    +0.000 A 
ATOM      8  C   UNL     1       2.808   5.160  19.159  0.00  0.00    +0.000 A 
ATOM      9  C   UNL     1       3.537   5.144  17.957  0.00  0.00    +0.000 A 
ATOM     10  H   UNL     1       1.516   3.712  21.671  0.00  0.00    +0.000 HD
ENDROOT
BRANCH   7  11
ATOM     11  C   UNL     1       1.988   7.557  19.534  0.00  0.00    +0.000 A 
ATOM     12  C   UNL     1       2.201   7.965  18.206  0.00  0.00    +0.000 A 
ATOM     13  C   UNL     1       1.821   9.235  17.776  0.00  0.00    +0.000 A 
ATOM     14  C   UNL     1       1.281  10.133  18.689  0.00  0.00    +0.000 A 
ATOM     15  C   UNL     1       1.168   9.761  20.032  0.00  0.00    +0.000 A 
ATOM     16  C   UNL     1       1.509   8.479  20.463  0.00  0.00    +0.000 A 
BRANCH  15  17
ATOM     17  S   UNL     1       0.579  10.929  21.208  0.00  0.00    +0.000 S 
ATOM     18  O   UNL     1       0.281  10.251  22.448  0.00  0.00    +0.000 OA
ATOM     19  O   UNL     1       1.383  12.129  21.154  0.00  0.00    +0.000 OA
BRANCH  17  20
ATOM     20  N   UNL     1      -0.897  11.326  20.521  0.00  0.00    +0.000 NA
ATOM     21  H   UNL     1      -0.782  11.578  19.540  0.00  0.00    +0.000 HD
ATOM     22  H   UNL     1      -1.589  10.601  20.707  0.00  0.00    +0.000 HD
ENDBRANCH  17  20
ENDBRANCH  15  17
ENDBRANCH   7  11
BRANCH   1  25
ATOM     23  C   UNL     1       7.157   4.552  15.250  0.00  0.00    +0.000 C 
ATOM     24  N   UNL     1       6.386   4.486  16.482  0.00  0.00    +0.000 N 
ATOM     25  C   UNL     1       5.053   4.096  16.359  0.00  0.00    +0.000 C 
ATOM     26  O   UNL     1       4.571   3.799  15.266  0.00  0.00    +0.000 OA
BRANCH  24  27
ATOM     27  C   UNL     1       7.086   4.782  17.727  0.00  0.00    +0.000 C 
BRANCH  27  28
ATOM     28  C   UNL     1       7.402   6.249  17.940  0.00  0.00    +0.000 A 
ATOM     29  C   UNL     1       8.361   6.705  18.863  0.00  0.00    +0.000 A 
ATOM     30  C   UNL     1       8.682   8.060  18.950  0.00  0.00    +0.000 A 
ATOM     31  C   UNL     1       8.038   8.982  18.131  0.00  0.00    +0.000 A 
ATOM     32  C   UNL     1       7.074   8.551  17.222  0.00  0.00    +0.000 A 
ATOM     33  C   UNL     1       6.760   7.194  17.125  0.00  0.00    +0.000 A 
ENDBRANCH  27  28
ENDBRANCH  24  27
ENDBRANCH   1  25
TORSDOF 6
ENDMDL
MODEL 4
REMARK VINA RESULT:      -8.4      2.477      4.528
REMARK  Name = 
REMARK  7 active torsions:
REMARK  status: ('A' for Active; 'I' for Inactive)
REMARK    1  A    between atoms: C_1  and  N_2
REMARK    2  A    between atoms: N_2  and  C_3
REMARK    3  A    between atoms: C_3  and  C_4
REMARK    4  A    between atoms: C_10  and  C_12
REMARK    5  A    between atoms: C_18  and  C_19
REMARK    6  A    between atoms: C_23  and  S_24
REMARK    7  A    between atoms: S_24  and  N_25
REMARK                            x       y       z     vdW  Elec       q    Type
REMARK                         _______ _______ _______ _____ _____    ______ ____
ROOT
ATOM      1  C   UNL     1       4.115   3.979  17.178  0.00  0.00    +0.000 A 
ATOM      2  C   UNL     1       3.987   2.778  17.882  0.00  0.00    +0.000 A 
ATOM      3  C   UNL     1       3.234   2.682  19.063  0.00  0.00    +0.000 A 
ATOM      4  C   UNL     1       2.701   3.866  19.567  0.00  0.00    +0.000 A 
ATOM      5  N   UNL     1       1.981   4.151  20.693  0.00  0.00    +0.000 N 
ATOM      6  N   UNL     1       1.663   5.448  20.839  0.00  0.00    +0.000 NA
ATOM      7  C   UNL     1       2.206   6.038  19.763  0.00  0.00    +0.000 A 
ATOM      8  C   UNL     1       2.848   5.085  18.922  0.00  0.00    +0.000 A 
ATOM      9  C   UNL     1       3.518   5.135  17.688  0.00  0.00    +0.000 A 
ATOM     10  H   UNL     1       1.673   3.501  21.410  0.00  0.00    +0.000 HD
ENDROOT
BRANCH   7  11
ATOM     11  C   UNL     1       2.056   7.459  19.468  0.00  0.00    +0.000 A 
ATOM     12  C   UNL     1       2.374   7.965  18.196  0.00  0.00    +0.000 A 
ATOM     13  C   UNL     1       1.991   9.251  17.821  0.00  0.00    +0.000 A 
ATOM     14  C   UNL     1       1.341  10.067  18.738  0.00  0.00    +0.000 A 
ATOM     15  C   UNL     1       1.120   9.598  20.037  0.00  0.00    +0.000 A 
ATOM     16  C   UNL     1       1.464   8.298  20.409  0.00  0.00    +0.000 A 
BRANCH  15  17
ATOM     17  S   UNL     1       0.388  10.664  21.231  0.00  0.00    +0.000 S 
ATOM     18  O   UNL     1      -0.931  11.045  20.786  0.00  0.00    +0.000 OA
ATOM     19  O   UNL     1       0.644  10.161  22.561  0.00  0.00    +0.000 OA
BRANCH  17  20
ATOM     20  N   UNL     1       1.357  12.020  21.051  0.00  0.00    +0.000 NA
ATOM     21  H   UNL     1       1.230  12.434  20.129  0.00  0.00    +0.000 HD
ATOM     22  H   UNL     1       1.235  12.658  21.837  0.00  0.00    +0.000 HD
ENDBRANCH  17  20
ENDBRANCH  15  17
ENDBRANCH   7  11
BRANCH   1  25
ATOM     23  C   UNL     1       7.027   4.568  14.779  0.00  0.00    +0.000 C 
ATOM     24  N   UNL     1       6.322   4.419  16.042  0.00  0.00    +0.000 N 
ATOM     25  C   UNL     1       4.952   4.175  15.963  0.00  0.00    +0.000 C 
ATOM     26  O   UNL     1       4.383   4.067  14.876  0.00  0.00    +0.000 OA
BRANCH  24  27
ATOM     27  C   UNL     1       7.115   4.487  17.264  0.00  0.00    +0.000 C 
BRANCH  27  28
ATOM     28  C   UNL     1       7.550   5.884  17.658  0.00  0.00    +0.000 A 
ATOM     29  C   UNL     1       7.287   7.023  16.875  0.00  0.00    +0.000 A 
ATOM     30  C   UNL     1       7.625   8.298  17.332  0.00  0.00    +0.000 A 
ATOM     31  C   UNL     1       8.248   8.453  18.567  0.00  0.00    +0.000 A 
ATOM     32  C   UNL     1       8.531   7.335  19.348  0.00  0.00    +0.000 A 
ATOM     33  C   UNL     1       8.183   6.060  18.898  0.00  0.00    +0.000 A 
ENDBRANCH  27  28
ENDBRANCH  24  27
ENDBRANCH   1  25
TORSDOF 6
ENDMDL
MODEL 5
REMARK VINA RESULT:      -8.4      2.840      4.782
REMARK  Name = 
REMARK  7 active torsions:
REMARK  status: ('A' for Active; 'I' for Inactive)
REMARK    1  A    between atoms: C_1  and  N_2
REMARK    2  A    between atoms: N_2  and  C_3
REMARK    3  A    between atoms: C_3  and  C_4
REMARK    4  A    between atoms: C_10  and  C_12
REMARK    5  A    between atoms: C_18  and  C_19
REMARK    6  A    between atoms: C_23  and  S_24
REMARK    7  A    between atoms: S_24  and  N_25
REMARK                            x       y       z     vdW  Elec       q    Type
REMARK                         _______ _______ _______ _____ _____    ______ ____
ROOT
ATOM      1  C   UNL     1       4.192   3.626  17.223  0.00  0.00    +0.000 A 
ATOM      2  C   UNL     1       3.990   2.419  17.900  0.00  0.00    +0.000 A 
ATOM      3  C   UNL     1       3.164   2.327  19.031  0.00  0.00    +0.000 A 
ATOM      4  C   UNL     1       2.632   3.519  19.520  0.00  0.00    +0.000 A 
ATOM      5  N   UNL     1       1.851   3.807  20.604  0.00  0.00    +0.000 N 
ATOM      6  N   UNL     1       1.559   5.110  20.749  0.00  0.00    +0.000 NA
ATOM      7  C   UNL     1       2.181   5.700  19.717  0.00  0.00    +0.000 A 
ATOM      8  C   UNL     1       2.849   4.742  18.903  0.00  0.00    +0.000 A 
ATOM      9  C   UNL     1       3.595   4.790  17.713  0.00  0.00    +0.000 A 
ATOM     10  H   UNL     1       1.483   3.156  21.290  0.00  0.00    +0.000 HD
ENDROOT
BRANCH   7  11
ATOM     11  C   UNL     1       2.086   7.128  19.435  0.00  0.00    +0.000 A 
ATOM     12  C   UNL     1       2.356   7.624  18.148  0.00  0.00    +0.000 A 
ATOM     13  C   UNL     1       2.017   8.930  17.798  0.00  0.00    +0.000 A 
ATOM     14  C   UNL     1       1.463   9.773  18.754  0.00  0.00    +0.000 A 
ATOM     15  C   UNL     1       1.294   9.308  20.062  0.00  0.00    +0.000 A 
ATOM     16  C   UNL     1       1.593   7.991  20.411  0.00  0.00    +0.000 A 
BRANCH  15  17
ATOM     17  S   UNL     1       0.688  10.403  21.300  0.00  0.00    +0.000 S 
ATOM     18  O   UNL     1       1.364  11.674  21.186  0.00  0.00    +0.000 OA
ATOM     19  O   UNL     1      -0.750  10.294  21.391  0.00  0.00    +0.000 OA
BRANCH  17  20
ATOM     20  N   UNL     1       1.300   9.665  22.675  0.00  0.00    +0.000 NA
ATOM     21  H   UNL     1       0.978  10.145  23.515  0.00  0.00    +0.000 HD
ATOM     22  H   UNL     1       1.128   8.661  22.653  0.00  0.00    +0.000 HD
ENDBRANCH  17  20
ENDBRANCH  15  17
ENDBRANCH   7  11
BRANCH   1  25
ATOM     23  C   UNL     1       6.492   5.117  14.565  0.00  0.00    +0.000 C 
ATOM     24  N   UNL     1       5.586   5.073  15.702  0.00  0.00    +0.000 N 
ATOM     25  C   UNL     1       5.107   3.816  16.064  0.00  0.00    +0.000 C 
ATOM     26  O   UNL     1       5.458   2.799  15.464  0.00  0.00    +0.000 OA
BRANCH  24  27
ATOM     27  C   UNL     1       5.306   6.331  16.384  0.00  0.00    +0.000 C 
BRANCH  27  28
ATOM     28  C   UNL     1       6.411   6.810  17.305  0.00  0.00    +0.000 A 
ATOM     29  C   UNL     1       7.005   5.995  18.285  0.00  0.00    +0.000 A 
ATOM     30  C   UNL     1       8.084   6.456  19.040  0.00  0.00    +0.000 A 
ATOM     31  C   UNL     1       8.573   7.745  18.842  0.00  0.00    +0.000 A 
ATOM     32  C   UNL     1       7.986   8.571  17.887  0.00  0.00    +0.000 A 
ATOM     33  C   UNL     1       6.915   8.107  17.122  0.00  0.00    +0.000 A 
ENDBRANCH  27  28
ENDBRANCH  24  27
ENDBRANCH   1  25
TORSDOF 6
ENDMDL
MODEL 6
REMARK VINA RESULT:      -8.4      0.718      1.152
REMARK  Name = 
REMARK  7 active torsions:
REMARK  status: ('A' for Active; 'I' for Inactive)
REMARK    1  A    between atoms: C_1  and  N_2
REMARK    2  A    between atoms: N_2  and  C_3
REMARK    3  A    between atoms: C_3  and  C_4
REMARK    4  A    between atoms: C_10  and  C_12
REMARK    5  A    between atoms: C_18  and  C_19
REMARK    6  A    between atoms: C_23  and  S_24
REMARK    7  A    between atoms: S_24  and  N_25
REMARK                            x       y       z     vdW  Elec       q    Type
REMARK                         _______ _______ _______ _____ _____    ______ ____
ROOT
ATOM      1  C   UNL     1       2.622   6.478  18.869  0.00  0.00    +0.000 A 
ATOM      2  C   UNL     1       3.172   6.886  17.650  0.00  0.00    +0.000 A 
ATOM      3  C   UNL     1       3.071   8.209  17.192  0.00  0.00    +0.000 A 
ATOM      4  C   UNL     1       2.301   9.082  17.957  0.00  0.00    +0.000 A 
ATOM      5  N   UNL     1       1.948  10.392  17.791  0.00  0.00    +0.000 N 
ATOM      6  N   UNL     1       1.160  10.885  18.761  0.00  0.00    +0.000 NA
ATOM      7  C   UNL     1       0.986   9.848  19.596  0.00  0.00    +0.000 A 
ATOM      8  C   UNL     1       1.701   8.701  19.148  0.00  0.00    +0.000 A 
ATOM      9  C   UNL     1       1.905   7.399  19.636  0.00  0.00    +0.000 A 
ATOM     10  H   UNL     1       2.211  11.011  17.030  0.00  0.00    +0.000 HD
ENDROOT
BRANCH   7  11
ATOM     11  C   UNL     1       0.237   9.942  20.843  0.00  0.00    +0.000 A 
ATOM     12  C   UNL     1       0.529   9.088  21.921  0.00  0.00    +0.000 A 
ATOM     13  C   UNL     1       0.013   9.337  23.192  0.00  0.00    +0.000 A 
ATOM     14  C   UNL     1      -0.851  10.407  23.383  0.00  0.00    +0.000 A 
ATOM     15  C   UNL     1      -1.223  11.192  22.286  0.00  0.00    +0.000 A 
ATOM     16  C   UNL     1      -0.681  10.975  21.019  0.00  0.00    +0.000 A 
BRANCH  15  17
ATOM     17  S   UNL     1      -2.396  12.486  22.504  0.00  0.00    +0.000 S 
ATOM     18  O   UNL     1      -2.902  12.894  21.215  0.00  0.00    +0.000 OA
ATOM     19  O   UNL     1      -3.265  12.180  23.618  0.00  0.00    +0.000 OA
BRANCH  17  20
ATOM     20  N   UNL     1      -1.386  13.718  23.026  0.00  0.00    +0.000 NA
ATOM     21  H   UNL     1      -1.895  14.376  23.614  0.00  0.00    +0.000 HD
ATOM     22  H   UNL     1      -0.533  13.337  23.433  0.00  0.00    +0.000 HD
ENDBRANCH  17  20
ENDBRANCH  15  17
ENDBRANCH   7  11
BRANCH   1  25
ATOM     23  C   UNL     1       3.678   3.039  20.148  0.00  0.00    +0.000 C 
ATOM     24  N   UNL     1       3.812   4.386  19.619  0.00  0.00    +0.000 N 
ATOM     25  C   UNL     1       2.627   5.082  19.386  0.00  0.00    +0.000 C 
ATOM     26  O   UNL     1       1.531   4.584  19.645  0.00  0.00    +0.000 OA
BRANCH  24  27
ATOM     27  C   UNL     1       5.164   4.900  19.429  0.00  0.00    +0.000 C 
BRANCH  27  28
ATOM     28  C   UNL     1       5.654   4.876  17.995  0.00  0.00    +0.000 A 
ATOM     29  C   UNL     1       6.681   5.710  17.517  0.00  0.00    +0.000 A 
ATOM     30  C   UNL     1       7.160   5.579  16.213  0.00  0.00    +0.000 A 
ATOM     31  C   UNL     1       6.606   4.627  15.360  0.00  0.00    +0.000 A 
ATOM     32  C   UNL     1       5.578   3.804  15.812  0.00  0.00    +0.000 A 
ATOM     33  C   UNL     1       5.106   3.925  17.120  0.00  0.00    +0.000 A 
ENDBRANCH  27  28
ENDBRANCH  24  27
ENDBRANCH   1  25
TORSDOF 6
ENDMDL
MODEL 7
REMARK VINA RESULT:      -8.2      0.888      1.159
REMARK  Name = 
REMARK  7 active torsions:
REMARK  status: ('A' for Active; 'I' for Inactive)
REMARK    1  A    between atoms: C_1  and  N_2
REMARK    2  A    between atoms: N_2  and  C_3
REMARK    3  A    between atoms: C_3  and  C_4
REMARK    4  A    between atoms: C_10  and  C_12
REMARK    5  A    between atoms: C_18  and  C_19
REMARK    6  A    between atoms: C_23  and  S_24
REMARK    7  A    between atoms: S_24  and  N_25
REMARK                            x       y       z     vdW  Elec       q    Type
REMARK                         _______ _______ _______ _____ _____    ______ ____
ROOT
ATOM      1  C   UNL     1       2.577   6.519  19.232  0.00  0.00    +0.000 A 
ATOM      2  C   UNL     1       3.146   6.824  17.992  0.00  0.00    +0.000 A 
ATOM      3  C   UNL     1       3.013   8.091  17.401  0.00  0.00    +0.000 A 
ATOM      4  C   UNL     1       2.195   9.008  18.057  0.00  0.00    +0.000 A 
ATOM      5  N   UNL     1       1.803  10.281  17.753  0.00  0.00    +0.000 N 
ATOM      6  N   UNL     1       0.973  10.839  18.650  0.00  0.00    +0.000 NA
ATOM      7  C   UNL     1       0.811   9.885  19.580  0.00  0.00    +0.000 A 
ATOM      8  C   UNL     1       1.575   8.725  19.266  0.00  0.00    +0.000 A 
ATOM      9  C   UNL     1       1.810   7.486  19.886  0.00  0.00    +0.000 A 
ATOM     10  H   UNL     1       2.065  10.831  16.941  0.00  0.00    +0.000 HD
ENDROOT
BRANCH   7  11
ATOM     11  C   UNL     1       0.026  10.075  20.794  0.00  0.00    +0.000 A 
ATOM     12  C   UNL     1       0.110   9.155  21.854  0.00  0.00    +0.000 A 
ATOM     13  C   UNL     1      -0.420   9.456  23.107  0.00  0.00    +0.000 A 
ATOM     14  C   UNL     1      -1.096  10.656  23.295  0.00  0.00    +0.000 A 
ATOM     15  C   UNL     1      -1.269  11.521  22.210  0.00  0.00    +0.000 A 
ATOM     16  C   UNL     1      -0.708  11.246  20.963  0.00  0.00    +0.000 A 
BRANCH  15  17
ATOM     17  S   UNL     1      -2.212  12.993  22.418  0.00  0.00    +0.000 S 
ATOM     18  O   UNL     1      -2.836  13.342  21.163  0.00  0.00    +0.000 OA
ATOM     19  O   UNL     1      -2.946  12.936  23.661  0.00  0.00    +0.000 OA
BRANCH  17  20
ATOM     20  N   UNL     1      -0.979  14.104  22.656  0.00  0.00    +0.000 NA
ATOM     21  H   UNL     1      -1.357  15.005  22.946  0.00  0.00    +0.000 HD
ATOM     22  H   UNL     1      -0.257  13.717  23.262  0.00  0.00    +0.000 HD
ENDBRANCH  17  20
ENDBRANCH  15  17
ENDBRANCH   7  11
BRANCH   1  25
ATOM     23  C   UNL     1       2.928   2.783  19.935  0.00  0.00    +0.000 C 
ATOM     24  N   UNL     1       2.898   4.020  19.172  0.00  0.00    +0.000 N 
ATOM     25  C   UNL     1       2.615   5.183  19.886  0.00  0.00    +0.000 C 
ATOM     26  O   UNL     1       2.428   5.157  21.103  0.00  0.00    +0.000 OA
BRANCH  24  27
ATOM     27  C   UNL     1       3.215   3.938  17.751  0.00  0.00    +0.000 C 
BRANCH  27  28
ATOM     28  C   UNL     1       4.685   4.106  17.420  0.00  0.00    +0.000 A 
ATOM     29  C   UNL     1       5.193   4.045  16.110  0.00  0.00    +0.000 A 
ATOM     30  C   UNL     1       6.539   4.303  15.852  0.00  0.00    +0.000 A 
ATOM     31  C   UNL     1       7.403   4.607  16.901  0.00  0.00    +0.000 A 
ATOM     32  C   UNL     1       6.921   4.656  18.206  0.00  0.00    +0.000 A 
ATOM     33  C   UNL     1       5.571   4.410  18.465  0.00  0.00    +0.000 A 
ENDBRANCH  27  28
ENDBRANCH  24  27
ENDBRANCH   1  25
TORSDOF 6
ENDMDL
MODEL 8
REMARK VINA RESULT:      -8.2      0.888      1.377
REMARK  Name = 
REMARK  7 active torsions:
REMARK  status: ('A' for Active; 'I' for Inactive)
REMARK    1  A    between atoms: C_1  and  N_2
REMARK    2  A    between atoms: N_2  and  C_3
REMARK    3  A    between atoms: C_3  and  C_4
REMARK    4  A    between atoms: C_10  and  C_12
REMARK    5  A    between atoms: C_18  and  C_19
REMARK    6  A    between atoms: C_23  and  S_24
REMARK    7  A    between atoms: S_24  and  N_25
REMARK                            x       y       z     vdW  Elec       q    Type
REMARK                         _______ _______ _______ _____ _____    ______ ____
ROOT
ATOM      1  C   UNL     1       2.548   6.645  19.255  0.00  0.00    +0.000 A 
ATOM      2  C   UNL     1       3.094   6.951  18.005  0.00  0.00    +0.000 A 
ATOM      3  C   UNL     1       2.928   8.209  17.405  0.00  0.00    +0.000 A 
ATOM      4  C   UNL     1       2.100   9.115  18.064  0.00  0.00    +0.000 A 
ATOM      5  N   UNL     1       1.678  10.377  17.754  0.00  0.00    +0.000 N 
ATOM      6  N   UNL     1       0.849  10.926  18.657  0.00  0.00    +0.000 NA
ATOM      7  C   UNL     1       0.719   9.977  19.597  0.00  0.00    +0.000 A 
ATOM      8  C   UNL     1       1.502   8.830  19.283  0.00  0.00    +0.000 A 
ATOM      9  C   UNL     1       1.770   7.602  19.911  0.00  0.00    +0.000 A 
ATOM     10  H   UNL     1       1.919  10.925  16.934  0.00  0.00    +0.000 HD
ENDROOT
BRANCH   7  11
ATOM     11  C   UNL     1      -0.054  10.163  20.820  0.00  0.00    +0.000 A 
ATOM     12  C   UNL     1       0.214   9.388  21.962  0.00  0.00    +0.000 A 
ATOM     13  C   UNL     1      -0.325   9.729  23.202  0.00  0.00    +0.000 A 
ATOM     14  C   UNL     1      -1.190  10.812  23.297  0.00  0.00    +0.000 A 
ATOM     15  C   UNL     1      -1.537  11.516  22.140  0.00  0.00    +0.000 A 
ATOM     16  C   UNL     1      -0.972  11.207  20.903  0.00  0.00    +0.000 A 
BRANCH  15  17
ATOM     17  S   UNL     1      -2.711  12.824  22.241  0.00  0.00    +0.000 S 
ATOM     18  O   UNL     1      -3.979  12.294  22.683  0.00  0.00    +0.000 OA
ATOM     19  O   UNL     1      -2.101  13.986  22.846  0.00  0.00    +0.000 OA
BRANCH  17  20
ATOM     20  N   UNL     1      -2.892  13.186  20.614  0.00  0.00    +0.000 NA
ATOM     21  H   UNL     1      -3.826  12.938  20.292  0.00  0.00    +0.000 HD
ATOM     22  H   UNL     1      -2.604  14.146  20.424  0.00  0.00    +0.000 HD
ENDBRANCH  17  20
ENDBRANCH  15  17
ENDBRANCH   7  11
BRANCH   1  25
ATOM     23  C   UNL     1       3.341   3.014  20.128  0.00  0.00    +0.000 C 
ATOM     24  N   UNL     1       3.329   4.251  19.364  0.00  0.00    +0.000 N 
ATOM     25  C   UNL     1       2.621   5.316  19.920  0.00  0.00    +0.000 C 
ATOM     26  O   UNL     1       2.062   5.212  21.012  0.00  0.00    +0.000 OA
BRANCH  24  27
ATOM     27  C   UNL     1       4.094   4.280  18.123  0.00  0.00    +0.000 C 
BRANCH  27  28
ATOM     28  C   UNL     1       5.404   5.037  18.206  0.00  0.00    +0.000 A 
ATOM     29  C   UNL     1       6.149   5.162  19.392  0.00  0.00    +0.000 A 
ATOM     30  C   UNL     1       7.397   5.787  19.391  0.00  0.00    +0.000 A 
ATOM     31  C   UNL     1       7.910   6.315  18.209  0.00  0.00    +0.000 A 
ATOM     32  C   UNL     1       7.178   6.215  17.028  0.00  0.00    +0.000 A 
ATOM     33  C   UNL     1       5.936   5.579  17.025  0.00  0.00    +0.000 A 
ENDBRANCH  27  28
ENDBRANCH  24  27
ENDBRANCH   1  25
TORSDOF 6
ENDMDL
MODEL 9
REMARK VINA RESULT:      -8.2      5.741      9.064
REMARK  Name = 
REMARK  7 active torsions:
REMARK  status: ('A' for Active; 'I' for Inactive)
REMARK    1  A    between atoms: C_1  and  N_2
REMARK    2  A    between atoms: N_2  and  C_3
REMARK    3  A    between atoms: C_3  and  C_4
REMARK    4  A    between atoms: C_10  and  C_12
REMARK    5  A    between atoms: C_18  and  C_19
REMARK    6  A    between atoms: C_23  and  S_24
REMARK    7  A    between atoms: S_24  and  N_25
REMARK                            x       y       z     vdW  Elec       q    Type
REMARK                         _______ _______ _______ _____ _____    ______ ____
ROOT
ATOM      1  C   UNL     1      -5.437  12.810  21.632  0.00  0.00    +0.000 A 
ATOM      2  C   UNL     1      -5.912  13.867  22.414  0.00  0.00    +0.000 A 
ATOM      3  C   UNL     1      -5.058  14.652  23.206  0.00  0.00    +0.000 A 
ATOM      4  C   UNL     1      -3.721  14.263  23.264  0.00  0.00    +0.000 A 
ATOM      5  N   UNL     1      -2.647  14.746  23.957  0.00  0.00    +0.000 N 
ATOM      6  N   UNL     1      -1.504  14.070  23.756  0.00  0.00    +0.000 NA
ATOM      7  C   UNL     1      -1.848  13.098  22.896  0.00  0.00    +0.000 A 
ATOM      8  C   UNL     1      -3.223  13.190  22.539  0.00  0.00    +0.000 A 
ATOM      9  C   UNL     1      -4.079  12.487  21.674  0.00  0.00    +0.000 A 
ATOM     10  H   UNL     1      -2.627  15.539  24.591  0.00  0.00    +0.000 HD
ENDROOT
BRANCH   7  11
ATOM     11  C   UNL     1      -0.893  12.146  22.342  0.00  0.00    +0.000 A 
ATOM     12  C   UNL     1      -0.712  10.884  22.934  0.00  0.00    +0.000 A 
ATOM     13  C   UNL     1      -0.012   9.876  22.274  0.00  0.00    +0.000 A 
ATOM     14  C   UNL     1       0.569  10.142  21.040  0.00  0.00    +0.000 A 
ATOM     15  C   UNL     1       0.477  11.429  20.502  0.00  0.00    +0.000 A 
ATOM     16  C   UNL     1      -0.255  12.433  21.137  0.00  0.00    +0.000 A 
BRANCH  15  17
ATOM     17  S   UNL     1       1.298  11.797  18.990  0.00  0.00    +0.000 S 
ATOM     18  O   UNL     1       2.413  12.676  19.253  0.00  0.00    +0.000 OA
ATOM     19  O   UNL     1       1.426  10.598  18.195  0.00  0.00    +0.000 OA
BRANCH  17  20
ATOM     20  N   UNL     1       0.128  12.733  18.237  0.00  0.00    +0.000 NA
ATOM     21  H   UNL     1       0.000  12.440  17.269  0.00  0.00    +0.000 HD
ATOM     22  H   UNL     1      -0.721  12.769  18.799  0.00  0.00    +0.000 HD
ENDBRANCH  17  20
ENDBRANCH  15  17
ENDBRANCH   7  11
BRANCH   1  25
ATOM     23  C   UNL     1      -7.013  10.820  18.780  0.00  0.00    +0.000 C 
ATOM     24  N   UNL     1      -6.136  11.770  19.445  0.00  0.00    +0.000 N 
ATOM     25  C   UNL     1      -6.287  11.892  20.825  0.00  0.00    +0.000 C 
ATOM     26  O   UNL     1      -7.104  11.209  21.443  0.00  0.00    +0.000 OA
BRANCH  24  27
ATOM     27  C   UNL     1      -5.152  12.463  18.621  0.00  0.00    +0.000 C 
BRANCH  27  28
ATOM     28  C   UNL     1      -4.255  11.553  17.807  0.00  0.00    +0.000 A 
ATOM     29  C   UNL     1      -4.361  11.413  16.411  0.00  0.00    +0.000 A 
ATOM     30  C   UNL     1      -3.448  10.636  15.699  0.00  0.00    +0.000 A 
ATOM     31  C   UNL     1      -2.427   9.970  16.371  0.00  0.00    +0.000 A 
ATOM     32  C   UNL     1      -2.316  10.083  17.755  0.00  0.00    +0.000 A 
ATOM     33  C   UNL     1      -3.222  10.871  18.468  0.00  0.00    +0.000 A 
ENDBRANCH  27  28
ENDBRANCH  24  27
ENDBRANCH   1  25
TORSDOF 6
ENDMDL
