MODEL 1
REMARK VINA RESULT:      -7.9      0.000      0.000
REMARK  Name = 
REMARK  7 active torsions:
REMARK  status: ('A' for Active; 'I' for Inactive)
REMARK    1  A    between atoms: S_2  and  N_4
REMARK    2  A    between atoms: S_2  and  C_24
REMARK    3  A    between atoms: N_4  and  C_5
REMARK    4  A    between atoms: C_5  and  C_6
REMARK    5  A    between atoms: C_6  and  C_7
REMARK    6  A    between atoms: C_6  and  N_12
REMARK    7  A    between atoms: N_15  and  C_16
REMARK                            x       y       z     vdW  Elec       q    Type
REMARK                         _______ _______ _______ _____ _____    ______ ____
ROOT
ATOM      1  C   UNL     1       2.765   4.884  18.281  0.00  0.00    +0.000 C 
ENDROOT
BRANCH   1   2
ATOM      2  N   UNL     1       3.472   6.142  18.615  0.00  0.00    +0.000 NA
ATOM      3  C   UNL     1       3.328   7.253  17.667  0.00  0.00    +0.000 C 
ATOM      4  C   UNL     1       2.110   8.196  17.798  0.00  0.00    +0.000 C 
ATOM      5  N   UNL     1       1.669   8.388  19.182  0.00  0.00    +0.000 N 
ATOM      6  C   UNL     1       1.842   7.353  20.190  0.00  0.00    +0.000 C 
ATOM      7  C   UNL     1       3.201   6.662  19.978  0.00  0.00    +0.000 C 
BRANCH   5   8
ATOM      8  C   UNL     1       0.881   9.495  19.475  0.00  0.00    +0.000 A 
ATOM      9  C   UNL     1       0.745  10.012  20.764  0.00  0.00    +0.000 A 
ATOM     10  C   UNL     1      -0.018  11.165  21.007  0.00  0.00    +0.000 A 
ATOM     11  C   UNL     1      -0.653  11.800  19.945  0.00  0.00    +0.000 A 
ATOM     12  C   UNL     1      -0.523  11.289  18.669  0.00  0.00    +0.000 A 
ATOM     13  C   UNL     1       0.228  10.160  18.434  0.00  0.00    +0.000 A 
ENDBRANCH   5   8
ENDBRANCH   1   2
BRANCH   1  14
ATOM     14  C   UNL     1       2.295   4.106  19.490  0.00  0.00    +0.000 A 
ATOM     15  C   UNL     1       1.057   3.809  20.031  0.00  0.00    +0.000 A 
ATOM     16  C   UNL     1       1.284   2.867  21.069  0.00  0.00    +0.000 A 
ATOM     17  C   UNL     1       2.644   2.691  21.140  0.00  0.00    +0.000 A 
ATOM     18  O   UNL     1       3.257   3.426  20.187  0.00  0.00    +0.000 OA
ENDBRANCH   1  14
BRANCH   1  19
ATOM     19  C   UNL     1       3.357   3.933  17.208  0.00  0.00    +0.000 C 
BRANCH  19  20
ATOM     20  N   UNL     1       4.800   3.681  17.257  0.00  0.00    +0.000 NA
ATOM     21  H   UNL     1       5.293   3.620  18.134  0.00  0.00    +0.000 HD
BRANCH  20  23
ATOM     22  O   UNL     1       6.587   3.440  15.486  0.00  0.00    +0.000 OA
ATOM     23  S   UNL     1       5.697   4.416  16.062  0.00  0.00    +0.000 S 
ATOM     24  O   UNL     1       4.779   5.194  15.256  0.00  0.00    +0.000 OA
BRANCH  23  25
ATOM     25  C   UNL     1       6.637   5.544  17.041  0.00  0.00    +0.000 A 
ATOM     26  C   UNL     1       6.822   6.849  16.581  0.00  0.00    +0.000 A 
ATOM     27  C   UNL     1       7.587   7.727  17.340  0.00  0.00    +0.000 A 
ATOM     28  C   UNL     1       8.156   7.286  18.532  0.00  0.00    +0.000 A 
ATOM     29  F   UNL     1       8.889   8.139  19.260  0.00  0.00    +0.000 F 
ATOM     30  C   UNL     1       7.983   5.979  18.982  0.00  0.00    +0.000 A 
ATOM     31  C   UNL     1       7.219   5.092  18.233  0.00  0.00    +0.000 A 
ENDBRANCH  23  25
ENDBRANCH  20  23
ENDBRANCH  19  20
ENDBRANCH   1  19
TORSDOF 7
ENDMDL
MODEL 2
REMARK VINA RESULT:      -7.7      3.447      7.277
REMARK  Name = 
REMARK  7 active torsions:
REMARK  status: ('A' for Active; 'I' for Inactive)
REMARK    1  A    between atoms: S_2  and  N_4
REMARK    2  A    between atoms: S_2  and  C_24
REMARK    3  A    between atoms: N_4  and  C_5
REMARK    4  A    between atoms: C_5  and  C_6
REMARK    5  A    between atoms: C_6  and  C_7
REMARK    6  A    between atoms: C_6  and  N_12
REMARK    7  A    between atoms: N_15  and  C_16
REMARK                            x       y       z     vdW  Elec       q    Type
REMARK                         _______ _______ _______ _____ _____    ______ ____
ROOT
ATOM      1  C   UNL     1       3.865   5.982  19.091  0.00  0.00    +0.000 C 
ENDROOT
BRANCH   1   2
ATOM      2  N   UNL     1       5.194   5.363  18.881  0.00  0.00    +0.000 NA
ATOM      3  C   UNL     1       5.209   3.993  18.354  0.00  0.00    +0.000 C 
ATOM      4  C   UNL     1       5.144   3.778  16.825  0.00  0.00    +0.000 C 
ATOM      5  N   UNL     1       5.811   4.835  16.060  0.00  0.00    +0.000 N 
ATOM      6  C   UNL     1       5.892   6.201  16.554  0.00  0.00    +0.000 C 
ATOM      7  C   UNL     1       6.136   6.177  18.073  0.00  0.00    +0.000 C 
BRANCH   5   8
ATOM      8  C   UNL     1       6.181   4.566  14.747  0.00  0.00    +0.000 A 
ATOM      9  C   UNL     1       5.466   3.702  13.918  0.00  0.00    +0.000 A 
ATOM     10  C   UNL     1       5.843   3.500  12.581  0.00  0.00    +0.000 A 
ATOM     11  C   UNL     1       6.952   4.170  12.076  0.00  0.00    +0.000 A 
ATOM     12  C   UNL     1       7.665   5.023  12.896  0.00  0.00    +0.000 A 
ATOM     13  C   UNL     1       7.290   5.220  14.205  0.00  0.00    +0.000 A 
ENDBRANCH   5   8
ENDBRANCH   1   2
BRANCH   1  14
ATOM     14  C   UNL     1       2.812   5.016  19.589  0.00  0.00    +0.000 A 
ATOM     15  C   UNL     1       2.350   4.646  20.839  0.00  0.00    +0.000 A 
ATOM     16  C   UNL     1       1.205   3.834  20.622  0.00  0.00    +0.000 A 
ATOM     17  C   UNL     1       1.072   3.708  19.262  0.00  0.00    +0.000 A 
ATOM     18  O   UNL     1       2.029   4.425  18.634  0.00  0.00    +0.000 OA
ENDBRANCH   1  14
BRANCH   1  19
ATOM     19  C   UNL     1       3.280   6.928  18.009  0.00  0.00    +0.000 C 
BRANCH  19  20
ATOM     20  N   UNL     1       1.875   7.324  18.153  0.00  0.00    +0.000 NA
ATOM     21  H   UNL     1       1.133   6.786  17.735  0.00  0.00    +0.000 HD
BRANCH  20  23
ATOM     22  O   UNL     1       2.842   9.650  17.949  0.00  0.00    +0.000 OA
ATOM     23  S   UNL     1       1.586   8.963  18.117  0.00  0.00    +0.000 S 
ATOM     24  O   UNL     1       0.462   9.180  17.230  0.00  0.00    +0.000 OA
BRANCH  23  25
ATOM     25  C   UNL     1       1.018   9.204  19.771  0.00  0.00    +0.000 A 
ATOM     26  C   UNL     1       0.160  10.272  20.043  0.00  0.00    +0.000 A 
ATOM     27  C   UNL     1      -0.263  10.477  21.350  0.00  0.00    +0.000 A 
ATOM     28  C   UNL     1       0.181   9.624  22.357  0.00  0.00    +0.000 A 
ATOM     29  F   UNL     1      -0.233   9.826  23.615  0.00  0.00    +0.000 F 
ATOM     30  C   UNL     1       1.050   8.569  22.087  0.00  0.00    +0.000 A 
ATOM     31  C   UNL     1       1.480   8.352  20.782  0.00  0.00    +0.000 A 
ENDBRANCH  23  25
ENDBRANCH  20  23
ENDBRANCH  19  20
ENDBRANCH   1  19
TORSDOF 7
ENDMDL
MODEL 3
REMARK VINA RESULT:      -7.5      3.518      7.343
REMARK  Name = 
REMARK  7 active torsions:
REMARK  status: ('A' for Active; 'I' for Inactive)
REMARK    1  A    between atoms: S_2  and  N_4
REMARK    2  A    between atoms: S_2  and  C_24
REMARK    3  A    between atoms: N_4  and  C_5
REMARK    4  A    between atoms: C_5  and  C_6
REMARK    5  A    between atoms: C_6  and  C_7
REMARK    6  A    between atoms: C_6  and  N_12
REMARK    7  A    between atoms: N_15  and  C_16
REMARK                            x       y       z     vdW  Elec       q    Type
REMARK                         _______ _______ _______ _____ _____    ______ ____
ROOT
ATOM      1  C   UNL     1       3.229   5.749  18.886  0.00  0.00    +0.000 C 
ENDROOT
BRANCH   1   2
ATOM      2  N   UNL     1       4.637   5.306  18.767  0.00  0.00    +0.000 NA
ATOM      3  C   UNL     1       4.861   3.950  18.252  0.00  0.00    +0.000 C 
ATOM      4  C   UNL     1       4.923   3.731  16.723  0.00  0.00    +0.000 C 
ATOM      5  N   UNL     1       5.498   4.865  15.995  0.00  0.00    +0.000 N 
ATOM      6  C   UNL     1       5.370   6.229  16.484  0.00  0.00    +0.000 C 
ATOM      7  C   UNL     1       5.517   6.235  18.015  0.00  0.00    +0.000 C 
BRANCH   5   8
ATOM      8  C   UNL     1       5.982   4.647  14.710  0.00  0.00    +0.000 A 
ATOM      9  C   UNL     1       7.162   5.219  14.236  0.00  0.00    +0.000 A 
ATOM     10  C   UNL     1       7.645   4.930  12.950  0.00  0.00    +0.000 A 
ATOM     11  C   UNL     1       6.929   4.060  12.133  0.00  0.00    +0.000 A 
ATOM     12  C   UNL     1       5.758   3.495  12.598  0.00  0.00    +0.000 A 
ATOM     13  C   UNL     1       5.291   3.780  13.861  0.00  0.00    +0.000 A 
ENDBRANCH   5   8
ENDBRANCH   1   2
BRANCH   1  14
ATOM     14  C   UNL     1       2.230   4.613  18.916  0.00  0.00    +0.000 A 
ATOM     15  C   UNL     1       1.460   3.973  17.962  0.00  0.00    +0.000 A 
ATOM     16  C   UNL     1       0.875   2.848  18.601  0.00  0.00    +0.000 A 
ATOM     17  C   UNL     1       1.272   2.900  19.914  0.00  0.00    +0.000 A 
ATOM     18  O   UNL     1       2.096   3.953  20.109  0.00  0.00    +0.000 OA
ENDBRANCH   1  14
BRANCH   1  19
ATOM     19  C   UNL     1       2.713   6.914  18.001  0.00  0.00    +0.000 C 
BRANCH  19  20
ATOM     20  N   UNL     1       2.860   8.274  18.529  0.00  0.00    +0.000 NA
ATOM     21  H   UNL     1       3.249   8.443  19.442  0.00  0.00    +0.000 HD
BRANCH  20  23
ATOM     22  O   UNL     1       2.207  10.583  17.734  0.00  0.00    +0.000 OA
ATOM     23  S   UNL     1       1.629   9.328  18.146  0.00  0.00    +0.000 S 
ATOM     24  O   UNL     1       0.688   8.603  17.318  0.00  0.00    +0.000 OA
BRANCH  23  25
ATOM     25  C   UNL     1       0.898   9.528  19.740  0.00  0.00    +0.000 A 
ATOM     26  C   UNL     1      -0.042  10.543  19.930  0.00  0.00    +0.000 A 
ATOM     27  C   UNL     1      -0.595  10.718  21.193  0.00  0.00    +0.000 A 
ATOM     28  C   UNL     1      -0.196   9.888  22.238  0.00  0.00    +0.000 A 
ATOM     29  F   UNL     1      -0.735  10.059  23.451  0.00  0.00    +0.000 F 
ATOM     30  C   UNL     1       0.754   8.885  22.049  0.00  0.00    +0.000 A 
ATOM     31  C   UNL     1       1.313   8.700  20.790  0.00  0.00    +0.000 A 
ENDBRANCH  23  25
ENDBRANCH  20  23
ENDBRANCH  19  20
ENDBRANCH   1  19
TORSDOF 7
ENDMDL
MODEL 4
REMARK VINA RESULT:      -7.5      0.877      1.000
REMARK  Name = 
REMARK  7 active torsions:
REMARK  status: ('A' for Active; 'I' for Inactive)
REMARK    1  A    between atoms: S_2  and  N_4
REMARK    2  A    between atoms: S_2  and  C_24
REMARK    3  A    between atoms: N_4  and  C_5
REMARK    4  A    between atoms: C_5  and  C_6
REMARK    5  A    between atoms: C_6  and  C_7
REMARK    6  A    between atoms: C_6  and  N_12
REMARK    7  A    between atoms: N_15  and  C_16
REMARK                            x       y       z     vdW  Elec       q    Type
REMARK                         _______ _______ _______ _____ _____    ______ ____
ROOT
ATOM      1  C   UNL     1       2.203   5.334  18.704  0.00  0.00    +0.000 C 
ENDROOT
BRANCH   1   2
ATOM      2  N   UNL     1       2.912   6.573  19.099  0.00  0.00    +0.000 NA
ATOM      3  C   UNL     1       2.926   7.666  18.121  0.00  0.00    +0.000 C 
ATOM      4  C   UNL     1       1.737   8.654  18.084  0.00  0.00    +0.000 C 
ATOM      5  N   UNL     1       1.139   8.893  19.400  0.00  0.00    +0.000 N 
ATOM      6  C   UNL     1       1.150   7.876  20.440  0.00  0.00    +0.000 C 
ATOM      7  C   UNL     1       2.496   7.133  20.409  0.00  0.00    +0.000 C 
BRANCH   5   8
ATOM      8  C   UNL     1       0.364  10.034  19.574  0.00  0.00    +0.000 A 
ATOM      9  C   UNL     1       0.317  10.745  20.773  0.00  0.00    +0.000 A 
ATOM     10  C   UNL     1      -0.438  11.923  20.890  0.00  0.00    +0.000 A 
ATOM     11  C   UNL     1      -1.155  12.386  19.791  0.00  0.00    +0.000 A 
ATOM     12  C   UNL     1      -1.113  11.682  18.604  0.00  0.00    +0.000 A 
ATOM     13  C   UNL     1      -0.370  10.529  18.493  0.00  0.00    +0.000 A 
ENDBRANCH   5   8
ENDBRANCH   1   2
BRANCH   1  14
ATOM     14  C   UNL     1       1.935   4.389  19.854  0.00  0.00    +0.000 A 
ATOM     15  C   UNL     1       0.800   3.792  20.374  0.00  0.00    +0.000 A 
ATOM     16  C   UNL     1       1.244   2.851  21.341  0.00  0.00    +0.000 A 
ATOM     17  C   UNL     1       2.611   2.971  21.397  0.00  0.00    +0.000 A 
ATOM     18  O   UNL     1       3.033   3.886  20.498  0.00  0.00    +0.000 OA
ENDBRANCH   1  14
BRANCH   1  19
ATOM     19  C   UNL     1       2.666   4.554  17.445  0.00  0.00    +0.000 C 
BRANCH  19  20
ATOM     20  N   UNL     1       3.892   5.013  16.784  0.00  0.00    +0.000 NA
ATOM     21  H   UNL     1       3.876   5.379  15.845  0.00  0.00    +0.000 HD
BRANCH  20  23
ATOM     22  O   UNL     1       4.984   3.239  18.215  0.00  0.00    +0.000 OA
ATOM     23  S   UNL     1       5.258   4.118  17.106  0.00  0.00    +0.000 S 
ATOM     24  O   UNL     1       5.758   3.629  15.838  0.00  0.00    +0.000 OA
BRANCH  23  25
ATOM     25  C   UNL     1       6.339   5.404  17.647  0.00  0.00    +0.000 A 
ATOM     26  C   UNL     1       6.348   6.617  16.954  0.00  0.00    +0.000 A 
ATOM     27  C   UNL     1       7.221   7.618  17.364  0.00  0.00    +0.000 A 
ATOM     28  C   UNL     1       8.068   7.389  18.445  0.00  0.00    +0.000 A 
ATOM     29  F   UNL     1       8.903   8.360  18.837  0.00  0.00    +0.000 F 
ATOM     30  C   UNL     1       8.068   6.174  19.126  0.00  0.00    +0.000 A 
ATOM     31  C   UNL     1       7.199   5.165  18.726  0.00  0.00    +0.000 A 
ENDBRANCH  23  25
ENDBRANCH  20  23
ENDBRANCH  19  20
ENDBRANCH   1  19
TORSDOF 7
ENDMDL
MODEL 5
REMARK VINA RESULT:      -7.5      0.786      1.302
REMARK  Name = 
REMARK  7 active torsions:
REMARK  status: ('A' for Active; 'I' for Inactive)
REMARK    1  A    between atoms: S_2  and  N_4
REMARK    2  A    between atoms: S_2  and  C_24
REMARK    3  A    between atoms: N_4  and  C_5
REMARK    4  A    between atoms: C_5  and  C_6
REMARK    5  A    between atoms: C_6  and  C_7
REMARK    6  A    between atoms: C_6  and  N_12
REMARK    7  A    between atoms: N_15  and  C_16
REMARK                            x       y       z     vdW  Elec       q    Type
REMARK                         _______ _______ _______ _____ _____    ______ ____
ROOT
ATOM      1  C   UNL     1       3.015   4.536  17.938  0.00  0.00    +0.000 C 
ENDROOT
BRANCH   1   2
ATOM      2  N   UNL     1       3.735   5.711  18.479  0.00  0.00    +0.000 NA
ATOM      3  C   UNL     1       3.627   6.961  17.716  0.00  0.00    +0.000 C 
ATOM      4  C   UNL     1       2.422   7.893  17.974  0.00  0.00    +0.000 C 
ATOM      5  N   UNL     1       1.956   7.873  19.363  0.00  0.00    +0.000 N 
ATOM      6  C   UNL     1       2.093   6.689  20.197  0.00  0.00    +0.000 C 
ATOM      7  C   UNL     1       3.445   6.015  19.902  0.00  0.00    +0.000 C 
BRANCH   5   8
ATOM      8  C   UNL     1       1.180   8.935  19.814  0.00  0.00    +0.000 A 
ATOM      9  C   UNL     1       0.523   8.928  21.043  0.00  0.00    +0.000 A 
ATOM     10  C   UNL     1      -0.206  10.043  21.484  0.00  0.00    +0.000 A 
ATOM     11  C   UNL     1      -0.279  11.173  20.676  0.00  0.00    +0.000 A 
ATOM     12  C   UNL     1       0.367  11.182  19.456  0.00  0.00    +0.000 A 
ATOM     13  C   UNL     1       1.084  10.087  19.029  0.00  0.00    +0.000 A 
ENDBRANCH   5   8
ENDBRANCH   1   2
BRANCH   1  14
ATOM     14  C   UNL     1       2.351   3.684  18.997  0.00  0.00    +0.000 A 
ATOM     15  C   UNL     1       2.811   2.858  20.007  0.00  0.00    +0.000 A 
ATOM     16  C   UNL     1       1.679   2.500  20.786  0.00  0.00    +0.000 A 
ATOM     17  C   UNL     1       0.593   3.077  20.175  0.00  0.00    +0.000 A 
ATOM     18  O   UNL     1       0.991   3.799  19.105  0.00  0.00    +0.000 OA
ENDBRANCH   1  14
BRANCH   1  19
ATOM     19  C   UNL     1       3.695   3.649  16.862  0.00  0.00    +0.000 C 
BRANCH  19  20
ATOM     20  N   UNL     1       5.158   3.565  16.887  0.00  0.00    +0.000 NA
ATOM     21  H   UNL     1       5.665   3.491  17.754  0.00  0.00    +0.000 HD
BRANCH  20  23
ATOM     22  O   UNL     1       6.885   3.661  15.044  0.00  0.00    +0.000 OA
ATOM     23  S   UNL     1       5.948   4.495  15.754  0.00  0.00    +0.000 S 
ATOM     24  O   UNL     1       4.943   5.283  15.072  0.00  0.00    +0.000 OA
BRANCH  23  25
ATOM     25  C   UNL     1       6.842   5.578  16.824  0.00  0.00    +0.000 A 
ATOM     26  C   UNL     1       7.323   5.083  18.038  0.00  0.00    +0.000 A 
ATOM     27  C   UNL     1       8.001   5.945  18.892  0.00  0.00    +0.000 A 
ATOM     28  C   UNL     1       8.178   7.276  18.526  0.00  0.00    +0.000 A 
ATOM     29  F   UNL     1       8.835   8.100  19.353  0.00  0.00    +0.000 F 
ATOM     30  C   UNL     1       7.683   7.772  17.322  0.00  0.00    +0.000 A 
ATOM     31  C   UNL     1       7.004   6.920  16.458  0.00  0.00    +0.000 A 
ENDBRANCH  23  25
ENDBRANCH  20  23
ENDBRANCH  19  20
ENDBRANCH   1  19
TORSDOF 7
ENDMDL
MODEL 6
REMARK VINA RESULT:      -7.4      3.646      7.660
REMARK  Name = 
REMARK  7 active torsions:
REMARK  status: ('A' for Active; 'I' for Inactive)
REMARK    1  A    between atoms: S_2  and  N_4
REMARK    2  A    between atoms: S_2  and  C_24
REMARK    3  A    between atoms: N_4  and  C_5
REMARK    4  A    between atoms: C_5  and  C_6
REMARK    5  A    between atoms: C_6  and  C_7
REMARK    6  A    between atoms: C_6  and  N_12
REMARK    7  A    between atoms: N_15  and  C_16
REMARK                            x       y       z     vdW  Elec       q    Type
REMARK                         _______ _______ _______ _____ _____    ______ ____
ROOT
ATOM      1  C   UNL     1       3.639   5.706  18.741  0.00  0.00    +0.000 C 
ENDROOT
BRANCH   1   2
ATOM      2  N   UNL     1       5.090   5.785  18.458  0.00  0.00    +0.000 NA
ATOM      3  C   UNL     1       5.776   4.520  18.169  0.00  0.00    +0.000 C 
ATOM      4  C   UNL     1       5.776   3.981  16.720  0.00  0.00    +0.000 C 
ATOM      5  N   UNL     1       5.791   5.039  15.706  0.00  0.00    +0.000 N 
ATOM      6  C   UNL     1       5.188   6.340  15.951  0.00  0.00    +0.000 C 
ATOM      7  C   UNL     1       5.464   6.761  17.404  0.00  0.00    +0.000 C 
BRANCH   5   8
ATOM      8  C   UNL     1       6.200   4.712  14.418  0.00  0.00    +0.000 A 
ATOM      9  C   UNL     1       7.332   5.260  13.818  0.00  0.00    +0.000 A 
ATOM     10  C   UNL     1       7.740   4.862  12.535  0.00  0.00    +0.000 A 
ATOM     11  C   UNL     1       6.998   3.906  11.850  0.00  0.00    +0.000 A 
ATOM     12  C   UNL     1       5.873   3.363  12.440  0.00  0.00    +0.000 A 
ATOM     13  C   UNL     1       5.479   3.755  13.698  0.00  0.00    +0.000 A 
ENDBRANCH   5   8
ENDBRANCH   1   2
BRANCH   1  14
ATOM     14  C   UNL     1       3.041   4.337  18.498  0.00  0.00    +0.000 A 
ATOM     15  C   UNL     1       2.403   3.734  17.429  0.00  0.00    +0.000 A 
ATOM     16  C   UNL     1       2.259   2.362  17.766  0.00  0.00    +0.000 A 
ATOM     17  C   UNL     1       2.761   2.221  19.036  0.00  0.00    +0.000 A 
ATOM     18  O   UNL     1       3.242   3.403  19.478  0.00  0.00    +0.000 OA
ENDBRANCH   1  14
BRANCH   1  19
ATOM     19  C   UNL     1       2.694   6.821  18.223  0.00  0.00    +0.000 C 
BRANCH  19  20
ATOM     20  N   UNL     1       2.479   7.979  19.097  0.00  0.00    +0.000 NA
ATOM     21  H   UNL     1       2.358   7.871  20.091  0.00  0.00    +0.000 HD
BRANCH  20  23
ATOM     22  O   UNL     1       2.394  10.246  17.984  0.00  0.00    +0.000 OA
ATOM     23  S   UNL     1       1.534   9.192  18.459  0.00  0.00    +0.000 S 
ATOM     24  O   UNL     1       0.544   8.562  17.611  0.00  0.00    +0.000 OA
BRANCH  23  25
ATOM     25  C   UNL     1       0.715   9.737  19.925  0.00  0.00    +0.000 A 
ATOM     26  C   UNL     1       0.883   9.008  21.104  0.00  0.00    +0.000 A 
ATOM     27  C   UNL     1       0.214   9.422  22.250  0.00  0.00    +0.000 A 
ATOM     28  C   UNL     1      -0.611  10.542  22.196  0.00  0.00    +0.000 A 
ATOM     29  F   UNL     1      -1.250  10.937  23.305  0.00  0.00    +0.000 F 
ATOM     30  C   UNL     1      -0.790  11.259  21.015  0.00  0.00    +0.000 A 
ATOM     31  C   UNL     1      -0.125  10.856  19.862  0.00  0.00    +0.000 A 
ENDBRANCH  23  25
ENDBRANCH  20  23
ENDBRANCH  19  20
ENDBRANCH   1  19
TORSDOF 7
ENDMDL
MODEL 7
REMARK VINA RESULT:      -7.4      3.625      7.560
REMARK  Name = 
REMARK  7 active torsions:
REMARK  status: ('A' for Active; 'I' for Inactive)
REMARK    1  A    between atoms: S_2  and  N_4
REMARK    2  A    between atoms: S_2  and  C_24
REMARK    3  A    between atoms: N_4  and  C_5
REMARK    4  A    between atoms: C_5  and  C_6
REMARK    5  A    between atoms: C_6  and  C_7
REMARK    6  A    between atoms: C_6  and  N_12
REMARK    7  A    between atoms: N_15  and  C_16
REMARK                            x       y       z     vdW  Elec       q    Type
REMARK                         _______ _______ _______ _____ _____    ______ ____
ROOT
ATOM      1  C   UNL     1       3.606   5.726  18.732  0.00  0.00    +0.000 C 
ENDROOT
BRANCH   1   2
ATOM      2  N   UNL     1       5.045   5.893  18.421  0.00  0.00    +0.000 NA
ATOM      3  C   UNL     1       5.822   4.666  18.211  0.00  0.00    +0.000 C 
ATOM      4  C   UNL     1       5.847   4.028  16.803  0.00  0.00    +0.000 C 
ATOM      5  N   UNL     1       5.772   5.009  15.718  0.00  0.00    +0.000 N 
ATOM      6  C   UNL     1       5.074   6.275  15.880  0.00  0.00    +0.000 C 
ATOM      7  C   UNL     1       5.332   6.818  17.297  0.00  0.00    +0.000 C 
BRANCH   5   8
ATOM      8  C   UNL     1       6.191   4.623  14.450  0.00  0.00    +0.000 A 
ATOM      9  C   UNL     1       5.492   3.708  13.664  0.00  0.00    +0.000 A 
ATOM     10  C   UNL     1       5.922   3.387  12.367  0.00  0.00    +0.000 A 
ATOM     11  C   UNL     1       7.068   3.989  11.859  0.00  0.00    +0.000 A 
ATOM     12  C   UNL     1       7.765   4.893  12.636  0.00  0.00    +0.000 A 
ATOM     13  C   UNL     1       7.338   5.207  13.906  0.00  0.00    +0.000 A 
ENDBRANCH   5   8
ENDBRANCH   1   2
BRANCH   1  14
ATOM     14  C   UNL     1       3.080   4.334  18.462  0.00  0.00    +0.000 A 
ATOM     15  C   UNL     1       2.470   3.720  17.382  0.00  0.00    +0.000 A 
ATOM     16  C   UNL     1       2.399   2.336  17.690  0.00  0.00    +0.000 A 
ATOM     17  C   UNL     1       2.912   2.195  18.955  0.00  0.00    +0.000 A 
ATOM     18  O   UNL     1       3.332   3.390  19.421  0.00  0.00    +0.000 OA
ENDBRANCH   1  14
BRANCH   1  19
ATOM     19  C   UNL     1       2.590   6.801  18.266  0.00  0.00    +0.000 C 
BRANCH  19  20
ATOM     20  N   UNL     1       2.729   8.147  18.832  0.00  0.00    +0.000 NA
ATOM     21  H   UNL     1       3.024   8.287  19.785  0.00  0.00    +0.000 HD
BRANCH  20  23
ATOM     22  O   UNL     1       2.262  10.453  17.911  0.00  0.00    +0.000 OA
ATOM     23  S   UNL     1       1.587   9.253  18.338  0.00  0.00    +0.000 S 
ATOM     24  O   UNL     1       0.650   8.550  17.487  0.00  0.00    +0.000 OA
BRANCH  23  25
ATOM     25  C   UNL     1       0.784   9.564  19.878  0.00  0.00    +0.000 A 
ATOM     26  C   UNL     1       0.053  10.743  20.034  0.00  0.00    +0.000 A 
ATOM     27  C   UNL     1      -0.555  10.999  21.258  0.00  0.00    +0.000 A 
ATOM     28  C   UNL     1      -0.415  10.084  22.298  0.00  0.00    +0.000 A 
ATOM     29  F   UNL     1      -1.007  10.336  23.473  0.00  0.00    +0.000 F 
ATOM     30  C   UNL     1       0.327   8.916  22.145  0.00  0.00    +0.000 A 
ATOM     31  C   UNL     1       0.939   8.647  20.926  0.00  0.00    +0.000 A 
ENDBRANCH  23  25
ENDBRANCH  20  23
ENDBRANCH  19  20
ENDBRANCH   1  19
TORSDOF 7
ENDMDL
MODEL 8
REMARK VINA RESULT:      -7.3      1.162      1.827
REMARK  Name = 
REMARK  7 active torsions:
REMARK  status: ('A' for Active; 'I' for Inactive)
REMARK    1  A    between atoms: S_2  and  N_4
REMARK    2  A    between atoms: S_2  and  C_24
REMARK    3  A    between atoms: N_4  and  C_5
REMARK    4  A    between atoms: C_5  and  C_6
REMARK    5  A    between atoms: C_6  and  C_7
REMARK    6  A    between atoms: C_6  and  N_12
REMARK    7  A    between atoms: N_15  and  C_16
REMARK                            x       y       z     vdW  Elec       q    Type
REMARK                         _______ _______ _______ _____ _____    ______ ____
ROOT
ATOM      1  C   UNL     1       3.308   4.486  17.569  0.00  0.00    +0.000 C 
ENDROOT
BRANCH   1   2
ATOM      2  N   UNL     1       3.971   5.510  18.409  0.00  0.00    +0.000 NA
ATOM      3  C   UNL     1       3.978   6.884  17.893  0.00  0.00    +0.000 C 
ATOM      4  C   UNL     1       2.763   7.797  18.177  0.00  0.00    +0.000 C 
ATOM      5  N   UNL     1       2.125   7.532  19.469  0.00  0.00    +0.000 N 
ATOM      6  C   UNL     1       2.139   6.208  20.070  0.00  0.00    +0.000 C 
ATOM      7  C   UNL     1       3.507   5.550  19.818  0.00  0.00    +0.000 C 
BRANCH   5   8
ATOM      8  C   UNL     1       1.314   8.518  20.018  0.00  0.00    +0.000 A 
ATOM      9  C   UNL     1       0.815   9.591  19.279  0.00  0.00    +0.000 A 
ATOM     10  C   UNL     1      -0.045  10.536  19.860  0.00  0.00    +0.000 A 
ATOM     11  C   UNL     1      -0.403  10.402  21.197  0.00  0.00    +0.000 A 
ATOM     12  C   UNL     1       0.092   9.343  21.933  0.00  0.00    +0.000 A 
ATOM     13  C   UNL     1       0.934   8.418  21.359  0.00  0.00    +0.000 A 
ENDBRANCH   5   8
ENDBRANCH   1   2
BRANCH   1  14
ATOM     14  C   UNL     1       2.491   3.484  18.354  0.00  0.00    +0.000 A 
ATOM     15  C   UNL     1       2.771   2.588  19.370  0.00  0.00    +0.000 A 
ATOM     16  C   UNL     1       1.523   2.076  19.813  0.00  0.00    +0.000 A 
ATOM     17  C   UNL     1       0.565   2.640  19.008  0.00  0.00    +0.000 A 
ATOM     18  O   UNL     1       1.140   3.496  18.135  0.00  0.00    +0.000 OA
ENDBRANCH   1  14
BRANCH   1  19
ATOM     19  C   UNL     1       4.110   3.783  16.442  0.00  0.00    +0.000 C 
BRANCH  19  20
ATOM     20  N   UNL     1       5.573   3.829  16.530  0.00  0.00    +0.000 NA
ATOM     21  H   UNL     1       6.049   3.716  17.410  0.00  0.00    +0.000 HD
BRANCH  20  23
ATOM     22  O   UNL     1       7.323   4.251  14.756  0.00  0.00    +0.000 OA
ATOM     23  S   UNL     1       6.315   4.933  15.529  0.00  0.00    +0.000 S 
ATOM     24  O   UNL     1       5.270   5.721  14.911  0.00  0.00    +0.000 OA
BRANCH  23  25
ATOM     25  C   UNL     1       7.108   5.947  16.737  0.00  0.00    +0.000 A 
ATOM     26  C   UNL     1       7.517   5.371  17.941  0.00  0.00    +0.000 A 
ATOM     27  C   UNL     1       8.114   6.177  18.902  0.00  0.00    +0.000 A 
ATOM     28  C   UNL     1       8.284   7.536  18.649  0.00  0.00    +0.000 A 
ATOM     29  F   UNL     1       8.864   8.306  19.579  0.00  0.00    +0.000 F 
ATOM     30  C   UNL     1       7.862   8.112  17.453  0.00  0.00    +0.000 A 
ATOM     31  C   UNL     1       7.263   7.316  16.483  0.00  0.00    +0.000 A 
ENDBRANCH  23  25
ENDBRANCH  20  23
ENDBRANCH  19  20
ENDBRANCH   1  19
TORSDOF 7
ENDMDL
MODEL 9
REMARK VINA RESULT:      -7.3      3.710      7.738
REMARK  Name = 
REMARK  7 active torsions:
REMARK  status: ('A' for Active; 'I' for Inactive)
REMARK    1  A    between atoms: S_2  and  N_4
REMARK    2  A    between atoms: S_2  and  C_24
REMARK    3  A    between atoms: N_4  and  C_5
REMARK    4  A    between atoms: C_5  and  C_6
REMARK    5  A    between atoms: C_6  and  C_7
REMARK    6  A    between atoms: C_6  and  N_12
REMARK    7  A    between atoms: N_15  and  C_16
REMARK                            x       y       z     vdW  Elec       q    Type
REMARK                         _______ _______ _______ _____ _____    ______ ____
ROOT
ATOM      1  C   UNL     1       3.996   5.883  18.695  0.00  0.00    +0.000 C 
ENDROOT
BRANCH   1   2
ATOM      2  N   UNL     1       5.412   6.023  18.285  0.00  0.00    +0.000 NA
ATOM      3  C   UNL     1       6.162   4.780  18.067  0.00  0.00    +0.000 C 
ATOM      4  C   UNL     1       6.088   4.094  16.684  0.00  0.00    +0.000 C 
ATOM      5  N   UNL     1       5.950   5.037  15.572  0.00  0.00    +0.000 N 
ATOM      6  C   UNL     1       5.277   6.316  15.736  0.00  0.00    +0.000 C 
ATOM      7  C   UNL     1       5.633   6.905  17.112  0.00  0.00    +0.000 C 
BRANCH   5   8
ATOM      8  C   UNL     1       6.281   4.603  14.294  0.00  0.00    +0.000 A 
ATOM      9  C   UNL     1       5.517   3.677  13.584  0.00  0.00    +0.000 A 
ATOM     10  C   UNL     1       5.858   3.306  12.274  0.00  0.00    +0.000 A 
ATOM     11  C   UNL     1       6.980   3.869  11.675  0.00  0.00    +0.000 A 
ATOM     12  C   UNL     1       7.741   4.784  12.377  0.00  0.00    +0.000 A 
ATOM     13  C   UNL     1       7.401   5.147  13.660  0.00  0.00    +0.000 A 
ENDBRANCH   5   8
ENDBRANCH   1   2
BRANCH   1  14
ATOM     14  C   UNL     1       3.473   4.466  18.618  0.00  0.00    +0.000 A 
ATOM     15  C   UNL     1       3.430   3.399  19.498  0.00  0.00    +0.000 A 
ATOM     16  C   UNL     1       2.626   2.401  18.885  0.00  0.00    +0.000 A 
ATOM     17  C   UNL     1       2.278   2.890  17.651  0.00  0.00    +0.000 A 
ATOM     18  O   UNL     1       2.775   4.135  17.488  0.00  0.00    +0.000 OA
ENDBRANCH   1  14
BRANCH   1  19
ATOM     19  C   UNL     1       2.940   6.891  18.167  0.00  0.00    +0.000 C 
BRANCH  19  20
ATOM     20  N   UNL     1       2.213   7.684  19.162  0.00  0.00    +0.000 NA
ATOM     21  H   UNL     1       1.654   7.246  19.877  0.00  0.00    +0.000 HD
BRANCH  20  23
ATOM     22  O   UNL     1       2.611  10.006  18.246  0.00  0.00    +0.000 OA
ATOM     23  S   UNL     1       1.545   9.102  18.599  0.00  0.00    +0.000 S 
ATOM     24  O   UNL     1       0.499   8.740  17.666  0.00  0.00    +0.000 OA
BRANCH  23  25
ATOM     25  C   UNL     1       0.770   9.677  20.077  0.00  0.00    +0.000 A 
ATOM     26  C   UNL     1       0.726   8.834  21.189  0.00  0.00    +0.000 A 
ATOM     27  C   UNL     1       0.090   9.278  22.343  0.00  0.00    +0.000 A 
ATOM     28  C   UNL     1      -0.493  10.542  22.361  0.00  0.00    +0.000 A 
ATOM     29  F   UNL     1      -1.102  10.965  23.477  0.00  0.00    +0.000 F 
ATOM     30  C   UNL     1      -0.462  11.375  21.245  0.00  0.00    +0.000 A 
ATOM     31  C   UNL     1       0.172  10.944  20.086  0.00  0.00    +0.000 A 
ENDBRANCH  23  25
ENDBRANCH  20  23
ENDBRANCH  19  20
ENDBRANCH   1  19
TORSDOF 7
ENDMDL
