MODEL 1
REMARK VINA RESULT:      -9.3      0.000      0.000
REMARK  Name = 
REMARK  3 active torsions:
REMARK  status: ('A' for Active; 'I' for Inactive)
REMARK    1  A    between atoms: C_8  and  C_9
REMARK    2  A    between atoms: C_16  and  O_17
REMARK    3  A    between atoms: O_17  and  C_18
REMARK                            x       y       z     vdW  Elec       q    Type
REMARK                         _______ _______ _______ _____ _____    ______ ____
ROOT
ATOM      1  C   UNL     1       3.380   3.417  18.009  0.00  0.00    +0.000 A 
ATOM      2  C   UNL     1       3.114   2.035  17.967  0.00  0.00    +0.000 A 
ATOM      3  C   UNL     1       2.157   1.462  18.796  0.00  0.00    +0.000 A 
ATOM      4  C   UNL     1       1.458   2.265  19.688  0.00  0.00    +0.000 A 
ATOM      5  C   UNL     1       1.708   3.646  19.752  0.00  0.00    +0.000 A 
ATOM      6  C   UNL     1       1.002   4.460  20.651  0.00  0.00    +0.000 A 
ATOM      7  C   UNL     1       1.264   5.823  20.719  0.00  0.00    +0.000 A 
ATOM      8  C   UNL     1       2.239   6.329  19.885  0.00  0.00    +0.000 A 
ATOM      9  N   UNL     1       2.899   5.586  18.970  0.00  0.00    +0.000 NA
ATOM     10  C   UNL     1       2.672   4.248  18.908  0.00  0.00    +0.000 A 
ENDROOT
BRANCH   1  18
ATOM     11  O   UNL     1       7.768   6.683  16.522  0.00  0.00    +0.000 OA
ATOM     12  C   UNL     1       7.288   5.849  15.762  0.00  0.00    +0.000 C 
ATOM     13  N   UNL     1       7.864   5.576  14.532  0.00  0.00    +0.000 N 
ATOM     14  C   UNL     1       7.114   4.957  13.441  0.00  0.00    +0.000 C 
ATOM     15  C   UNL     1       6.188   3.796  13.863  0.00  0.00    +0.000 C 
ATOM     16  C   UNL     1       5.628   4.094  15.202  0.00  0.00    +0.000 A 
ATOM     17  N   UNL     1       4.606   3.441  15.819  0.00  0.00    +0.000 N 
ATOM     18  C   UNL     1       4.392   3.966  17.080  0.00  0.00    +0.000 A 
ATOM     19  C   UNL     1       5.317   4.992  17.234  0.00  0.00    +0.000 A 
ATOM     20  C   UNL     1       6.122   5.045  16.073  0.00  0.00    +0.000 A 
ATOM     21  H   UNL     1       8.636   6.188  14.317  0.00  0.00    +0.000 HD
ATOM     22  H   UNL     1       4.088   2.637  15.464  0.00  0.00    +0.000 HD
ENDBRANCH   1  18
BRANCH   8  23
ATOM     23  O   UNL     1       2.548   7.679  20.001  0.00  0.00    +0.000 OA
BRANCH  23  24
ATOM     24  C   UNL     1       1.590   8.580  19.588  0.00  0.00    +0.000 A 
ATOM     25  C   UNL     1       0.785   9.175  20.562  0.00  0.00    +0.000 A 
ATOM     26  F   UNL     1       0.953   8.873  21.858  0.00  0.00    +0.000 F 
ATOM     27  C   UNL     1      -0.203  10.098  20.220  0.00  0.00    +0.000 A 
ATOM     28  C   UNL     1      -0.401  10.441  18.878  0.00  0.00    +0.000 A 
ATOM     29  C   UNL     1       0.413   9.879  17.900  0.00  0.00    +0.000 A 
ATOM     30  C   UNL     1       1.418   8.981  18.262  0.00  0.00    +0.000 A 
ATOM     31  F   UNL     1       2.223   8.529  17.288  0.00  0.00    +0.000 F 
ENDBRANCH  23  24
ENDBRANCH   8  23
TORSDOF 3
ENDMDL
MODEL 2
REMARK VINA RESULT:      -9.3      0.083      1.536
REMARK  Name = 
REMARK  3 active torsions:
REMARK  status: ('A' for Active; 'I' for Inactive)
REMARK    1  A    between atoms: C_8  and  C_9
REMARK    2  A    between atoms: C_16  and  O_17
REMARK    3  A    between atoms: O_17  and  C_18
REMARK                            x       y       z     vdW  Elec       q    Type
REMARK                         _______ _______ _______ _____ _____    ______ ____
ROOT
ATOM      1  C   UNL     1       3.342   3.410  17.986  0.00  0.00    +0.000 A 
ATOM      2  C   UNL     1       3.064   2.031  17.942  0.00  0.00    +0.000 A 
ATOM      3  C   UNL     1       2.102   1.465  18.768  0.00  0.00    +0.000 A 
ATOM      4  C   UNL     1       1.409   2.272  19.662  0.00  0.00    +0.000 A 
ATOM      5  C   UNL     1       1.672   3.650  19.729  0.00  0.00    +0.000 A 
ATOM      6  C   UNL     1       0.972   4.468  20.629  0.00  0.00    +0.000 A 
ATOM      7  C   UNL     1       1.246   5.829  20.700  0.00  0.00    +0.000 A 
ATOM      8  C   UNL     1       2.226   6.328  19.868  0.00  0.00    +0.000 A 
ATOM      9  N   UNL     1       2.880   5.581  18.952  0.00  0.00    +0.000 NA
ATOM     10  C   UNL     1       2.641   4.245  18.887  0.00  0.00    +0.000 A 
ENDROOT
BRANCH   1  18
ATOM     11  O   UNL     1       7.744   6.659  16.503  0.00  0.00    +0.000 OA
ATOM     12  C   UNL     1       7.267   5.822  15.745  0.00  0.00    +0.000 C 
ATOM     13  N   UNL     1       7.847   5.541  14.519  0.00  0.00    +0.000 N 
ATOM     14  C   UNL     1       7.100   4.919  13.428  0.00  0.00    +0.000 C 
ATOM     15  C   UNL     1       6.170   3.761  13.851  0.00  0.00    +0.000 C 
ATOM     16  C   UNL     1       5.605   4.068  15.187  0.00  0.00    +0.000 A 
ATOM     17  N   UNL     1       4.578   3.420  15.802  0.00  0.00    +0.000 N 
ATOM     18  C   UNL     1       4.360   3.952  17.059  0.00  0.00    +0.000 A 
ATOM     19  C   UNL     1       5.287   4.977  17.212  0.00  0.00    +0.000 A 
ATOM     20  C   UNL     1       6.097   5.023  16.054  0.00  0.00    +0.000 A 
ATOM     21  H   UNL     1       8.621   6.151  14.304  0.00  0.00    +0.000 HD
ATOM     22  H   UNL     1       4.061   2.616  15.449  0.00  0.00    +0.000 HD
ENDBRANCH   1  18
BRANCH   8  23
ATOM     23  O   UNL     1       2.547   7.675  19.987  0.00  0.00    +0.000 OA
BRANCH  23  24
ATOM     24  C   UNL     1       1.555   8.585  19.687  0.00  0.00    +0.000 A 
ATOM     25  C   UNL     1       1.376   8.942  18.349  0.00  0.00    +0.000 A 
ATOM     26  F   UNL     1       2.148   8.403  17.394  0.00  0.00    +0.000 F 
ATOM     27  C   UNL     1       0.391   9.853  17.968  0.00  0.00    +0.000 A 
ATOM     28  C   UNL     1      -0.437  10.428  18.938  0.00  0.00    +0.000 A 
ATOM     29  C   UNL     1      -0.289  10.060  20.271  0.00  0.00    +0.000 A 
ATOM     30  C   UNL     1       0.679   9.123  20.631  0.00  0.00    +0.000 A 
ATOM     31  F   UNL     1       0.727   8.747  21.919  0.00  0.00    +0.000 F 
ENDBRANCH  23  24
ENDBRANCH   8  23
TORSDOF 3
ENDMDL
MODEL 3
REMARK VINA RESULT:      -9.0      2.487      6.761
REMARK  Name = 
REMARK  3 active torsions:
REMARK  status: ('A' for Active; 'I' for Inactive)
REMARK    1  A    between atoms: C_8  and  C_9
REMARK    2  A    between atoms: C_16  and  O_17
REMARK    3  A    between atoms: O_17  and  C_18
REMARK                            x       y       z     vdW  Elec       q    Type
REMARK                         _______ _______ _______ _____ _____    ______ ____
ROOT
ATOM      1  C   UNL     1       1.864   5.330  20.408  0.00  0.00    +0.000 A 
ATOM      2  C   UNL     1       0.869   4.522  20.989  0.00  0.00    +0.000 A 
ATOM      3  C   UNL     1       1.068   3.160  21.176  0.00  0.00    +0.000 A 
ATOM      4  C   UNL     1       2.266   2.583  20.773  0.00  0.00    +0.000 A 
ATOM      5  C   UNL     1       3.273   3.368  20.186  0.00  0.00    +0.000 A 
ATOM      6  C   UNL     1       4.485   2.788  19.780  0.00  0.00    +0.000 A 
ATOM      7  C   UNL     1       5.472   3.568  19.188  0.00  0.00    +0.000 A 
ATOM      8  C   UNL     1       5.207   4.910  19.012  0.00  0.00    +0.000 A 
ATOM      9  N   UNL     1       4.075   5.511  19.440  0.00  0.00    +0.000 NA
ATOM     10  C   UNL     1       3.091   4.759  19.998  0.00  0.00    +0.000 A 
ENDROOT
BRANCH   1  18
ATOM     11  O   UNL     1       0.496  10.520  22.233  0.00  0.00    +0.000 OA
ATOM     12  C   UNL     1       0.859  10.308  21.082  0.00  0.00    +0.000 C 
ATOM     13  N   UNL     1       1.066  11.345  20.186  0.00  0.00    +0.000 N 
ATOM     14  C   UNL     1       1.052  11.139  18.740  0.00  0.00    +0.000 C 
ATOM     15  C   UNL     1       1.780   9.866  18.255  0.00  0.00    +0.000 C 
ATOM     16  C   UNL     1       1.583   8.792  19.257  0.00  0.00    +0.000 A 
ATOM     17  N   UNL     1       1.867   7.471  19.099  0.00  0.00    +0.000 N 
ATOM     18  C   UNL     1       1.598   6.778  20.264  0.00  0.00    +0.000 A 
ATOM     19  C   UNL     1       1.117   7.717  21.169  0.00  0.00    +0.000 A 
ATOM     20  C   UNL     1       1.147   8.989  20.553  0.00  0.00    +0.000 A 
ATOM     21  H   UNL     1       0.802  12.243  20.561  0.00  0.00    +0.000 HD
ATOM     22  H   UNL     1       2.278   7.026  18.278  0.00  0.00    +0.000 HD
ENDBRANCH   1  18
BRANCH   8  23
ATOM     23  O   UNL     1       6.166   5.674  18.358  0.00  0.00    +0.000 OA
BRANCH  23  24
ATOM     24  C   UNL     1       6.236   5.554  16.986  0.00  0.00    +0.000 A 
ATOM     25  C   UNL     1       7.244   4.752  16.448  0.00  0.00    +0.000 A 
ATOM     26  F   UNL     1       8.110   4.119  17.254  0.00  0.00    +0.000 F 
ATOM     27  C   UNL     1       7.375   4.580  15.070  0.00  0.00    +0.000 A 
ATOM     28  C   UNL     1       6.486   5.220  14.202  0.00  0.00    +0.000 A 
ATOM     29  C   UNL     1       5.458   5.998  14.724  0.00  0.00    +0.000 A 
ATOM     30  C   UNL     1       5.321   6.134  16.106  0.00  0.00    +0.000 A 
ATOM     31  F   UNL     1       4.268   6.832  16.557  0.00  0.00    +0.000 F 
ENDBRANCH  23  24
ENDBRANCH   8  23
TORSDOF 3
ENDMDL
MODEL 4
REMARK VINA RESULT:      -8.9      2.486      6.774
REMARK  Name = 
REMARK  3 active torsions:
REMARK  status: ('A' for Active; 'I' for Inactive)
REMARK    1  A    between atoms: C_8  and  C_9
REMARK    2  A    between atoms: C_16  and  O_17
REMARK    3  A    between atoms: O_17  and  C_18
REMARK                            x       y       z     vdW  Elec       q    Type
REMARK                         _______ _______ _______ _____ _____    ______ ____
ROOT
ATOM      1  C   UNL     1       1.848   5.364  20.427  0.00  0.00    +0.000 A 
ATOM      2  C   UNL     1       0.867   4.552  21.026  0.00  0.00    +0.000 A 
ATOM      3  C   UNL     1       1.073   3.191  21.209  0.00  0.00    +0.000 A 
ATOM      4  C   UNL     1       2.265   2.618  20.783  0.00  0.00    +0.000 A 
ATOM      5  C   UNL     1       3.258   3.405  20.177  0.00  0.00    +0.000 A 
ATOM      6  C   UNL     1       4.464   2.830  19.749  0.00  0.00    +0.000 A 
ATOM      7  C   UNL     1       5.437   3.612  19.139  0.00  0.00    +0.000 A 
ATOM      8  C   UNL     1       5.166   4.953  18.968  0.00  0.00    +0.000 A 
ATOM      9  N   UNL     1       4.040   5.551  19.417  0.00  0.00    +0.000 NA
ATOM     10  C   UNL     1       3.069   4.796  19.994  0.00  0.00    +0.000 A 
ENDROOT
BRANCH   1  18
ATOM     11  O   UNL     1       0.459  10.541  22.272  0.00  0.00    +0.000 OA
ATOM     12  C   UNL     1       0.822  10.335  21.119  0.00  0.00    +0.000 C 
ATOM     13  N   UNL     1       1.022  11.375  20.227  0.00  0.00    +0.000 N 
ATOM     14  C   UNL     1       1.006  11.174  18.780  0.00  0.00    +0.000 C 
ATOM     15  C   UNL     1       1.740   9.907  18.290  0.00  0.00    +0.000 C 
ATOM     16  C   UNL     1       1.549   8.828  19.288  0.00  0.00    +0.000 A 
ATOM     17  N   UNL     1       1.839   7.509  19.125  0.00  0.00    +0.000 N 
ATOM     18  C   UNL     1       1.575   6.811  20.288  0.00  0.00    +0.000 A 
ATOM     19  C   UNL     1       1.091   7.745  21.197  0.00  0.00    +0.000 A 
ATOM     20  C   UNL     1       1.114   9.018  20.585  0.00  0.00    +0.000 A 
ATOM     21  H   UNL     1       0.754  12.271  20.605  0.00  0.00    +0.000 HD
ATOM     22  H   UNL     1       2.251   7.069  18.302  0.00  0.00    +0.000 HD
ENDBRANCH   1  18
BRANCH   8  23
ATOM     23  O   UNL     1       6.110   5.721  18.297  0.00  0.00    +0.000 OA
BRANCH  23  24
ATOM     24  C   UNL     1       6.247   5.503  16.942  0.00  0.00    +0.000 A 
ATOM     25  C   UNL     1       5.365   6.160  16.080  0.00  0.00    +0.000 A 
ATOM     26  F   UNL     1       4.422   6.979  16.569  0.00  0.00    +0.000 F 
ATOM     27  C   UNL     1       5.445   5.993  14.698  0.00  0.00    +0.000 A 
ATOM     28  C   UNL     1       6.421   5.152  14.154  0.00  0.00    +0.000 A 
ATOM     29  C   UNL     1       7.324   4.514  14.998  0.00  0.00    +0.000 A 
ATOM     30  C   UNL     1       7.252   4.718  16.376  0.00  0.00    +0.000 A 
ATOM     31  F   UNL     1       8.195   4.140  17.136  0.00  0.00    +0.000 F 
ENDBRANCH  23  24
ENDBRANCH   8  23
TORSDOF 3
ENDMDL
MODEL 5
REMARK VINA RESULT:      -8.6      2.514      6.400
REMARK  Name = 
REMARK  3 active torsions:
REMARK  status: ('A' for Active; 'I' for Inactive)
REMARK    1  A    between atoms: C_8  and  C_9
REMARK    2  A    between atoms: C_16  and  O_17
REMARK    3  A    between atoms: O_17  and  C_18
REMARK                            x       y       z     vdW  Elec       q    Type
REMARK                         _______ _______ _______ _____ _____    ______ ____
ROOT
ATOM      1  C   UNL     1       1.897   4.867  19.942  0.00  0.00    +0.000 A 
ATOM      2  C   UNL     1       1.049   4.190  20.840  0.00  0.00    +0.000 A 
ATOM      3  C   UNL     1       1.093   2.807  20.965  0.00  0.00    +0.000 A 
ATOM      4  C   UNL     1       1.980   2.078  20.184  0.00  0.00    +0.000 A 
ATOM      5  C   UNL     1       2.833   2.730  19.277  0.00  0.00    +0.000 A 
ATOM      6  C   UNL     1       3.732   1.996  18.488  0.00  0.00    +0.000 A 
ATOM      7  C   UNL     1       4.564   2.646  17.583  0.00  0.00    +0.000 A 
ATOM      8  C   UNL     1       4.460   4.018  17.491  0.00  0.00    +0.000 A 
ATOM      9  N   UNL     1       3.646   4.760  18.272  0.00  0.00    +0.000 NA
ATOM     10  C   UNL     1       2.810   4.138  19.144  0.00  0.00    +0.000 A 
ENDROOT
BRANCH   1  18
ATOM     11  O   UNL     1       2.015   9.922  17.381  0.00  0.00    +0.000 OA
ATOM     12  C   UNL     1       1.711   9.796  18.562  0.00  0.00    +0.000 C 
ATOM     13  N   UNL     1       1.268  10.872  19.314  0.00  0.00    +0.000 N 
ATOM     14  C   UNL     1       1.331  10.881  20.774  0.00  0.00    +0.000 C 
ATOM     15  C   UNL     1       0.920   9.555  21.452  0.00  0.00    +0.000 C 
ATOM     16  C   UNL     1       1.362   8.426  20.600  0.00  0.00    +0.000 A 
ATOM     17  N   UNL     1       1.395   7.111  20.947  0.00  0.00    +0.000 N 
ATOM     18  C   UNL     1       1.818   6.342  19.879  0.00  0.00    +0.000 A 
ATOM     19  C   UNL     1       2.066   7.230  18.838  0.00  0.00    +0.000 A 
ATOM     20  C   UNL     1       1.740   8.534  19.276  0.00  0.00    +0.000 A 
ATOM     21  H   UNL     1       1.315  11.745  18.812  0.00  0.00    +0.000 HD
ATOM     22  H   UNL     1       1.099   6.703  21.833  0.00  0.00    +0.000 HD
ENDBRANCH   1  18
BRANCH   8  23
ATOM     23  O   UNL     1       5.243   4.659  16.538  0.00  0.00    +0.000 OA
BRANCH  23  24
ATOM     24  C   UNL     1       6.082   5.658  16.985  0.00  0.00    +0.000 A 
ATOM     25  C   UNL     1       5.730   6.981  16.712  0.00  0.00    +0.000 A 
ATOM     26  F   UNL     1       4.603   7.258  16.038  0.00  0.00    +0.000 F 
ATOM     27  C   UNL     1       6.527   8.045  17.135  0.00  0.00    +0.000 A 
ATOM     28  C   UNL     1       7.705   7.792  17.845  0.00  0.00    +0.000 A 
ATOM     29  C   UNL     1       8.053   6.480  18.150  0.00  0.00    +0.000 A 
ATOM     30  C   UNL     1       7.228   5.430  17.748  0.00  0.00    +0.000 A 
ATOM     31  F   UNL     1       7.571   4.191  18.135  0.00  0.00    +0.000 F 
ENDBRANCH  23  24
ENDBRANCH   8  23
TORSDOF 3
ENDMDL
MODEL 6
REMARK VINA RESULT:      -8.5      2.533      6.342
REMARK  Name = 
REMARK  3 active torsions:
REMARK  status: ('A' for Active; 'I' for Inactive)
REMARK    1  A    between atoms: C_8  and  C_9
REMARK    2  A    between atoms: C_16  and  O_17
REMARK    3  A    between atoms: O_17  and  C_18
REMARK                            x       y       z     vdW  Elec       q    Type
REMARK                         _______ _______ _______ _____ _____    ______ ____
ROOT
ATOM      1  C   UNL     1       1.914   4.831  19.964  0.00  0.00    +0.000 A 
ATOM      2  C   UNL     1       1.059   4.172  20.868  0.00  0.00    +0.000 A 
ATOM      3  C   UNL     1       1.096   2.791  21.016  0.00  0.00    +0.000 A 
ATOM      4  C   UNL     1       1.985   2.047  20.251  0.00  0.00    +0.000 A 
ATOM      5  C   UNL     1       2.845   2.680  19.339  0.00  0.00    +0.000 A 
ATOM      6  C   UNL     1       3.746   1.930  18.567  0.00  0.00    +0.000 A 
ATOM      7  C   UNL     1       4.584   2.562  17.656  0.00  0.00    +0.000 A 
ATOM      8  C   UNL     1       4.487   3.933  17.541  0.00  0.00    +0.000 A 
ATOM      9  N   UNL     1       3.671   4.691  18.306  0.00  0.00    +0.000 NA
ATOM     10  C   UNL     1       2.828   4.086  19.183  0.00  0.00    +0.000 A 
ENDROOT
BRANCH   1  18
ATOM     11  O   UNL     1       2.095   9.845  17.327  0.00  0.00    +0.000 OA
ATOM     12  C   UNL     1       1.770   9.739  18.505  0.00  0.00    +0.000 C 
ATOM     13  N   UNL     1       1.317  10.828  19.231  0.00  0.00    +0.000 N 
ATOM     14  C   UNL     1       1.353  10.859  20.692  0.00  0.00    +0.000 C 
ATOM     15  C   UNL     1       0.926   9.546  21.382  0.00  0.00    +0.000 C 
ATOM     16  C   UNL     1       1.380   8.402  20.556  0.00  0.00    +0.000 A 
ATOM     17  N   UNL     1       1.401   7.092  20.925  0.00  0.00    +0.000 N 
ATOM     18  C   UNL     1       1.841   6.306  19.876  0.00  0.00    +0.000 A 
ATOM     19  C   UNL     1       2.111   7.176  18.827  0.00  0.00    +0.000 A 
ATOM     20  C   UNL     1       1.781   8.488  19.238  0.00  0.00    +0.000 A 
ATOM     21  H   UNL     1       1.376  11.693  18.717  0.00  0.00    +0.000 HD
ATOM     22  H   UNL     1       1.088   6.699  21.812  0.00  0.00    +0.000 HD
ENDBRANCH   1  18
BRANCH   8  23
ATOM     23  O   UNL     1       5.277   4.555  16.582  0.00  0.00    +0.000 OA
BRANCH  23  24
ATOM     24  C   UNL     1       6.027   5.637  16.993  0.00  0.00    +0.000 A 
ATOM     25  C   UNL     1       7.207   5.386  17.696  0.00  0.00    +0.000 A 
ATOM     26  F   UNL     1       7.590   4.127  17.953  0.00  0.00    +0.000 F 
ATOM     27  C   UNL     1       8.020   6.429  18.141  0.00  0.00    +0.000 A 
ATOM     28  C   UNL     1       7.654   7.754  17.885  0.00  0.00    +0.000 A 
ATOM     29  C   UNL     1       6.497   8.018  17.160  0.00  0.00    +0.000 A 
ATOM     30  C   UNL     1       5.712   6.963  16.694  0.00  0.00    +0.000 A 
ATOM     31  F   UNL     1       4.649   7.271  15.935  0.00  0.00    +0.000 F 
ENDBRANCH  23  24
ENDBRANCH   8  23
TORSDOF 3
ENDMDL
MODEL 7
REMARK VINA RESULT:      -8.5      1.080      1.226
REMARK  Name = 
REMARK  3 active torsions:
REMARK  status: ('A' for Active; 'I' for Inactive)
REMARK    1  A    between atoms: C_8  and  C_9
REMARK    2  A    between atoms: C_16  and  O_17
REMARK    3  A    between atoms: O_17  and  C_18
REMARK                            x       y       z     vdW  Elec       q    Type
REMARK                         _______ _______ _______ _____ _____    ______ ____
ROOT
ATOM      1  C   UNL     1       3.434   4.253  18.954  0.00  0.00    +0.000 A 
ATOM      2  C   UNL     1       3.308   2.916  19.376  0.00  0.00    +0.000 A 
ATOM      3  C   UNL     1       2.413   2.559  20.376  0.00  0.00    +0.000 A 
ATOM      4  C   UNL     1       1.636   3.541  20.979  0.00  0.00    +0.000 A 
ATOM      5  C   UNL     1       1.747   4.883  20.580  0.00  0.00    +0.000 A 
ATOM      6  C   UNL     1       0.962   5.876  21.185  0.00  0.00    +0.000 A 
ATOM      7  C   UNL     1       1.087   7.204  20.795  0.00  0.00    +0.000 A 
ATOM      8  C   UNL     1       2.006   7.498  19.810  0.00  0.00    +0.000 A 
ATOM      9  N   UNL     1       2.738   6.561  19.168  0.00  0.00    +0.000 NA
ATOM     10  C   UNL     1       2.646   5.262  19.554  0.00  0.00    +0.000 A 
ENDROOT
BRANCH   1  18
ATOM     11  O   UNL     1       7.802   6.941  16.539  0.00  0.00    +0.000 OA
ATOM     12  C   UNL     1       7.233   6.001  15.995  0.00  0.00    +0.000 C 
ATOM     13  N   UNL     1       7.696   5.466  14.804  0.00  0.00    +0.000 N 
ATOM     14  C   UNL     1       6.838   4.688  13.914  0.00  0.00    +0.000 C 
ATOM     15  C   UNL     1       5.908   3.679  14.622  0.00  0.00    +0.000 C 
ATOM     16  C   UNL     1       5.470   4.259  15.913  0.00  0.00    +0.000 A 
ATOM     17  N   UNL     1       4.478   3.790  16.719  0.00  0.00    +0.000 N 
ATOM     18  C   UNL     1       4.387   4.559  17.864  0.00  0.00    +0.000 A 
ATOM     19  C   UNL     1       5.358   5.547  17.745  0.00  0.00    +0.000 A 
ATOM     20  C   UNL     1       6.067   5.334  16.542  0.00  0.00    +0.000 A 
ATOM     21  H   UNL     1       8.469   5.986  14.417  0.00  0.00    +0.000 HD
ATOM     22  H   UNL     1       3.905   2.961  16.568  0.00  0.00    +0.000 HD
ENDBRANCH   1  18
BRANCH   8  23
ATOM     23  O   UNL     1       2.179   8.834  19.469  0.00  0.00    +0.000 OA
BRANCH  23  24
ATOM     24  C   UNL     1       1.039   9.600  19.340  0.00  0.00    +0.000 A 
ATOM     25  C   UNL     1       0.676  10.420  20.410  0.00  0.00    +0.000 A 
ATOM     26  F   UNL     1       1.424  10.454  21.523  0.00  0.00    +0.000 F 
ATOM     27  C   UNL     1      -0.461  11.226  20.352  0.00  0.00    +0.000 A 
ATOM     28  C   UNL     1      -1.260  11.219  19.204  0.00  0.00    +0.000 A 
ATOM     29  C   UNL     1      -0.894  10.430  18.118  0.00  0.00    +0.000 A 
ATOM     30  C   UNL     1       0.264   9.655  18.180  0.00  0.00    +0.000 A 
ATOM     31  F   UNL     1       0.611   8.973  17.078  0.00  0.00    +0.000 F 
ENDBRANCH  23  24
ENDBRANCH   8  23
TORSDOF 3
ENDMDL
MODEL 8
REMARK VINA RESULT:      -8.4      2.490      6.299
REMARK  Name = 
REMARK  3 active torsions:
REMARK  status: ('A' for Active; 'I' for Inactive)
REMARK    1  A    between atoms: C_8  and  C_9
REMARK    2  A    between atoms: C_16  and  O_17
REMARK    3  A    between atoms: O_17  and  C_18
REMARK                            x       y       z     vdW  Elec       q    Type
REMARK                         _______ _______ _______ _____ _____    ______ ____
ROOT
ATOM      1  C   UNL     1       1.828   4.828  19.928  0.00  0.00    +0.000 A 
ATOM      2  C   UNL     1       1.009   4.122  20.829  0.00  0.00    +0.000 A 
ATOM      3  C   UNL     1       1.110   2.743  20.962  0.00  0.00    +0.000 A 
ATOM      4  C   UNL     1       2.027   2.047  20.185  0.00  0.00    +0.000 A 
ATOM      5  C   UNL     1       2.852   2.728  19.274  0.00  0.00    +0.000 A 
ATOM      6  C   UNL     1       3.781   2.029  18.489  0.00  0.00    +0.000 A 
ATOM      7  C   UNL     1       4.585   2.708  17.580  0.00  0.00    +0.000 A 
ATOM      8  C   UNL     1       4.424   4.073  17.480  0.00  0.00    +0.000 A 
ATOM      9  N   UNL     1       3.580   4.785  18.258  0.00  0.00    +0.000 NA
ATOM     10  C   UNL     1       2.770   4.134  19.133  0.00  0.00    +0.000 A 
ENDROOT
BRANCH   1  18
ATOM     11  O   UNL     1       0.976  10.027  22.022  0.00  0.00    +0.000 OA
ATOM     12  C   UNL     1       1.289   9.838  20.852  0.00  0.00    +0.000 C 
ATOM     13  N   UNL     1       1.563  10.893  19.997  0.00  0.00    +0.000 N 
ATOM     14  C   UNL     1       1.493  10.757  18.544  0.00  0.00    +0.000 C 
ATOM     15  C   UNL     1       2.092   9.450  17.982  0.00  0.00    +0.000 C 
ATOM     16  C   UNL     1       1.826   8.352  18.941  0.00  0.00    +0.000 A 
ATOM     17  N   UNL     1       1.987   7.019  18.715  0.00  0.00    +0.000 N 
ATOM     18  C   UNL     1       1.687   6.299  19.856  0.00  0.00    +0.000 A 
ATOM     19  C   UNL     1       1.316   7.233  20.816  0.00  0.00    +0.000 A 
ATOM     20  C   UNL     1       1.444   8.525  20.256  0.00  0.00    +0.000 A 
ATOM     21  H   UNL     1       1.390  11.793  20.419  0.00  0.00    +0.000 HD
ATOM     22  H   UNL     1       2.335   6.579  17.863  0.00  0.00    +0.000 HD
ENDBRANCH   1  18
BRANCH   8  23
ATOM     23  O   UNL     1       5.179   4.741  16.524  0.00  0.00    +0.000 OA
BRANCH  23  24
ATOM     24  C   UNL     1       6.039   5.720  16.975  0.00  0.00    +0.000 A 
ATOM     25  C   UNL     1       5.678   7.054  16.772  0.00  0.00    +0.000 A 
ATOM     26  F   UNL     1       4.525   7.359  16.160  0.00  0.00    +0.000 F 
ATOM     27  C   UNL     1       6.495   8.099  17.204  0.00  0.00    +0.000 A 
ATOM     28  C   UNL     1       7.702   7.816  17.852  0.00  0.00    +0.000 A 
ATOM     29  C   UNL     1       8.060   6.493  18.087  0.00  0.00    +0.000 A 
ATOM     30  C   UNL     1       7.216   5.460  17.678  0.00  0.00    +0.000 A 
ATOM     31  F   UNL     1       7.573   4.207  17.998  0.00  0.00    +0.000 F 
ENDBRANCH  23  24
ENDBRANCH   8  23
TORSDOF 3
ENDMDL
MODEL 9
REMARK VINA RESULT:      -8.3      7.749     10.943
REMARK  Name = 
REMARK  3 active torsions:
REMARK  status: ('A' for Active; 'I' for Inactive)
REMARK    1  A    between atoms: C_8  and  C_9
REMARK    2  A    between atoms: C_16  and  O_17
REMARK    3  A    between atoms: O_17  and  C_18
REMARK                            x       y       z     vdW  Elec       q    Type
REMARK                         _______ _______ _______ _____ _____    ______ ____
ROOT
ATOM      1  C   UNL     1      -1.042  11.382  20.041  0.00  0.00    +0.000 A 
ATOM      2  C   UNL     1       0.204  10.728  20.003  0.00  0.00    +0.000 A 
ATOM      3  C   UNL     1       0.567   9.937  18.920  0.00  0.00    +0.000 A 
ATOM      4  C   UNL     1      -0.319   9.780  17.862  0.00  0.00    +0.000 A 
ATOM      5  C   UNL     1      -1.571  10.418  17.878  0.00  0.00    +0.000 A 
ATOM      6  C   UNL     1      -2.466  10.263  16.809  0.00  0.00    +0.000 A 
ATOM      7  C   UNL     1      -3.708  10.887  16.839  0.00  0.00    +0.000 A 
ATOM      8  C   UNL     1      -4.019  11.643  17.949  0.00  0.00    +0.000 A 
ATOM      9  N   UNL     1      -3.160  11.858  18.970  0.00  0.00    +0.000 NA
ATOM     10  C   UNL     1      -1.952  11.237  18.968  0.00  0.00    +0.000 A 
ENDROOT
BRANCH   1  18
ATOM     11  O   UNL     1      -0.042  15.444  23.867  0.00  0.00    +0.000 OA
ATOM     12  C   UNL     1      -1.120  14.865  23.797  0.00  0.00    +0.000 C 
ATOM     13  N   UNL     1      -2.199  15.248  24.578  0.00  0.00    +0.000 N 
ATOM     14  C   UNL     1      -3.314  14.347  24.861  0.00  0.00    +0.000 C 
ATOM     15  C   UNL     1      -3.801  13.513  23.656  0.00  0.00    +0.000 C 
ATOM     16  C   UNL     1      -2.632  13.162  22.815  0.00  0.00    +0.000 A 
ATOM     17  N   UNL     1      -2.604  12.256  21.800  0.00  0.00    +0.000 N 
ATOM     18  C   UNL     1      -1.354  12.232  21.211  0.00  0.00    +0.000 A 
ATOM     19  C   UNL     1      -0.582  13.155  21.906  0.00  0.00    +0.000 A 
ATOM     20  C   UNL     1      -1.395  13.771  22.885  0.00  0.00    +0.000 A 
ATOM     21  H   UNL     1      -1.963  15.968  25.243  0.00  0.00    +0.000 HD
ATOM     22  H   UNL     1      -3.386  11.701  21.452  0.00  0.00    +0.000 HD
ENDBRANCH   1  18
BRANCH   8  23
ATOM     23  O   UNL     1      -5.286  12.210  18.008  0.00  0.00    +0.000 OA
BRANCH  23  24
ATOM     24  C   UNL     1      -5.997  12.037  19.177  0.00  0.00    +0.000 A 
ATOM     25  C   UNL     1      -6.797  10.899  19.296  0.00  0.00    +0.000 A 
ATOM     26  F   UNL     1      -6.859  10.006  18.297  0.00  0.00    +0.000 F 
ATOM     27  C   UNL     1      -7.542  10.654  20.449  0.00  0.00    +0.000 A 
ATOM     28  C   UNL     1      -7.495  11.561  21.513  0.00  0.00    +0.000 A 
ATOM     29  C   UNL     1      -6.679  12.684  21.421  0.00  0.00    +0.000 A 
ATOM     30  C   UNL     1      -5.915  12.897  20.273  0.00  0.00    +0.000 A 
ATOM     31  F   UNL     1      -5.089  13.954  20.268  0.00  0.00    +0.000 F 
ENDBRANCH  23  24
ENDBRANCH   8  23
TORSDOF 3
ENDMDL
