MODEL 1
REMARK VINA RESULT:      -7.2      0.000      0.000
REMARK  Name = 
REMARK  5 active torsions:
REMARK  status: ('A' for Active; 'I' for Inactive)
REMARK    1  A    between atoms: C_1  and  N_2
REMARK    2  A    between atoms: N_2  and  C_3
REMARK    3  A    between atoms: N_2  and  C_4
REMARK    4  A    between atoms: C_4  and  C_5
REMARK    5  A    between atoms: C_5  and  C_6
REMARK                            x       y       z     vdW  Elec       q    Type
REMARK                         _______ _______ _______ _____ _____    ______ ____
ROOT
ATOM      1  C   UNL     1       2.748   6.027  17.938  0.00  0.00    +0.000 C 
ATOM      2  S   UNL     1       1.660   4.574  17.650  0.00  0.00    +0.000 S 
ATOM      3  C   UNL     1       2.025   3.712  19.162  0.00  0.00    +0.000 A 
ATOM      4  C   UNL     1       1.016   3.534  20.115  0.00  0.00    +0.000 A 
ATOM      5  C   UNL     1       1.309   2.956  21.352  0.00  0.00    +0.000 A 
ATOM      6  C   UNL     1       2.608   2.535  21.633  0.00  0.00    +0.000 A 
ATOM      7  C   UNL     1       3.614   2.700  20.684  0.00  0.00    +0.000 A 
ATOM      8  C   UNL     1       3.328   3.312  19.461  0.00  0.00    +0.000 A 
ATOM      9  O   UNL     1       4.331   3.355  18.529  0.00  0.00    +0.000 OA
ATOM     10  C   UNL     1       4.904   4.569  18.221  0.00  0.00    +0.000 A 
ATOM     11  C   UNL     1       6.308   4.512  18.171  0.00  0.00    +0.000 A 
ATOM     12  C   UNL     1       7.066   5.603  17.747  0.00  0.00    +0.000 A 
ATOM     13  C   UNL     1       6.424   6.743  17.303  0.00  0.00    +0.000 A 
ATOM     14  C   UNL     1       5.033   6.797  17.321  0.00  0.00    +0.000 A 
ATOM     15  C   UNL     1       4.237   5.739  17.825  0.00  0.00    +0.000 A 
ENDROOT
BRANCH   1  16
ATOM     16  C   UNL     1       2.360   6.729  19.268  0.00  0.00    +0.000 C 
BRANCH  16  17
ATOM     17  C   UNL     1       2.069   8.235  19.187  0.00  0.00    +0.000 C 
BRANCH  17  19
ATOM     18  C   UNL     1       1.326   8.468  21.493  0.00  0.00    +0.000 C 
ATOM     19  N   UNL     1       1.008   8.714  20.087  0.00  0.00    +0.000 NA
ATOM     20  C   UNL     1       0.774  10.142  19.860  0.00  0.00    +0.000 C 
ENDBRANCH  17  19
ENDBRANCH  16  17
ENDBRANCH   1  16
TORSDOF 3
ENDMDL
MODEL 2
REMARK VINA RESULT:      -6.9      1.950      4.678
REMARK  Name = 
REMARK  5 active torsions:
REMARK  status: ('A' for Active; 'I' for Inactive)
REMARK    1  A    between atoms: C_1  and  N_2
REMARK    2  A    between atoms: N_2  and  C_3
REMARK    3  A    between atoms: N_2  and  C_4
REMARK    4  A    between atoms: C_4  and  C_5
REMARK    5  A    between atoms: C_5  and  C_6
REMARK                            x       y       z     vdW  Elec       q    Type
REMARK                         _______ _______ _______ _____ _____    ______ ____
ROOT
ATOM      1  C   UNL     1       3.984   5.609  19.189  0.00  0.00    +0.000 C 
ATOM      2  S   UNL     1       5.772   5.192  19.115  0.00  0.00    +0.000 S 
ATOM      3  C   UNL     1       5.849   4.817  17.378  0.00  0.00    +0.000 A 
ATOM      4  C   UNL     1       6.609   5.629  16.531  0.00  0.00    +0.000 A 
ATOM      5  C   UNL     1       6.594   5.415  15.151  0.00  0.00    +0.000 A 
ATOM      6  C   UNL     1       5.836   4.375  14.615  0.00  0.00    +0.000 A 
ATOM      7  C   UNL     1       5.085   3.556  15.456  0.00  0.00    +0.000 A 
ATOM      8  C   UNL     1       5.071   3.794  16.832  0.00  0.00    +0.000 A 
ATOM      9  O   UNL     1       4.398   2.897  17.619  0.00  0.00    +0.000 OA
ATOM     10  C   UNL     1       3.230   3.291  18.234  0.00  0.00    +0.000 A 
ATOM     11  C   UNL     1       2.203   2.339  18.114  0.00  0.00    +0.000 A 
ATOM     12  C   UNL     1       0.987   2.493  18.779  0.00  0.00    +0.000 A 
ATOM     13  C   UNL     1       0.809   3.570  19.626  0.00  0.00    +0.000 A 
ATOM     14  C   UNL     1       1.833   4.503  19.772  0.00  0.00    +0.000 A 
ATOM     15  C   UNL     1       3.046   4.420  19.047  0.00  0.00    +0.000 A 
ENDROOT
BRANCH   1  16
ATOM     16  C   UNL     1       3.664   6.762  18.198  0.00  0.00    +0.000 C 
BRANCH  16  17
ATOM     17  C   UNL     1       2.222   7.292  18.206  0.00  0.00    +0.000 C 
BRANCH  17  19
ATOM     18  C   UNL     1       1.193   9.493  18.080  0.00  0.00    +0.000 C 
ATOM     19  N   UNL     1       2.040   8.595  18.863  0.00  0.00    +0.000 NA
ATOM     20  C   UNL     1       1.477   8.400  20.201  0.00  0.00    +0.000 C 
ENDBRANCH  17  19
ENDBRANCH  16  17
ENDBRANCH   1  16
TORSDOF 3
ENDMDL
MODEL 3
REMARK VINA RESULT:      -6.9      1.095      1.195
REMARK  Name = 
REMARK  5 active torsions:
REMARK  status: ('A' for Active; 'I' for Inactive)
REMARK    1  A    between atoms: C_1  and  N_2
REMARK    2  A    between atoms: N_2  and  C_3
REMARK    3  A    between atoms: N_2  and  C_4
REMARK    4  A    between atoms: C_4  and  C_5
REMARK    5  A    between atoms: C_5  and  C_6
REMARK                            x       y       z     vdW  Elec       q    Type
REMARK                         _______ _______ _______ _____ _____    ______ ____
ROOT
ATOM      1  C   UNL     1       3.673   5.578  17.367  0.00  0.00    +0.000 C 
ATOM      2  S   UNL     1       2.901   3.932  17.097  0.00  0.00    +0.000 S 
ATOM      3  C   UNL     1       2.655   3.510  18.807  0.00  0.00    +0.000 A 
ATOM      4  C   UNL     1       1.354   3.381  19.305  0.00  0.00    +0.000 A 
ATOM      5  C   UNL     1       1.141   3.158  20.667  0.00  0.00    +0.000 A 
ATOM      6  C   UNL     1       2.228   3.042  21.533  0.00  0.00    +0.000 A 
ATOM      7  C   UNL     1       3.526   3.159  21.040  0.00  0.00    +0.000 A 
ATOM      8  C   UNL     1       3.738   3.420  19.684  0.00  0.00    +0.000 A 
ATOM      9  O   UNL     1       5.033   3.423  19.238  0.00  0.00    +0.000 OA
ATOM     10  C   UNL     1       5.603   4.616  18.852  0.00  0.00    +0.000 A 
ATOM     11  C   UNL     1       6.900   4.793  19.366  0.00  0.00    +0.000 A 
ATOM     12  C   UNL     1       7.693   5.873  18.982  0.00  0.00    +0.000 A 
ATOM     13  C   UNL     1       7.224   6.755  18.028  0.00  0.00    +0.000 A 
ATOM     14  C   UNL     1       5.951   6.571  17.492  0.00  0.00    +0.000 A 
ATOM     15  C   UNL     1       5.089   5.533  17.922  0.00  0.00    +0.000 A 
ENDROOT
BRANCH   1  16
ATOM     16  C   UNL     1       2.721   6.485  18.193  0.00  0.00    +0.000 C 
BRANCH  16  17
ATOM     17  C   UNL     1       2.701   7.975  17.821  0.00  0.00    +0.000 C 
BRANCH  17  19
ATOM     18  C   UNL     1       1.547   8.551  19.884  0.00  0.00    +0.000 C 
ATOM     19  N   UNL     1       1.620   8.758  18.438  0.00  0.00    +0.000 NA
ATOM     20  C   UNL     1       1.801  10.179  18.135  0.00  0.00    +0.000 C 
ENDBRANCH  17  19
ENDBRANCH  16  17
ENDBRANCH   1  16
TORSDOF 3
ENDMDL
MODEL 4
REMARK VINA RESULT:      -6.7      2.577      4.813
REMARK  Name = 
REMARK  5 active torsions:
REMARK  status: ('A' for Active; 'I' for Inactive)
REMARK    1  A    between atoms: C_1  and  N_2
REMARK    2  A    between atoms: N_2  and  C_3
REMARK    3  A    between atoms: N_2  and  C_4
REMARK    4  A    between atoms: C_4  and  C_5
REMARK    5  A    between atoms: C_5  and  C_6
REMARK                            x       y       z     vdW  Elec       q    Type
REMARK                         _______ _______ _______ _____ _____    ______ ____
ROOT
ATOM      1  C   UNL     1       4.202   6.033  18.047  0.00  0.00    +0.000 C 
ATOM      2  S   UNL     1       4.917   5.112  19.467  0.00  0.00    +0.000 S 
ATOM      3  C   UNL     1       3.453   4.208  19.915  0.00  0.00    +0.000 A 
ATOM      4  C   UNL     1       3.435   2.815  19.783  0.00  0.00    +0.000 A 
ATOM      5  C   UNL     1       2.260   2.100  20.027  0.00  0.00    +0.000 A 
ATOM      6  C   UNL     1       1.105   2.773  20.423  0.00  0.00    +0.000 A 
ATOM      7  C   UNL     1       1.121   4.159  20.567  0.00  0.00    +0.000 A 
ATOM      8  C   UNL     1       2.285   4.877  20.286  0.00  0.00    +0.000 A 
ATOM      9  O   UNL     1       2.272   6.223  20.542  0.00  0.00    +0.000 OA
ATOM     10  C   UNL     1       2.294   7.104  19.484  0.00  0.00    +0.000 A 
ATOM     11  C   UNL     1       1.361   8.146  19.623  0.00  0.00    +0.000 A 
ATOM     12  C   UNL     1       1.321   9.211  18.723  0.00  0.00    +0.000 A 
ATOM     13  C   UNL     1       2.258   9.279  17.710  0.00  0.00    +0.000 A 
ATOM     14  C   UNL     1       3.205   8.265  17.583  0.00  0.00    +0.000 A 
ATOM     15  C   UNL     1       3.219   7.129  18.429  0.00  0.00    +0.000 A 
ENDROOT
BRANCH   1  16
ATOM     16  C   UNL     1       3.632   5.038  16.999  0.00  0.00    +0.000 C 
BRANCH  16  17
ATOM     17  C   UNL     1       4.636   4.066  16.360  0.00  0.00    +0.000 C 
BRANCH  17  19
ATOM     18  C   UNL     1       7.033   4.481  16.310  0.00  0.00    +0.000 C 
ATOM     19  N   UNL     1       5.751   4.703  15.644  0.00  0.00    +0.000 NA
ATOM     20  C   UNL     1       5.801   4.209  14.266  0.00  0.00    +0.000 C 
ENDBRANCH  17  19
ENDBRANCH  16  17
ENDBRANCH   1  16
TORSDOF 3
ENDMDL
MODEL 5
REMARK VINA RESULT:      -6.6      1.881      2.692
REMARK  Name = 
REMARK  5 active torsions:
REMARK  status: ('A' for Active; 'I' for Inactive)
REMARK    1  A    between atoms: C_1  and  N_2
REMARK    2  A    between atoms: N_2  and  C_3
REMARK    3  A    between atoms: N_2  and  C_4
REMARK    4  A    between atoms: C_4  and  C_5
REMARK    5  A    between atoms: C_5  and  C_6
REMARK                            x       y       z     vdW  Elec       q    Type
REMARK                         _______ _______ _______ _____ _____    ______ ____
ROOT
ATOM      1  C   UNL     1       5.533   5.944  16.157  0.00  0.00    +0.000 C 
ATOM      2  S   UNL     1       5.165   4.196  15.726  0.00  0.00    +0.000 S 
ATOM      3  C   UNL     1       4.228   3.792  17.183  0.00  0.00    +0.000 A 
ATOM      4  C   UNL     1       2.868   3.488  17.066  0.00  0.00    +0.000 A 
ATOM      5  C   UNL     1       2.093   3.274  18.208  0.00  0.00    +0.000 A 
ATOM      6  C   UNL     1       2.680   3.345  19.471  0.00  0.00    +0.000 A 
ATOM      7  C   UNL     1       4.037   3.637  19.592  0.00  0.00    +0.000 A 
ATOM      8  C   UNL     1       4.803   3.887  18.452  0.00  0.00    +0.000 A 
ATOM      9  O   UNL     1       6.150   4.067  18.625  0.00  0.00    +0.000 OA
ATOM     10  C   UNL     1       6.687   5.320  18.422  0.00  0.00    +0.000 A 
ATOM     11  C   UNL     1       7.583   5.699  19.437  0.00  0.00    +0.000 A 
ATOM     12  C   UNL     1       8.330   6.873  19.346  0.00  0.00    +0.000 A 
ATOM     13  C   UNL     1       8.239   7.649  18.206  0.00  0.00    +0.000 A 
ATOM     14  C   UNL     1       7.375   7.264  17.184  0.00  0.00    +0.000 A 
ATOM     15  C   UNL     1       6.541   6.124  17.281  0.00  0.00    +0.000 A 
ENDROOT
BRANCH   1  16
ATOM     16  C   UNL     1       4.210   6.725  16.392  0.00  0.00    +0.000 C 
BRANCH  16  17
ATOM     17  C   UNL     1       3.962   7.238  17.819  0.00  0.00    +0.000 C 
BRANCH  17  19
ATOM     18  C   UNL     1       2.359   7.018  19.636  0.00  0.00    +0.000 C 
ATOM     19  N   UNL     1       2.548   7.313  18.217  0.00  0.00    +0.000 NA
ATOM     20  C   UNL     1       2.013   8.638  17.896  0.00  0.00    +0.000 C 
ENDBRANCH  17  19
ENDBRANCH  16  17
ENDBRANCH   1  16
TORSDOF 3
ENDMDL
MODEL 6
REMARK VINA RESULT:      -6.6      1.089      1.447
REMARK  Name = 
REMARK  5 active torsions:
REMARK  status: ('A' for Active; 'I' for Inactive)
REMARK    1  A    between atoms: C_1  and  N_2
REMARK    2  A    between atoms: N_2  and  C_3
REMARK    3  A    between atoms: N_2  and  C_4
REMARK    4  A    between atoms: C_4  and  C_5
REMARK    5  A    between atoms: C_5  and  C_6
REMARK                            x       y       z     vdW  Elec       q    Type
REMARK                         _______ _______ _______ _____ _____    ______ ____
ROOT
ATOM      1  C   UNL     1       3.339   4.950  17.209  0.00  0.00    +0.000 C 
ATOM      2  S   UNL     1       2.824   3.187  17.140  0.00  0.00    +0.000 S 
ATOM      3  C   UNL     1       2.617   2.939  18.889  0.00  0.00    +0.000 A 
ATOM      4  C   UNL     1       1.342   2.677  19.402  0.00  0.00    +0.000 A 
ATOM      5  C   UNL     1       1.143   2.588  20.781  0.00  0.00    +0.000 A 
ATOM      6  C   UNL     1       2.221   2.739  21.652  0.00  0.00    +0.000 A 
ATOM      7  C   UNL     1       3.495   2.990  21.145  0.00  0.00    +0.000 A 
ATOM      8  C   UNL     1       3.687   3.116  19.768  0.00  0.00    +0.000 A 
ATOM      9  O   UNL     1       4.974   3.260  19.322  0.00  0.00    +0.000 OA
ATOM     10  C   UNL     1       5.366   4.471  18.794  0.00  0.00    +0.000 A 
ATOM     11  C   UNL     1       6.614   4.899  19.280  0.00  0.00    +0.000 A 
ATOM     12  C   UNL     1       7.244   6.032  18.768  0.00  0.00    +0.000 A 
ATOM     13  C   UNL     1       6.664   6.715  17.716  0.00  0.00    +0.000 A 
ATOM     14  C   UNL     1       5.441   6.280  17.209  0.00  0.00    +0.000 A 
ATOM     15  C   UNL     1       4.736   5.183  17.762  0.00  0.00    +0.000 A 
ENDROOT
BRANCH   1  16
ATOM     16  C   UNL     1       2.249   5.796  17.923  0.00  0.00    +0.000 C 
BRANCH  16  17
ATOM     17  C   UNL     1       2.680   7.182  18.427  0.00  0.00    +0.000 C 
BRANCH  17  19
ATOM     18  C   UNL     1       1.480   8.591  20.007  0.00  0.00    +0.000 C 
ATOM     19  N   UNL     1       2.381   7.451  19.841  0.00  0.00    +0.000 NA
ATOM     20  C   UNL     1       1.808   6.255  20.463  0.00  0.00    +0.000 C 
ENDBRANCH  17  19
ENDBRANCH  16  17
ENDBRANCH   1  16
TORSDOF 3
ENDMDL
MODEL 7
REMARK VINA RESULT:      -6.5      2.640      4.606
REMARK  Name = 
REMARK  5 active torsions:
REMARK  status: ('A' for Active; 'I' for Inactive)
REMARK    1  A    between atoms: C_1  and  N_2
REMARK    2  A    between atoms: N_2  and  C_3
REMARK    3  A    between atoms: N_2  and  C_4
REMARK    4  A    between atoms: C_4  and  C_5
REMARK    5  A    between atoms: C_5  and  C_6
REMARK                            x       y       z     vdW  Elec       q    Type
REMARK                         _______ _______ _______ _____ _____    ______ ____
ROOT
ATOM      1  C   UNL     1       4.735   3.621  17.900  0.00  0.00    +0.000 C 
ATOM      2  S   UNL     1       5.065   4.584  19.430  0.00  0.00    +0.000 S 
ATOM      3  C   UNL     1       3.947   5.928  19.101  0.00  0.00    +0.000 A 
ATOM      4  C   UNL     1       2.836   6.118  19.929  0.00  0.00    +0.000 A 
ATOM      5  C   UNL     1       1.890   7.099  19.623  0.00  0.00    +0.000 A 
ATOM      6  C   UNL     1       2.063   7.907  18.500  0.00  0.00    +0.000 A 
ATOM      7  C   UNL     1       3.174   7.729  17.678  0.00  0.00    +0.000 A 
ATOM      8  C   UNL     1       4.100   6.722  17.964  0.00  0.00    +0.000 A 
ATOM      9  O   UNL     1       5.223   6.660  17.182  0.00  0.00    +0.000 OA
ATOM     10  C   UNL     1       5.373   5.602  16.313  0.00  0.00    +0.000 A 
ATOM     11  C   UNL     1       5.797   6.003  15.034  0.00  0.00    +0.000 A 
ATOM     12  C   UNL     1       6.134   5.071  14.053  0.00  0.00    +0.000 A 
ATOM     13  C   UNL     1       6.113   3.724  14.362  0.00  0.00    +0.000 A 
ATOM     14  C   UNL     1       5.723   3.319  15.636  0.00  0.00    +0.000 A 
ATOM     15  C   UNL     1       5.295   4.237  16.627  0.00  0.00    +0.000 A 
ENDROOT
BRANCH   1  16
ATOM     16  C   UNL     1       3.223   3.280  17.801  0.00  0.00    +0.000 C 
BRANCH  16  17
ATOM     17  C   UNL     1       2.776   1.955  18.439  0.00  0.00    +0.000 C 
BRANCH  17  19
ATOM     18  C   UNL     1       2.194   2.536  20.729  0.00  0.00    +0.000 C 
ATOM     19  N   UNL     1       1.699   2.074  19.433  0.00  0.00    +0.000 NA
ATOM     20  C   UNL     1       0.661   2.978  18.932  0.00  0.00    +0.000 C 
ENDBRANCH  17  19
ENDBRANCH  16  17
ENDBRANCH   1  16
TORSDOF 3
ENDMDL
MODEL 8
REMARK VINA RESULT:      -6.5      0.812      1.059
REMARK  Name = 
REMARK  5 active torsions:
REMARK  status: ('A' for Active; 'I' for Inactive)
REMARK    1  A    between atoms: C_1  and  N_2
REMARK    2  A    between atoms: N_2  and  C_3
REMARK    3  A    between atoms: N_2  and  C_4
REMARK    4  A    between atoms: C_4  and  C_5
REMARK    5  A    between atoms: C_5  and  C_6
REMARK                            x       y       z     vdW  Elec       q    Type
REMARK                         _______ _______ _______ _____ _____    ______ ____
ROOT
ATOM      1  C   UNL     1       2.847   5.979  18.050  0.00  0.00    +0.000 C 
ATOM      2  S   UNL     1       1.567   4.662  17.989  0.00  0.00    +0.000 S 
ATOM      3  C   UNL     1       2.262   3.608  19.242  0.00  0.00    +0.000 A 
ATOM      4  C   UNL     1       1.565   3.408  20.439  0.00  0.00    +0.000 A 
ATOM      5  C   UNL     1       2.144   2.673  21.476  0.00  0.00    +0.000 A 
ATOM      6  C   UNL     1       3.412   2.118  21.313  0.00  0.00    +0.000 A 
ATOM      7  C   UNL     1       4.106   2.305  20.119  0.00  0.00    +0.000 A 
ATOM      8  C   UNL     1       3.542   3.072  19.097  0.00  0.00    +0.000 A 
ATOM      9  O   UNL     1       4.224   3.136  17.910  0.00  0.00    +0.000 OA
ATOM     10  C   UNL     1       4.813   4.326  17.542  0.00  0.00    +0.000 A 
ATOM     11  C   UNL     1       6.124   4.159  17.063  0.00  0.00    +0.000 A 
ATOM     12  C   UNL     1       6.841   5.225  16.519  0.00  0.00    +0.000 A 
ATOM     13  C   UNL     1       6.229   6.457  16.387  0.00  0.00    +0.000 A 
ATOM     14  C   UNL     1       4.920   6.623  16.832  0.00  0.00    +0.000 A 
ATOM     15  C   UNL     1       4.195   5.583  17.465  0.00  0.00    +0.000 A 
ENDROOT
BRANCH   1  16
ATOM     16  C   UNL     1       2.950   6.557  19.488  0.00  0.00    +0.000 C 
BRANCH  16  17
ATOM     17  C   UNL     1       1.637   7.027  20.132  0.00  0.00    +0.000 C 
BRANCH  17  19
ATOM     18  C   UNL     1       1.358   9.201  19.075  0.00  0.00    +0.000 C 
ATOM     19  N   UNL     1       1.528   8.479  20.335  0.00  0.00    +0.000 NA
ATOM     20  C   UNL     1       0.415   8.770  21.242  0.00  0.00    +0.000 C 
ENDBRANCH  17  19
ENDBRANCH  16  17
ENDBRANCH   1  16
TORSDOF 3
ENDMDL
MODEL 9
REMARK VINA RESULT:      -6.2      2.720      4.974
REMARK  Name = 
REMARK  5 active torsions:
REMARK  status: ('A' for Active; 'I' for Inactive)
REMARK    1  A    between atoms: C_1  and  N_2
REMARK    2  A    between atoms: N_2  and  C_3
REMARK    3  A    between atoms: N_2  and  C_4
REMARK    4  A    between atoms: C_4  and  C_5
REMARK    5  A    between atoms: C_5  and  C_6
REMARK                            x       y       z     vdW  Elec       q    Type
REMARK                         _______ _______ _______ _____ _____    ______ ____
ROOT
ATOM      1  C   UNL     1       4.597   6.064  17.887  0.00  0.00    +0.000 C 
ATOM      2  S   UNL     1       5.307   5.054  19.247  0.00  0.00    +0.000 S 
ATOM      3  C   UNL     1       3.908   3.983  19.492  0.00  0.00    +0.000 A 
ATOM      4  C   UNL     1       4.028   2.617  19.211  0.00  0.00    +0.000 A 
ATOM      5  C   UNL     1       2.913   1.781  19.293  0.00  0.00    +0.000 A 
ATOM      6  C   UNL     1       1.678   2.303  19.677  0.00  0.00    +0.000 A 
ATOM      7  C   UNL     1       1.556   3.660  19.968  0.00  0.00    +0.000 A 
ATOM      8  C   UNL     1       2.663   4.503  19.849  0.00  0.00    +0.000 A 
ATOM      9  O   UNL     1       2.509   5.805  20.246  0.00  0.00    +0.000 OA
ATOM     10  C   UNL     1       2.514   6.799  19.292  0.00  0.00    +0.000 A 
ATOM     11  C   UNL     1       1.481   7.735  19.475  0.00  0.00    +0.000 A 
ATOM     12  C   UNL     1       1.397   8.887  18.694  0.00  0.00    +0.000 A 
ATOM     13  C   UNL     1       2.383   9.149  17.762  0.00  0.00    +0.000 A 
ATOM     14  C   UNL     1       3.426   8.240  17.595  0.00  0.00    +0.000 A 
ATOM     15  C   UNL     1       3.495   7.022  18.314  0.00  0.00    +0.000 A 
ENDROOT
BRANCH   1  16
ATOM     16  C   UNL     1       4.186   5.149  16.701  0.00  0.00    +0.000 C 
BRANCH  16  17
ATOM     17  C   UNL     1       5.049   5.243  15.432  0.00  0.00    +0.000 C 
BRANCH  17  19
ATOM     18  C   UNL     1       6.309   3.911  13.834  0.00  0.00    +0.000 C 
ATOM     19  N   UNL     1       6.004   4.141  15.245  0.00  0.00    +0.000 NA
ATOM     20  C   UNL     1       7.232   4.418  15.993  0.00  0.00    +0.000 C 
ENDBRANCH  17  19
ENDBRANCH  16  17
ENDBRANCH   1  16
TORSDOF 3
ENDMDL
