MODEL 1
REMARK VINA RESULT:      -9.9      0.000      0.000
REMARK  Name = 
REMARK  5 active torsions:
REMARK  status: ('A' for Active; 'I' for Inactive)
REMARK    1  A    between atoms: C_1  and  O_2
REMARK    2  A    between atoms: O_2  and  C_3
REMARK    3  A    between atoms: C_12  and  C_13
REMARK    4  A    between atoms: N_15  and  C_16
REMARK    5  A    between atoms: C_19  and  C_20
REMARK                            x       y       z     vdW  Elec       q    Type
REMARK                         _______ _______ _______ _____ _____    ______ ____
ROOT
ATOM      1  C   UNL     1       0.762   9.387  21.041  0.00  0.00    +0.000 A 
ATOM      2  C   UNL     1       0.674  10.658  20.474  0.00  0.00    +0.000 A 
ATOM      3  C   UNL     1      -0.052  11.676  21.100  0.00  0.00    +0.000 A 
ATOM      4  C   UNL     1      -0.709  11.459  22.318  0.00  0.00    +0.000 A 
ATOM      5  C   UNL     1      -0.616  10.190  22.898  0.00  0.00    +0.000 A 
ATOM      6  C   UNL     1       0.115   9.166  22.265  0.00  0.00    +0.000 A 
ENDROOT
BRANCH   4   7
ATOM      7  C   UNL     1      -1.434  12.575  22.913  0.00  0.00    +0.000 A 
ATOM      8  N   UNL     1      -2.719  12.833  22.768  0.00  0.00    +0.000 NA
ATOM      9  C   UNL     1      -2.904  13.991  23.465  0.00  0.00    +0.000 A 
ATOM     10  C   UNL     1      -1.711  14.403  24.032  0.00  0.00    +0.000 A 
ATOM     11  C   UNL     1      -1.571  15.557  24.800  0.00  0.00    +0.000 A 
ATOM     12  C   UNL     1      -2.744  16.313  24.997  0.00  0.00    +0.000 A 
ATOM     13  C   UNL     1      -3.993  15.930  24.455  0.00  0.00    +0.000 A 
ATOM     14  C   UNL     1      -5.192  16.642  24.648  0.00  0.00    +0.000 A 
ATOM     15  C   UNL     1      -6.393  16.198  24.082  0.00  0.00    +0.000 A 
ATOM     16  C   UNL     1      -6.431  15.045  23.295  0.00  0.00    +0.000 A 
ATOM     17  C   UNL     1      -5.266  14.323  23.082  0.00  0.00    +0.000 A 
ATOM     18  C   UNL     1      -4.066  14.757  23.668  0.00  0.00    +0.000 A 
ATOM     19  O   UNL     1      -0.750  13.486  23.683  0.00  0.00    +0.000 OA
ENDBRANCH   4   7
BRANCH   1  22
ATOM     20  C   UNL     1       1.922   8.258  19.134  0.00  0.00    +0.000 C 
ATOM     21  O   UNL     1       1.780   9.158  18.309  0.00  0.00    +0.000 OA
ATOM     22  N   UNL     1       1.465   8.311  20.441  0.00  0.00    +0.000 N 
ATOM     23  H   UNL     1       1.640   7.492  21.014  0.00  0.00    +0.000 HD
BRANCH  20  33
ATOM     24  C   UNL     1       2.538   5.736  19.226  0.00  0.00    +0.000 A 
ATOM     25  C   UNL     1       3.329   4.697  18.695  0.00  0.00    +0.000 A 
ATOM     26  C   UNL     1       4.191   4.900  17.603  0.00  0.00    +0.000 A 
ATOM     27  C   UNL     1       4.966   3.856  17.069  0.00  0.00    +0.000 A 
ATOM     28  C   UNL     1       5.807   4.077  15.977  0.00  0.00    +0.000 A 
ATOM     29  C   UNL     1       5.883   5.342  15.404  0.00  0.00    +0.000 A 
ATOM     30  C   UNL     1       5.122   6.388  15.925  0.00  0.00    +0.000 A 
ATOM     31  C   UNL     1       4.276   6.178  17.026  0.00  0.00    +0.000 A 
ATOM     32  C   UNL     1       3.514   7.218  17.574  0.00  0.00    +0.000 A 
ATOM     33  C   UNL     1       2.651   7.025  18.676  0.00  0.00    +0.000 A 
BRANCH  24  35
ATOM     34  C   UNL     1       1.065   4.244  20.339  0.00  0.00    +0.000 C 
ATOM     35  O   UNL     1       1.672   5.537  20.274  0.00  0.00    +0.000 OA
ENDBRANCH  24  35
ENDBRANCH  20  33
ENDBRANCH   1  22
TORSDOF 4
ENDMDL
MODEL 2
REMARK VINA RESULT:      -9.6      1.347     12.190
REMARK  Name = 
REMARK  5 active torsions:
REMARK  status: ('A' for Active; 'I' for Inactive)
REMARK    1  A    between atoms: C_1  and  O_2
REMARK    2  A    between atoms: O_2  and  C_3
REMARK    3  A    between atoms: C_12  and  C_13
REMARK    4  A    between atoms: N_15  and  C_16
REMARK    5  A    between atoms: C_19  and  C_20
REMARK                            x       y       z     vdW  Elec       q    Type
REMARK                         _______ _______ _______ _____ _____    ______ ____
ROOT
ATOM      1  C   UNL     1       0.140  10.508  20.862  0.00  0.00    +0.000 A 
ATOM      2  C   UNL     1       0.569   9.421  21.623  0.00  0.00    +0.000 A 
ATOM      3  C   UNL     1       1.302   8.380  21.043  0.00  0.00    +0.000 A 
ATOM      4  C   UNL     1       1.636   8.396  19.682  0.00  0.00    +0.000 A 
ATOM      5  C   UNL     1       1.219   9.488  18.915  0.00  0.00    +0.000 A 
ATOM      6  C   UNL     1       0.480  10.534  19.502  0.00  0.00    +0.000 A 
ENDROOT
BRANCH   4   7
ATOM      7  C   UNL     1       2.413   7.281  19.156  0.00  0.00    +0.000 A 
ATOM      8  N   UNL     1       3.170   7.302  18.076  0.00  0.00    +0.000 NA
ATOM      9  C   UNL     1       3.639   6.025  17.977  0.00  0.00    +0.000 A 
ATOM     10  C   UNL     1       3.155   5.255  19.021  0.00  0.00    +0.000 A 
ATOM     11  C   UNL     1       3.448   3.904  19.194  0.00  0.00    +0.000 A 
ATOM     12  C   UNL     1       4.303   3.330  18.231  0.00  0.00    +0.000 A 
ATOM     13  C   UNL     1       4.839   4.073  17.155  0.00  0.00    +0.000 A 
ATOM     14  C   UNL     1       5.716   3.546  16.188  0.00  0.00    +0.000 A 
ATOM     15  C   UNL     1       6.210   4.345  15.150  0.00  0.00    +0.000 A 
ATOM     16  C   UNL     1       5.833   5.685  15.036  0.00  0.00    +0.000 A 
ATOM     17  C   UNL     1       4.968   6.234  15.971  0.00  0.00    +0.000 A 
ATOM     18  C   UNL     1       4.489   5.437  17.023  0.00  0.00    +0.000 A 
ATOM     19  O   UNL     1       2.361   6.065  19.796  0.00  0.00    +0.000 OA
ENDBRANCH   4   7
BRANCH   1  22
ATOM     20  C   UNL     1      -1.331  11.572  22.583  0.00  0.00    +0.000 C 
ATOM     21  O   UNL     1      -1.385  10.617  23.355  0.00  0.00    +0.000 OA
ATOM     22  N   UNL     1      -0.623  11.579  21.392  0.00  0.00    +0.000 N 
ATOM     23  H   UNL     1      -0.674  12.431  20.842  0.00  0.00    +0.000 HD
BRANCH  20  33
ATOM     24  C   UNL     1      -1.531  14.065  23.281  0.00  0.00    +0.000 A 
ATOM     25  C   UNL     1      -2.387  15.113  23.675  0.00  0.00    +0.000 A 
ATOM     26  C   UNL     1      -3.783  14.954  23.729  0.00  0.00    +0.000 A 
ATOM     27  C   UNL     1      -4.634  16.007  24.108  0.00  0.00    +0.000 A 
ATOM     28  C   UNL     1      -6.018  15.829  24.145  0.00  0.00    +0.000 A 
ATOM     29  C   UNL     1      -6.570  14.601  23.801  0.00  0.00    +0.000 A 
ATOM     30  C   UNL     1      -5.738  13.546  23.426  0.00  0.00    +0.000 A 
ATOM     31  C   UNL     1      -4.344  13.712  23.390  0.00  0.00    +0.000 A 
ATOM     32  C   UNL     1      -3.490  12.661  23.030  0.00  0.00    +0.000 A 
ATOM     33  C   UNL     1      -2.086  12.810  22.980  0.00  0.00    +0.000 A 
BRANCH  24  35
ATOM     34  C   UNL     1       0.297  15.024  22.108  0.00  0.00    +0.000 C 
ATOM     35  O   UNL     1      -0.168  14.224  23.198  0.00  0.00    +0.000 OA
ENDBRANCH  24  35
ENDBRANCH  20  33
ENDBRANCH   1  22
TORSDOF 4
ENDMDL
MODEL 3
REMARK VINA RESULT:      -9.5      1.235     12.079
REMARK  Name = 
REMARK  5 active torsions:
REMARK  status: ('A' for Active; 'I' for Inactive)
REMARK    1  A    between atoms: C_1  and  O_2
REMARK    2  A    between atoms: O_2  and  C_3
REMARK    3  A    between atoms: C_12  and  C_13
REMARK    4  A    between atoms: N_15  and  C_16
REMARK    5  A    between atoms: C_19  and  C_20
REMARK                            x       y       z     vdW  Elec       q    Type
REMARK                         _______ _______ _______ _____ _____    ______ ____
ROOT
ATOM      1  C   UNL     1      -0.855  10.827  21.990  0.00  0.00    +0.000 A 
ATOM      2  C   UNL     1      -0.359   9.765  22.744  0.00  0.00    +0.000 A 
ATOM      3  C   UNL     1       0.426   8.768  22.156  0.00  0.00    +0.000 A 
ATOM      4  C   UNL     1       0.747   8.805  20.793  0.00  0.00    +0.000 A 
ATOM      5  C   UNL     1       0.261   9.872  20.031  0.00  0.00    +0.000 A 
ATOM      6  C   UNL     1      -0.530  10.874  20.627  0.00  0.00    +0.000 A 
ENDROOT
BRANCH   4   7
ATOM      7  C   UNL     1       1.581   7.736  20.257  0.00  0.00    +0.000 A 
ATOM      8  N   UNL     1       2.349   7.811  19.188  0.00  0.00    +0.000 NA
ATOM      9  C   UNL     1       2.877   6.558  19.072  0.00  0.00    +0.000 A 
ATOM     10  C   UNL     1       2.417   5.749  20.097  0.00  0.00    +0.000 A 
ATOM     11  C   UNL     1       2.771   4.410  20.251  0.00  0.00    +0.000 A 
ATOM     12  C   UNL     1       3.663   3.893  19.289  0.00  0.00    +0.000 A 
ATOM     13  C   UNL     1       4.176   4.678  18.232  0.00  0.00    +0.000 A 
ATOM     14  C   UNL     1       5.087   4.210  17.267  0.00  0.00    +0.000 A 
ATOM     15  C   UNL     1       5.556   5.049  16.249  0.00  0.00    +0.000 A 
ATOM     16  C   UNL     1       5.118   6.371  16.154  0.00  0.00    +0.000 A 
ATOM     17  C   UNL     1       4.218   6.864  17.086  0.00  0.00    +0.000 A 
ATOM     18  C   UNL     1       3.764   6.027  18.119  0.00  0.00    +0.000 A 
ATOM     19  O   UNL     1       1.578   6.507  20.876  0.00  0.00    +0.000 OA
ENDBRANCH   4   7
BRANCH   1  22
ATOM     20  C   UNL     1      -1.256  13.119  22.908  0.00  0.00    +0.000 C 
ATOM     21  O   UNL     1      -0.100  13.527  22.820  0.00  0.00    +0.000 OA
ATOM     22  N   UNL     1      -1.673  11.853  22.528  0.00  0.00    +0.000 N 
ATOM     23  H   UNL     1      -2.656  11.641  22.667  0.00  0.00    +0.000 HD
BRANCH  20  33
ATOM     24  C   UNL     1      -3.662  13.866  23.539  0.00  0.00    +0.000 A 
ATOM     25  C   UNL     1      -4.480  14.891  24.056  0.00  0.00    +0.000 A 
ATOM     26  C   UNL     1      -3.945  16.097  24.542  0.00  0.00    +0.000 A 
ATOM     27  C   UNL     1      -4.764  17.110  25.070  0.00  0.00    +0.000 A 
ATOM     28  C   UNL     1      -4.210  18.296  25.556  0.00  0.00    +0.000 A 
ATOM     29  C   UNL     1      -2.832  18.483  25.524  0.00  0.00    +0.000 A 
ATOM     30  C   UNL     1      -2.008  17.488  25.000  0.00  0.00    +0.000 A 
ATOM     31  C   UNL     1      -2.555  16.294  24.503  0.00  0.00    +0.000 A 
ATOM     32  C   UNL     1      -1.745  15.288  23.960  0.00  0.00    +0.000 A 
ATOM     33  C   UNL     1      -2.275  14.076  23.463  0.00  0.00    +0.000 A 
BRANCH  24  35
ATOM     34  C   UNL     1      -5.250  12.775  22.150  0.00  0.00    +0.000 C 
ATOM     35  O   UNL     1      -4.178  12.673  23.091  0.00  0.00    +0.000 OA
ENDBRANCH  24  35
ENDBRANCH  20  33
ENDBRANCH   1  22
TORSDOF 4
ENDMDL
MODEL 4
REMARK VINA RESULT:      -9.4      0.855      1.968
REMARK  Name = 
REMARK  5 active torsions:
REMARK  status: ('A' for Active; 'I' for Inactive)
REMARK    1  A    between atoms: C_1  and  O_2
REMARK    2  A    between atoms: O_2  and  C_3
REMARK    3  A    between atoms: C_12  and  C_13
REMARK    4  A    between atoms: N_15  and  C_16
REMARK    5  A    between atoms: C_19  and  C_20
REMARK                            x       y       z     vdW  Elec       q    Type
REMARK                         _______ _______ _______ _____ _____    ______ ____
ROOT
ATOM      1  C   UNL     1       0.768   9.469  21.058  0.00  0.00    +0.000 A 
ATOM      2  C   UNL     1       0.650  10.716  20.447  0.00  0.00    +0.000 A 
ATOM      3  C   UNL     1      -0.091  11.743  21.041  0.00  0.00    +0.000 A 
ATOM      4  C   UNL     1      -0.733  11.557  22.273  0.00  0.00    +0.000 A 
ATOM      5  C   UNL     1      -0.610  10.312  22.897  0.00  0.00    +0.000 A 
ATOM      6  C   UNL     1       0.136   9.281  22.296  0.00  0.00    +0.000 A 
ENDROOT
BRANCH   4   7
ATOM      7  C   UNL     1      -1.474  12.680  22.833  0.00  0.00    +0.000 A 
ATOM      8  N   UNL     1      -0.953  13.748  23.405  0.00  0.00    +0.000 NA
ATOM      9  C   UNL     1      -2.039  14.471  23.804  0.00  0.00    +0.000 A 
ATOM     10  C   UNL     1      -3.206  13.818  23.447  0.00  0.00    +0.000 A 
ATOM     11  C   UNL     1      -4.484  14.301  23.722  0.00  0.00    +0.000 A 
ATOM     12  C   UNL     1      -4.545  15.538  24.395  0.00  0.00    +0.000 A 
ATOM     13  C   UNL     1      -3.386  16.256  24.768  0.00  0.00    +0.000 A 
ATOM     14  C   UNL     1      -3.402  17.505  25.417  0.00  0.00    +0.000 A 
ATOM     15  C   UNL     1      -2.210  18.159  25.753  0.00  0.00    +0.000 A 
ATOM     16  C   UNL     1      -0.972  17.581  25.468  0.00  0.00    +0.000 A 
ATOM     17  C   UNL     1      -0.920  16.349  24.832  0.00  0.00    +0.000 A 
ATOM     18  C   UNL     1      -2.116  15.704  24.477  0.00  0.00    +0.000 A 
ATOM     19  O   UNL     1      -2.849  12.655  22.810  0.00  0.00    +0.000 OA
ENDBRANCH   4   7
BRANCH   1  22
ATOM     20  C   UNL     1       1.910   8.280  19.176  0.00  0.00    +0.000 C 
ATOM     21  O   UNL     1       1.716   9.133  18.312  0.00  0.00    +0.000 OA
ATOM     22  N   UNL     1       1.488   8.386  20.492  0.00  0.00    +0.000 N 
ATOM     23  H   UNL     1       1.704   7.602  21.100  0.00  0.00    +0.000 HD
BRANCH  20  33
ATOM     24  C   UNL     1       2.598   5.783  19.368  0.00  0.00    +0.000 A 
ATOM     25  C   UNL     1       3.407   4.743  18.868  0.00  0.00    +0.000 A 
ATOM     26  C   UNL     1       4.240   4.919  17.749  0.00  0.00    +0.000 A 
ATOM     27  C   UNL     1       5.034   3.874  17.245  0.00  0.00    +0.000 A 
ATOM     28  C   UNL     1       5.846   4.068  16.127  0.00  0.00    +0.000 A 
ATOM     29  C   UNL     1       5.874   5.307  15.496  0.00  0.00    +0.000 A 
ATOM     30  C   UNL     1       5.095   6.355  15.986  0.00  0.00    +0.000 A 
ATOM     31  C   UNL     1       4.278   6.171  17.114  0.00  0.00    +0.000 A 
ATOM     32  C   UNL     1       3.498   7.214  17.630  0.00  0.00    +0.000 A 
ATOM     33  C   UNL     1       2.664   7.048  18.758  0.00  0.00    +0.000 A 
BRANCH  24  35
ATOM     34  C   UNL     1       1.085   4.349  20.504  0.00  0.00    +0.000 C 
ATOM     35  O   UNL     1       1.760   5.608  20.443  0.00  0.00    +0.000 OA
ENDBRANCH  24  35
ENDBRANCH  20  33
ENDBRANCH   1  22
TORSDOF 4
ENDMDL
MODEL 5
REMARK VINA RESULT:      -9.3      1.695      2.587
REMARK  Name = 
REMARK  5 active torsions:
REMARK  status: ('A' for Active; 'I' for Inactive)
REMARK    1  A    between atoms: C_1  and  O_2
REMARK    2  A    between atoms: O_2  and  C_3
REMARK    3  A    between atoms: C_12  and  C_13
REMARK    4  A    between atoms: N_15  and  C_16
REMARK    5  A    between atoms: C_19  and  C_20
REMARK                            x       y       z     vdW  Elec       q    Type
REMARK                         _______ _______ _______ _____ _____    ______ ____
ROOT
ATOM      1  C   UNL     1       1.266   8.872  19.900  0.00  0.00    +0.000 A 
ATOM      2  C   UNL     1       1.069   8.758  21.276  0.00  0.00    +0.000 A 
ATOM      3  C   UNL     1       0.391   9.749  21.991  0.00  0.00    +0.000 A 
ATOM      4  C   UNL     1      -0.120  10.887  21.352  0.00  0.00    +0.000 A 
ATOM      5  C   UNL     1       0.064  11.003  19.971  0.00  0.00    +0.000 A 
ATOM      6  C   UNL     1       0.748  10.003  19.254  0.00  0.00    +0.000 A 
ENDROOT
BRANCH   4   7
ATOM      7  C   UNL     1      -0.825  11.869  22.165  0.00  0.00    +0.000 A 
ATOM      8  N   UNL     1      -0.382  13.066  22.497  0.00  0.00    +0.000 NA
ATOM      9  C   UNL     1      -1.367  13.574  23.293  0.00  0.00    +0.000 A 
ATOM     10  C   UNL     1      -2.401  12.662  23.414  0.00  0.00    +0.000 A 
ATOM     11  C   UNL     1      -3.551  12.884  24.170  0.00  0.00    +0.000 A 
ATOM     12  C   UNL     1      -3.629  14.131  24.822  0.00  0.00    +0.000 A 
ATOM     13  C   UNL     1      -2.611  15.106  24.719  0.00  0.00    +0.000 A 
ATOM     14  C   UNL     1      -2.661  16.372  25.332  0.00  0.00    +0.000 A 
ATOM     15  C   UNL     1      -1.614  17.289  25.181  0.00  0.00    +0.000 A 
ATOM     16  C   UNL     1      -0.481  16.965  24.431  0.00  0.00    +0.000 A 
ATOM     17  C   UNL     1      -0.398  15.724  23.817  0.00  0.00    +0.000 A 
ATOM     18  C   UNL     1      -1.459  14.813  23.951  0.00  0.00    +0.000 A 
ATOM     19  O   UNL     1      -2.060  11.552  22.681  0.00  0.00    +0.000 OA
ENDBRANCH   4   7
BRANCH   1  22
ATOM     20  C   UNL     1       2.205   6.590  19.484  0.00  0.00    +0.000 C 
ATOM     21  O   UNL     1       1.832   6.073  20.535  0.00  0.00    +0.000 OA
ATOM     22  N   UNL     1       1.963   7.908  19.128  0.00  0.00    +0.000 N 
ATOM     23  H   UNL     1       2.339   8.210  18.235  0.00  0.00    +0.000 HD
BRANCH  20  33
ATOM     24  C   UNL     1       2.576   4.449  18.062  0.00  0.00    +0.000 A 
ATOM     25  C   UNL     1       3.436   3.745  17.196  0.00  0.00    +0.000 A 
ATOM     26  C   UNL     1       4.651   4.291  16.747  0.00  0.00    +0.000 A 
ATOM     27  C   UNL     1       5.499   3.590  15.871  0.00  0.00    +0.000 A 
ATOM     28  C   UNL     1       6.696   4.155  15.430  0.00  0.00    +0.000 A 
ATOM     29  C   UNL     1       7.061   5.428  15.855  0.00  0.00    +0.000 A 
ATOM     30  C   UNL     1       6.232   6.134  16.727  0.00  0.00    +0.000 A 
ATOM     31  C   UNL     1       5.028   5.572  17.181  0.00  0.00    +0.000 A 
ATOM     32  C   UNL     1       4.188   6.259  18.068  0.00  0.00    +0.000 A 
ATOM     33  C   UNL     1       2.968   5.715  18.529  0.00  0.00    +0.000 A 
BRANCH  24  35
ATOM     34  C   UNL     1       1.322   2.510  18.617  0.00  0.00    +0.000 C 
ATOM     35  O   UNL     1       1.372   3.932  18.481  0.00  0.00    +0.000 OA
ENDBRANCH  24  35
ENDBRANCH  20  33
ENDBRANCH   1  22
TORSDOF 4
ENDMDL
MODEL 6
REMARK VINA RESULT:      -9.3      1.501     12.072
REMARK  Name = 
REMARK  5 active torsions:
REMARK  status: ('A' for Active; 'I' for Inactive)
REMARK    1  A    between atoms: C_1  and  O_2
REMARK    2  A    between atoms: O_2  and  C_3
REMARK    3  A    between atoms: C_12  and  C_13
REMARK    4  A    between atoms: N_15  and  C_16
REMARK    5  A    between atoms: C_19  and  C_20
REMARK                            x       y       z     vdW  Elec       q    Type
REMARK                         _______ _______ _______ _____ _____    ______ ____
ROOT
ATOM      1  C   UNL     1       0.083  10.675  21.032  0.00  0.00    +0.000 A 
ATOM      2  C   UNL     1       0.515   9.580  21.779  0.00  0.00    +0.000 A 
ATOM      3  C   UNL     1       1.230   8.537  21.182  0.00  0.00    +0.000 A 
ATOM      4  C   UNL     1       1.544   8.558  19.817  0.00  0.00    +0.000 A 
ATOM      5  C   UNL     1       1.124   9.659  19.063  0.00  0.00    +0.000 A 
ATOM      6  C   UNL     1       0.403  10.707  19.667  0.00  0.00    +0.000 A 
ENDROOT
BRANCH   4   7
ATOM      7  C   UNL     1       2.303   7.440  19.273  0.00  0.00    +0.000 A 
ATOM      8  N   UNL     1       3.069   7.470  18.199  0.00  0.00    +0.000 NA
ATOM      9  C   UNL     1       3.514   6.186  18.075  0.00  0.00    +0.000 A 
ATOM     10  C   UNL     1       3.008   5.404  19.099  0.00  0.00    +0.000 A 
ATOM     11  C   UNL     1       3.273   4.044  19.244  0.00  0.00    +0.000 A 
ATOM     12  C   UNL     1       4.125   3.474  18.276  0.00  0.00    +0.000 A 
ATOM     13  C   UNL     1       4.683   4.229  17.220  0.00  0.00    +0.000 A 
ATOM     14  C   UNL     1       5.557   3.707  16.248  0.00  0.00    +0.000 A 
ATOM     15  C   UNL     1       6.075   4.518  15.231  0.00  0.00    +0.000 A 
ATOM     16  C   UNL     1       5.724   5.867  15.144  0.00  0.00    +0.000 A 
ATOM     17  C   UNL     1       4.862   6.413  16.083  0.00  0.00    +0.000 A 
ATOM     18  C   UNL     1       4.360   5.603  17.115  0.00  0.00    +0.000 A 
ATOM     19  O   UNL     1       2.223   6.211  19.885  0.00  0.00    +0.000 OA
ENDBRANCH   4   7
BRANCH   1  22
ATOM     20  C   UNL     1      -1.444  11.707  22.723  0.00  0.00    +0.000 C 
ATOM     21  O   UNL     1      -1.590  10.712  23.430  0.00  0.00    +0.000 OA
ATOM     22  N   UNL     1      -0.663  11.750  21.579  0.00  0.00    +0.000 N 
ATOM     23  H   UNL     1      -0.640  12.634  21.081  0.00  0.00    +0.000 HD
BRANCH  20  33
ATOM     24  C   UNL     1      -3.527  13.242  22.946  0.00  0.00    +0.000 A 
ATOM     25  C   UNL     1      -4.034  14.484  23.378  0.00  0.00    +0.000 A 
ATOM     26  C   UNL     1      -3.231  15.424  24.047  0.00  0.00    +0.000 A 
ATOM     27  C   UNL     1      -3.746  16.655  24.489  0.00  0.00    +0.000 A 
ATOM     28  C   UNL     1      -2.933  17.570  25.161  0.00  0.00    +0.000 A 
ATOM     29  C   UNL     1      -1.598  17.265  25.403  0.00  0.00    +0.000 A 
ATOM     30  C   UNL     1      -1.073  16.049  24.968  0.00  0.00    +0.000 A 
ATOM     31  C   UNL     1      -1.880  15.124  24.286  0.00  0.00    +0.000 A 
ATOM     32  C   UNL     1      -1.369  13.902  23.829  0.00  0.00    +0.000 A 
ATOM     33  C   UNL     1      -2.167  12.955  23.149  0.00  0.00    +0.000 A 
BRANCH  24  35
ATOM     34  C   UNL     1      -4.785  12.666  21.016  0.00  0.00    +0.000 C 
ATOM     35  O   UNL     1      -4.315  12.307  22.317  0.00  0.00    +0.000 OA
ENDBRANCH  24  35
ENDBRANCH  20  33
ENDBRANCH   1  22
TORSDOF 4
ENDMDL
MODEL 7
REMARK VINA RESULT:      -9.3      1.483     12.045
REMARK  Name = 
REMARK  5 active torsions:
REMARK  status: ('A' for Active; 'I' for Inactive)
REMARK    1  A    between atoms: C_1  and  O_2
REMARK    2  A    between atoms: O_2  and  C_3
REMARK    3  A    between atoms: C_12  and  C_13
REMARK    4  A    between atoms: N_15  and  C_16
REMARK    5  A    between atoms: C_19  and  C_20
REMARK                            x       y       z     vdW  Elec       q    Type
REMARK                         _______ _______ _______ _____ _____    ______ ____
ROOT
ATOM      1  C   UNL     1      -0.252  10.391  21.322  0.00  0.00    +0.000 A 
ATOM      2  C   UNL     1       0.028  10.314  19.959  0.00  0.00    +0.000 A 
ATOM      3  C   UNL     1       0.843   9.300  19.447  0.00  0.00    +0.000 A 
ATOM      4  C   UNL     1       1.400   8.323  20.283  0.00  0.00    +0.000 A 
ATOM      5  C   UNL     1       1.114   8.387  21.650  0.00  0.00    +0.000 A 
ATOM      6  C   UNL     1       0.294   9.410  22.162  0.00  0.00    +0.000 A 
ENDROOT
BRANCH   4   7
ATOM      7  C   UNL     1       2.228   7.291  19.671  0.00  0.00    +0.000 A 
ATOM      8  N   UNL     1       2.916   7.408  18.552  0.00  0.00    +0.000 NA
ATOM      9  C   UNL     1       3.475   6.176  18.377  0.00  0.00    +0.000 A 
ATOM     10  C   UNL     1       3.114   5.336  19.416  0.00  0.00    +0.000 A 
ATOM     11  C   UNL     1       3.520   4.007  19.520  0.00  0.00    +0.000 A 
ATOM     12  C   UNL     1       4.358   3.536  18.489  0.00  0.00    +0.000 A 
ATOM     13  C   UNL     1       4.771   4.354  17.414  0.00  0.00    +0.000 A 
ATOM     14  C   UNL     1       5.627   3.931  16.379  0.00  0.00    +0.000 A 
ATOM     15  C   UNL     1       5.996   4.802  15.346  0.00  0.00    +0.000 A 
ATOM     16  C   UNL     1       5.510   6.111  15.306  0.00  0.00    +0.000 A 
ATOM     17  C   UNL     1       4.662   6.558  16.308  0.00  0.00    +0.000 A 
ATOM     18  C   UNL     1       4.309   5.690  17.355  0.00  0.00    +0.000 A 
ATOM     19  O   UNL     1       2.308   6.053  20.265  0.00  0.00    +0.000 OA
ENDBRANCH   4   7
BRANCH   1  22
ATOM     20  C   UNL     1      -0.649  12.700  22.199  0.00  0.00    +0.000 C 
ATOM     21  O   UNL     1       0.479  13.142  21.993  0.00  0.00    +0.000 OA
ATOM     22  N   UNL     1      -1.054  11.409  21.899  0.00  0.00    +0.000 N 
ATOM     23  H   UNL     1      -2.012  11.170  22.133  0.00  0.00    +0.000 HD
BRANCH  20  33
ATOM     24  C   UNL     1      -3.046  13.558  22.713  0.00  0.00    +0.000 A 
ATOM     25  C   UNL     1      -3.835  14.555  23.321  0.00  0.00    +0.000 A 
ATOM     26  C   UNL     1      -3.266  15.604  24.065  0.00  0.00    +0.000 A 
ATOM     27  C   UNL     1      -4.059  16.588  24.682  0.00  0.00    +0.000 A 
ATOM     28  C   UNL     1      -3.474  17.614  25.425  0.00  0.00    +0.000 A 
ATOM     29  C   UNL     1      -2.091  17.671  25.563  0.00  0.00    +0.000 A 
ATOM     30  C   UNL     1      -1.292  16.704  24.954  0.00  0.00    +0.000 A 
ATOM     31  C   UNL     1      -1.870  15.669  24.200  0.00  0.00    +0.000 A 
ATOM     32  C   UNL     1      -1.084  14.696  23.568  0.00  0.00    +0.000 A 
ATOM     33  C   UNL     1      -1.647  13.643  22.813  0.00  0.00    +0.000 A 
BRANCH  24  35
ATOM     34  C   UNL     1      -4.851  12.786  21.377  0.00  0.00    +0.000 C 
ATOM     35  O   UNL     1      -3.598  12.514  22.009  0.00  0.00    +0.000 OA
ENDBRANCH  24  35
ENDBRANCH  20  33
ENDBRANCH   1  22
TORSDOF 4
ENDMDL
MODEL 8
REMARK VINA RESULT:      -9.3      1.483     12.158
REMARK  Name = 
REMARK  5 active torsions:
REMARK  status: ('A' for Active; 'I' for Inactive)
REMARK    1  A    between atoms: C_1  and  O_2
REMARK    2  A    between atoms: O_2  and  C_3
REMARK    3  A    between atoms: C_12  and  C_13
REMARK    4  A    between atoms: N_15  and  C_16
REMARK    5  A    between atoms: C_19  and  C_20
REMARK                            x       y       z     vdW  Elec       q    Type
REMARK                         _______ _______ _______ _____ _____    ______ ____
ROOT
ATOM      1  C   UNL     1       0.371  10.245  21.062  0.00  0.00    +0.000 A 
ATOM      2  C   UNL     1       0.760  10.284  19.724  0.00  0.00    +0.000 A 
ATOM      3  C   UNL     1       1.425   9.204  19.136  0.00  0.00    +0.000 A 
ATOM      4  C   UNL     1       1.717   8.044  19.866  0.00  0.00    +0.000 A 
ATOM      5  C   UNL     1       1.320   7.993  21.205  0.00  0.00    +0.000 A 
ATOM      6  C   UNL     1       0.651   9.083  21.795  0.00  0.00    +0.000 A 
ENDROOT
BRANCH   4   7
ATOM      7  C   UNL     1       2.402   6.957  19.177  0.00  0.00    +0.000 A 
ATOM      8  N   UNL     1       3.273   7.085  18.195  0.00  0.00    +0.000 NA
ATOM      9  C   UNL     1       3.584   5.800  17.861  0.00  0.00    +0.000 A 
ATOM     10  C   UNL     1       2.892   4.914  18.669  0.00  0.00    +0.000 A 
ATOM     11  C   UNL     1       2.991   3.528  18.569  0.00  0.00    +0.000 A 
ATOM     12  C   UNL     1       3.870   3.042  17.580  0.00  0.00    +0.000 A 
ATOM     13  C   UNL     1       4.614   3.900  16.738  0.00  0.00    +0.000 A 
ATOM     14  C   UNL     1       5.520   3.457  15.757  0.00  0.00    +0.000 A 
ATOM     15  C   UNL     1       6.226   4.369  14.962  0.00  0.00    +0.000 A 
ATOM     16  C   UNL     1       6.036   5.744  15.110  0.00  0.00    +0.000 A 
ATOM     17  C   UNL     1       5.147   6.214  16.066  0.00  0.00    +0.000 A 
ATOM     18  C   UNL     1       4.456   5.299  16.877  0.00  0.00    +0.000 A 
ATOM     19  O   UNL     1       2.125   5.657  19.531  0.00  0.00    +0.000 OA
ENDBRANCH   4   7
BRANCH   1  22
ATOM     20  C   UNL     1      -1.384  12.019  21.241  0.00  0.00    +0.000 C 
ATOM     21  O   UNL     1      -1.945  11.793  20.171  0.00  0.00    +0.000 OA
ATOM     22  N   UNL     1      -0.287  11.318  21.716  0.00  0.00    +0.000 N 
ATOM     23  H   UNL     1       0.087  11.617  22.611  0.00  0.00    +0.000 HD
BRANCH  20  33
ATOM     24  C   UNL     1      -1.208  14.079  22.813  0.00  0.00    +0.000 A 
ATOM     25  C   UNL     1      -1.899  15.037  23.582  0.00  0.00    +0.000 A 
ATOM     26  C   UNL     1      -3.304  15.104  23.599  0.00  0.00    +0.000 A 
ATOM     27  C   UNL     1      -3.989  16.070  24.357  0.00  0.00    +0.000 A 
ATOM     28  C   UNL     1      -5.383  16.126  24.352  0.00  0.00    +0.000 A 
ATOM     29  C   UNL     1      -6.112  15.219  23.589  0.00  0.00    +0.000 A 
ATOM     30  C   UNL     1      -5.446  14.252  22.835  0.00  0.00    +0.000 A 
ATOM     31  C   UNL     1      -4.043  14.185  22.837  0.00  0.00    +0.000 A 
ATOM     32  C   UNL     1      -3.356  13.213  22.099  0.00  0.00    +0.000 A 
ATOM     33  C   UNL     1      -1.945  13.133  22.081  0.00  0.00    +0.000 A 
BRANCH  24  35
ATOM     34  C   UNL     1       0.795  14.996  21.926  0.00  0.00    +0.000 C 
ATOM     35  O   UNL     1       0.166  14.028  22.769  0.00  0.00    +0.000 OA
ENDBRANCH  24  35
ENDBRANCH  20  33
ENDBRANCH   1  22
TORSDOF 4
ENDMDL
MODEL 9
REMARK VINA RESULT:      -9.2      1.477     12.049
REMARK  Name = 
REMARK  5 active torsions:
REMARK  status: ('A' for Active; 'I' for Inactive)
REMARK    1  A    between atoms: C_1  and  O_2
REMARK    2  A    between atoms: O_2  and  C_3
REMARK    3  A    between atoms: C_12  and  C_13
REMARK    4  A    between atoms: N_15  and  C_16
REMARK    5  A    between atoms: C_19  and  C_20
REMARK                            x       y       z     vdW  Elec       q    Type
REMARK                         _______ _______ _______ _____ _____    ______ ____
ROOT
ATOM      1  C   UNL     1      -0.830  11.334  21.940  0.00  0.00    +0.000 A 
ATOM      2  C   UNL     1      -0.510  11.159  20.594  0.00  0.00    +0.000 A 
ATOM      3  C   UNL     1       0.216  10.044  20.165  0.00  0.00    +0.000 A 
ATOM      4  C   UNL     1       0.641   9.061  21.069  0.00  0.00    +0.000 A 
ATOM      5  C   UNL     1       0.314   9.224  22.418  0.00  0.00    +0.000 A 
ATOM      6  C   UNL     1      -0.417  10.348  22.847  0.00  0.00    +0.000 A 
ENDROOT
BRANCH   4   7
ATOM      7  C   UNL     1       1.382   7.922  20.542  0.00  0.00    +0.000 A 
ATOM      8  N   UNL     1       2.185   7.934  19.495  0.00  0.00    +0.000 NA
ATOM      9  C   UNL     1       2.592   6.638  19.376  0.00  0.00    +0.000 A 
ATOM     10  C   UNL     1       2.027   5.866  20.376  0.00  0.00    +0.000 A 
ATOM     11  C   UNL     1       2.244   4.497  20.520  0.00  0.00    +0.000 A 
ATOM     12  C   UNL     1       3.109   3.907  19.577  0.00  0.00    +0.000 A 
ATOM     13  C   UNL     1       3.726   4.650  18.546  0.00  0.00    +0.000 A 
ATOM     14  C   UNL     1       4.616   4.106  17.600  0.00  0.00    +0.000 A 
ATOM     15  C   UNL     1       5.193   4.907  16.607  0.00  0.00    +0.000 A 
ATOM     16  C   UNL     1       4.889   6.267  16.519  0.00  0.00    +0.000 A 
ATOM     17  C   UNL     1       4.014   6.834  17.433  0.00  0.00    +0.000 A 
ATOM     18  C   UNL     1       3.451   6.034  18.441  0.00  0.00    +0.000 A 
ATOM     19  O   UNL     1       1.242   6.693  21.142  0.00  0.00    +0.000 OA
ENDBRANCH   4   7
BRANCH   1  22
ATOM     20  C   UNL     1      -2.636  12.419  23.289  0.00  0.00    +0.000 C 
ATOM     21  O   UNL     1      -3.130  11.390  23.746  0.00  0.00    +0.000 OA
ATOM     22  N   UNL     1      -1.546  12.454  22.434  0.00  0.00    +0.000 N 
ATOM     23  H   UNL     1      -1.247  13.372  22.121  0.00  0.00    +0.000 HD
BRANCH  20  33
ATOM     24  C   UNL     1      -4.626  14.059  23.595  0.00  0.00    +0.000 A 
ATOM     25  C   UNL     1      -5.042  15.343  24.000  0.00  0.00    +0.000 A 
ATOM     26  C   UNL     1      -4.148  16.276  24.555  0.00  0.00    +0.000 A 
ATOM     27  C   UNL     1      -4.572  17.550  24.970  0.00  0.00    +0.000 A 
ATOM     28  C   UNL     1      -3.669  18.457  25.528  0.00  0.00    +0.000 A 
ATOM     29  C   UNL     1      -2.333  18.102  25.680  0.00  0.00    +0.000 A 
ATOM     30  C   UNL     1      -1.897  16.843  25.269  0.00  0.00    +0.000 A 
ATOM     31  C   UNL     1      -2.796  15.925  24.702  0.00  0.00    +0.000 A 
ATOM     32  C   UNL     1      -2.377  14.660  24.270  0.00  0.00    +0.000 A 
ATOM     33  C   UNL     1      -3.267  13.719  23.705  0.00  0.00    +0.000 A 
BRANCH  24  35
ATOM     34  C   UNL     1      -6.602  12.784  23.923  0.00  0.00    +0.000 C 
ATOM     35  O   UNL     1      -5.502  13.133  23.080  0.00  0.00    +0.000 OA
ENDBRANCH  24  35
ENDBRANCH  20  33
ENDBRANCH   1  22
TORSDOF 4
ENDMDL
