MODEL 1
REMARK VINA RESULT:      -8.7      0.000      0.000
REMARK  Name = 
REMARK  6 active torsions:
REMARK  status: ('A' for Active; 'I' for Inactive)
REMARK    1  A    between atoms: C_2  and  C_3
REMARK    2  A    between atoms: C_3  and  S_4
REMARK    3  A    between atoms: S_4  and  C_5
REMARK    4  A    between atoms: C_9  and  S_10
REMARK    5  A    between atoms: S_10  and  N_13
REMARK    6  A    between atoms: N_23  and  C_24
REMARK                            x       y       z     vdW  Elec       q    Type
REMARK                         _______ _______ _______ _____ _____    ______ ____
ROOT
ATOM      1  C   UNL     1       1.018   8.751  20.606  0.00  0.00    +0.000 A 
ATOM      2  N   UNL     1       1.540   7.608  21.023  0.00  0.00    +0.000 NA
ATOM      3  C   UNL     1       2.264   7.165  19.942  0.00  0.00    +0.000 A 
ATOM      4  C   UNL     1       3.035   6.006  19.756  0.00  0.00    +0.000 A 
ATOM      5  C   UNL     1       3.671   5.828  18.513  0.00  0.00    +0.000 A 
ATOM      6  C   UNL     1       3.587   6.809  17.510  0.00  0.00    +0.000 A 
ATOM      7  C   UNL     1       2.820   7.971  17.687  0.00  0.00    +0.000 A 
ATOM      8  C   UNL     1       2.178   8.087  18.914  0.00  0.00    +0.000 A 
ATOM      9  O   UNL     1       1.376   9.105  19.332  0.00  0.00    +0.000 OA
ENDROOT
BRANCH   5  10
ATOM     10  S   UNL     1       4.777   4.435  18.289  0.00  0.00    +0.000 S 
ATOM     11  O   UNL     1       5.393   4.608  16.989  0.00  0.00    +0.000 OA
ATOM     12  O   UNL     1       5.586   4.354  19.484  0.00  0.00    +0.000 OA
BRANCH  10  13
ATOM     13  N   UNL     1       3.820   3.050  18.217  0.00  0.00    +0.000 NA
ATOM     14  C   UNL     1       2.596   3.020  17.380  0.00  0.00    +0.000 C 
ATOM     15  C   UNL     1       1.374   3.396  18.220  0.00  0.00    +0.000 C 
ATOM     16  O   UNL     1       1.244   2.557  19.379  0.00  0.00    +0.000 OA
ATOM     17  C   UNL     1       2.424   2.556  20.198  0.00  0.00    +0.000 C 
ATOM     18  C   UNL     1       3.672   2.171  19.400  0.00  0.00    +0.000 C 
ENDBRANCH  10  13
ENDBRANCH   5  10
BRANCH   1  19
ATOM     19  S   UNL     1      -0.039   9.737  21.571  0.00  0.00    +0.000 S 
BRANCH  19  20
ATOM     20  C   UNL     1       0.393  11.392  20.969  0.00  0.00    +0.000 C 
BRANCH  20  22
ATOM     21  O   UNL     1      -0.188  12.761  19.094  0.00  0.00    +0.000 OA
ATOM     22  C   UNL     1      -0.384  11.711  19.697  0.00  0.00    +0.000 C 
ATOM     23  N   UNL     1      -1.325  10.751  19.378  0.00  0.00    +0.000 N 
ATOM     24  H   UNL     1      -1.634  10.152  20.145  0.00  0.00    +0.000 HD
BRANCH  23  25
ATOM     25  C   UNL     1      -2.166  10.750  18.236  0.00  0.00    +0.000 A 
ATOM     26  C   UNL     1      -1.917  10.063  17.048  0.00  0.00    +0.000 A 
ATOM     27  F   UNL     1      -0.883   9.224  16.919  0.00  0.00    +0.000 F 
ATOM     28  C   UNL     1      -2.798  10.154  15.965  0.00  0.00    +0.000 A 
ATOM     29  C   UNL     1      -3.959  10.921  16.061  0.00  0.00    +0.000 A 
ATOM     30  C   UNL     1      -4.246  11.578  17.253  0.00  0.00    +0.000 A 
ATOM     31  C   UNL     1      -3.361  11.478  18.325  0.00  0.00    +0.000 A 
ATOM     32  F   UNL     1      -3.667  12.110  19.466  0.00  0.00    +0.000 F 
ENDBRANCH  23  25
ENDBRANCH  20  22
ENDBRANCH  19  20
ENDBRANCH   1  19
TORSDOF 6
ENDMDL
MODEL 2
REMARK VINA RESULT:      -8.7      1.871      3.016
REMARK  Name = 
REMARK  6 active torsions:
REMARK  status: ('A' for Active; 'I' for Inactive)
REMARK    1  A    between atoms: C_2  and  C_3
REMARK    2  A    between atoms: C_3  and  S_4
REMARK    3  A    between atoms: S_4  and  C_5
REMARK    4  A    between atoms: C_9  and  S_10
REMARK    5  A    between atoms: S_10  and  N_13
REMARK    6  A    between atoms: N_23  and  C_24
REMARK                            x       y       z     vdW  Elec       q    Type
REMARK                         _______ _______ _______ _____ _____    ______ ____
ROOT
ATOM      1  C   UNL     1       0.578   9.424  20.828  0.00  0.00    +0.000 A 
ATOM      2  N   UNL     1       1.069   8.238  21.152  0.00  0.00    +0.000 NA
ATOM      3  C   UNL     1       1.772   7.858  20.034  0.00  0.00    +0.000 A 
ATOM      4  C   UNL     1       2.507   6.694  19.753  0.00  0.00    +0.000 A 
ATOM      5  C   UNL     1       3.126   6.593  18.493  0.00  0.00    +0.000 A 
ATOM      6  C   UNL     1       3.064   7.649  17.568  0.00  0.00    +0.000 A 
ATOM      7  C   UNL     1       2.332   8.816  17.840  0.00  0.00    +0.000 A 
ATOM      8  C   UNL     1       1.704   8.857  19.079  0.00  0.00    +0.000 A 
ATOM      9  O   UNL     1       0.936   9.863  19.581  0.00  0.00    +0.000 OA
ENDROOT
BRANCH   5  10
ATOM     10  S   UNL     1       4.190   5.189  18.154  0.00  0.00    +0.000 S 
ATOM     11  O   UNL     1       4.624   4.686  19.441  0.00  0.00    +0.000 OA
ATOM     12  O   UNL     1       3.470   4.338  17.234  0.00  0.00    +0.000 OA
BRANCH  10  13
ATOM     13  N   UNL     1       5.550   5.781  17.356  0.00  0.00    +0.000 NA
ATOM     14  C   UNL     1       5.751   5.521  15.910  0.00  0.00    +0.000 C 
ATOM     15  C   UNL     1       6.611   4.272  15.714  0.00  0.00    +0.000 C 
ATOM     16  O   UNL     1       7.863   4.369  16.412  0.00  0.00    +0.000 OA
ATOM     17  C   UNL     1       7.695   4.638  17.813  0.00  0.00    +0.000 C 
ATOM     18  C   UNL     1       6.851   5.890  18.057  0.00  0.00    +0.000 C 
ENDBRANCH  10  13
ENDBRANCH   5  10
BRANCH   1  19
ATOM     19  S   UNL     1      -0.442  10.364  21.875  0.00  0.00    +0.000 S 
BRANCH  19  20
ATOM     20  C   UNL     1      -0.118  12.037  21.256  0.00  0.00    +0.000 C 
BRANCH  20  22
ATOM     21  O   UNL     1      -1.032  13.456  19.560  0.00  0.00    +0.000 OA
ATOM     22  C   UNL     1      -0.988  12.328  20.039  0.00  0.00    +0.000 C 
ATOM     23  N   UNL     1      -1.725  11.236  19.622  0.00  0.00    +0.000 N 
ATOM     24  H   UNL     1      -1.878  10.504  20.318  0.00  0.00    +0.000 HD
BRANCH  23  25
ATOM     25  C   UNL     1      -2.588  11.188  18.498  0.00  0.00    +0.000 A 
ATOM     26  C   UNL     1      -3.861  11.755  18.429  0.00  0.00    +0.000 A 
ATOM     27  F   UNL     1      -4.349  12.519  19.414  0.00  0.00    +0.000 F 
ATOM     28  C   UNL     1      -4.647  11.623  17.280  0.00  0.00    +0.000 A 
ATOM     29  C   UNL     1      -4.163  10.935  16.167  0.00  0.00    +0.000 A 
ATOM     30  C   UNL     1      -2.879  10.401  16.201  0.00  0.00    +0.000 A 
ATOM     31  C   UNL     1      -2.105  10.541  17.352  0.00  0.00    +0.000 A 
ATOM     32  F   UNL     1      -0.867  10.027  17.354  0.00  0.00    +0.000 F 
ENDBRANCH  23  25
ENDBRANCH  20  22
ENDBRANCH  19  20
ENDBRANCH   1  19
TORSDOF 6
ENDMDL
MODEL 3
REMARK VINA RESULT:      -8.3      1.906      3.248
REMARK  Name = 
REMARK  6 active torsions:
REMARK  status: ('A' for Active; 'I' for Inactive)
REMARK    1  A    between atoms: C_2  and  C_3
REMARK    2  A    between atoms: C_3  and  S_4
REMARK    3  A    between atoms: S_4  and  C_5
REMARK    4  A    between atoms: C_9  and  S_10
REMARK    5  A    between atoms: S_10  and  N_13
REMARK    6  A    between atoms: N_23  and  C_24
REMARK                            x       y       z     vdW  Elec       q    Type
REMARK                         _______ _______ _______ _____ _____    ______ ____
ROOT
ATOM      1  C   UNL     1       1.051   8.818  20.586  0.00  0.00    +0.000 A 
ATOM      2  N   UNL     1       1.931   8.661  19.610  0.00  0.00    +0.000 NA
ATOM      3  C   UNL     1       2.247   7.324  19.665  0.00  0.00    +0.000 A 
ATOM      4  C   UNL     1       3.132   6.549  18.898  0.00  0.00    +0.000 A 
ATOM      5  C   UNL     1       3.240   5.179  19.199  0.00  0.00    +0.000 A 
ATOM      6  C   UNL     1       2.442   4.591  20.196  0.00  0.00    +0.000 A 
ATOM      7  C   UNL     1       1.555   5.357  20.967  0.00  0.00    +0.000 A 
ATOM      8  C   UNL     1       1.508   6.713  20.662  0.00  0.00    +0.000 A 
ATOM      9  O   UNL     1       0.742   7.666  21.260  0.00  0.00    +0.000 OA
ENDROOT
BRANCH   5  10
ATOM     10  S   UNL     1       4.250   4.132  18.150  0.00  0.00    +0.000 S 
ATOM     11  O   UNL     1       5.039   3.304  19.040  0.00  0.00    +0.000 OA
ATOM     12  O   UNL     1       3.357   3.533  17.183  0.00  0.00    +0.000 OA
BRANCH  10  13
ATOM     13  N   UNL     1       5.312   5.141  17.319  0.00  0.00    +0.000 NA
ATOM     14  C   UNL     1       5.413   5.079  15.841  0.00  0.00    +0.000 C 
ATOM     15  C   UNL     1       6.542   4.133  15.429  0.00  0.00    +0.000 C 
ATOM     16  O   UNL     1       7.794   4.501  16.029  0.00  0.00    +0.000 OA
ATOM     17  C   UNL     1       7.718   4.584  17.461  0.00  0.00    +0.000 C 
ATOM     18  C   UNL     1       6.609   5.533  17.920  0.00  0.00    +0.000 C 
ENDBRANCH  10  13
ENDBRANCH   5  10
BRANCH   1  19
ATOM     19  S   UNL     1       0.333  10.346  21.001  0.00  0.00    +0.000 S 
BRANCH  19  20
ATOM     20  C   UNL     1       0.842  11.359  19.586  0.00  0.00    +0.000 C 
BRANCH  20  22
ATOM     21  O   UNL     1      -0.329  12.990  18.285  0.00  0.00    +0.000 OA
ATOM     22  C   UNL     1      -0.382  11.911  18.865  0.00  0.00    +0.000 C 
ATOM     23  N   UNL     1      -1.503  11.115  19.006  0.00  0.00    +0.000 N 
ATOM     24  H   UNL     1      -1.504  10.476  19.802  0.00  0.00    +0.000 HD
BRANCH  23  25
ATOM     25  C   UNL     1      -2.772  11.345  18.417  0.00  0.00    +0.000 A 
ATOM     26  C   UNL     1      -3.851  11.977  19.038  0.00  0.00    +0.000 A 
ATOM     27  F   UNL     1      -3.740  12.542  20.246  0.00  0.00    +0.000 F 
ATOM     28  C   UNL     1      -5.076  12.126  18.378  0.00  0.00    +0.000 A 
ATOM     29  C   UNL     1      -5.236  11.662  17.073  0.00  0.00    +0.000 A 
ATOM     30  C   UNL     1      -4.158  11.069  16.422  0.00  0.00    +0.000 A 
ATOM     31  C   UNL     1      -2.944  10.928  17.090  0.00  0.00    +0.000 A 
ATOM     32  F   UNL     1      -1.918  10.365  16.436  0.00  0.00    +0.000 F 
ENDBRANCH  23  25
ENDBRANCH  20  22
ENDBRANCH  19  20
ENDBRANCH   1  19
TORSDOF 6
ENDMDL
MODEL 4
REMARK VINA RESULT:      -8.3      2.084      2.828
REMARK  Name = 
REMARK  6 active torsions:
REMARK  status: ('A' for Active; 'I' for Inactive)
REMARK    1  A    between atoms: C_2  and  C_3
REMARK    2  A    between atoms: C_3  and  S_4
REMARK    3  A    between atoms: S_4  and  C_5
REMARK    4  A    between atoms: C_9  and  S_10
REMARK    5  A    between atoms: S_10  and  N_13
REMARK    6  A    between atoms: N_23  and  C_24
REMARK                            x       y       z     vdW  Elec       q    Type
REMARK                         _______ _______ _______ _____ _____    ______ ____
ROOT
ATOM      1  C   UNL     1       0.421   9.952  20.942  0.00  0.00    +0.000 A 
ATOM      2  N   UNL     1       0.933   8.778  21.275  0.00  0.00    +0.000 NA
ATOM      3  C   UNL     1       1.536   8.343  20.119  0.00  0.00    +0.000 A 
ATOM      4  C   UNL     1       2.239   7.163  19.828  0.00  0.00    +0.000 A 
ATOM      5  C   UNL     1       2.749   7.001  18.527  0.00  0.00    +0.000 A 
ATOM      6  C   UNL     1       2.613   8.018  17.565  0.00  0.00    +0.000 A 
ATOM      7  C   UNL     1       1.913   9.201  17.846  0.00  0.00    +0.000 A 
ATOM      8  C   UNL     1       1.393   9.301  19.131  0.00  0.00    +0.000 A 
ATOM      9  O   UNL     1       0.674  10.334  19.651  0.00  0.00    +0.000 OA
ENDROOT
BRANCH   5  10
ATOM     10  S   UNL     1       3.773   5.576  18.160  0.00  0.00    +0.000 S 
ATOM     11  O   UNL     1       4.518   5.287  19.369  0.00  0.00    +0.000 OA
ATOM     12  O   UNL     1       2.903   4.581  17.575  0.00  0.00    +0.000 OA
BRANCH  10  13
ATOM     13  N   UNL     1       4.881   6.052  16.984  0.00  0.00    +0.000 NA
ATOM     14  C   UNL     1       5.247   5.137  15.876  0.00  0.00    +0.000 C 
ATOM     15  C   UNL     1       6.505   4.345  16.240  0.00  0.00    +0.000 C 
ATOM     16  O   UNL     1       7.596   5.208  16.595  0.00  0.00    +0.000 OA
ATOM     17  C   UNL     1       7.261   6.117  17.656  0.00  0.00    +0.000 C 
ATOM     18  C   UNL     1       6.015   6.942  17.328  0.00  0.00    +0.000 C 
ENDBRANCH  10  13
ENDBRANCH   5  10
BRANCH   1  19
ATOM     19  S   UNL     1      -0.502  10.945  22.029  0.00  0.00    +0.000 S 
BRANCH  19  20
ATOM     20  C   UNL     1      -0.234  12.586  21.305  0.00  0.00    +0.000 C 
BRANCH  20  22
ATOM     21  O   UNL     1      -0.823  13.662  19.250  0.00  0.00    +0.000 OA
ATOM     22  C   UNL     1      -1.045  12.736  20.023  0.00  0.00    +0.000 C 
ATOM     23  N   UNL     1      -2.043  11.789  19.896  0.00  0.00    +0.000 N 
ATOM     24  H   UNL     1      -2.350  11.340  20.760  0.00  0.00    +0.000 HD
BRANCH  23  25
ATOM     25  C   UNL     1      -2.928  11.648  18.797  0.00  0.00    +0.000 A 
ATOM     26  C   UNL     1      -2.597  11.103  17.555  0.00  0.00    +0.000 A 
ATOM     27  F   UNL     1      -1.405  10.542  17.324  0.00  0.00    +0.000 F 
ATOM     28  C   UNL     1      -3.539  11.039  16.522  0.00  0.00    +0.000 A 
ATOM     29  C   UNL     1      -4.839  11.503  16.722  0.00  0.00    +0.000 A 
ATOM     30  C   UNL     1      -5.200  12.009  17.967  0.00  0.00    +0.000 A 
ATOM     31  C   UNL     1      -4.253  12.066  18.988  0.00  0.00    +0.000 A 
ATOM     32  F   UNL     1      -4.629  12.547  20.181  0.00  0.00    +0.000 F 
ENDBRANCH  23  25
ENDBRANCH  20  22
ENDBRANCH  19  20
ENDBRANCH   1  19
TORSDOF 6
ENDMDL
MODEL 5
REMARK VINA RESULT:      -8.2      2.128      2.774
REMARK  Name = 
REMARK  6 active torsions:
REMARK  status: ('A' for Active; 'I' for Inactive)
REMARK    1  A    between atoms: C_2  and  C_3
REMARK    2  A    between atoms: C_3  and  S_4
REMARK    3  A    between atoms: S_4  and  C_5
REMARK    4  A    between atoms: C_9  and  S_10
REMARK    5  A    between atoms: S_10  and  N_13
REMARK    6  A    between atoms: N_23  and  C_24
REMARK                            x       y       z     vdW  Elec       q    Type
REMARK                         _______ _______ _______ _____ _____    ______ ____
ROOT
ATOM      1  C   UNL     1       0.678  10.816  19.725  0.00  0.00    +0.000 A 
ATOM      2  N   UNL     1       0.798   9.802  20.567  0.00  0.00    +0.000 NA
ATOM      3  C   UNL     1       1.483   8.855  19.844  0.00  0.00    +0.000 A 
ATOM      4  C   UNL     1       1.904   7.558  20.181  0.00  0.00    +0.000 A 
ATOM      5  C   UNL     1       2.599   6.816  19.208  0.00  0.00    +0.000 A 
ATOM      6  C   UNL     1       2.917   7.378  17.959  0.00  0.00    +0.000 A 
ATOM      7  C   UNL     1       2.502   8.673  17.614  0.00  0.00    +0.000 A 
ATOM      8  C   UNL     1       1.784   9.355  18.589  0.00  0.00    +0.000 A 
ATOM      9  O   UNL     1       1.267  10.611  18.505  0.00  0.00    +0.000 OA
ENDROOT
BRANCH   5  10
ATOM     10  S   UNL     1       3.276   5.215  19.649  0.00  0.00    +0.000 S 
ATOM     11  O   UNL     1       4.718   5.355  19.601  0.00  0.00    +0.000 OA
ATOM     12  O   UNL     1       2.615   4.809  20.869  0.00  0.00    +0.000 OA
BRANCH  10  13
ATOM     13  N   UNL     1       2.830   4.137  18.434  0.00  0.00    +0.000 NA
ATOM     14  C   UNL     1       1.402   3.820  18.192  0.00  0.00    +0.000 C 
ATOM     15  C   UNL     1       1.002   2.565  18.969  0.00  0.00    +0.000 C 
ATOM     16  O   UNL     1       1.851   1.449  18.657  0.00  0.00    +0.000 OA
ATOM     17  C   UNL     1       3.242   1.737  18.868  0.00  0.00    +0.000 C 
ATOM     18  C   UNL     1       3.692   2.980  18.096  0.00  0.00    +0.000 C 
ENDBRANCH  10  13
ENDBRANCH   5  10
BRANCH   1  19
ATOM     19  S   UNL     1      -0.154  12.294  20.107  0.00  0.00    +0.000 S 
BRANCH  19  20
ATOM     20  C   UNL     1      -1.072  12.576  18.569  0.00  0.00    +0.000 C 
BRANCH  20  22
ATOM     21  O   UNL     1      -2.440  10.642  18.233  0.00  0.00    +0.000 OA
ATOM     22  C   UNL     1      -2.391  11.813  18.593  0.00  0.00    +0.000 C 
ATOM     23  N   UNL     1      -3.464  12.590  18.985  0.00  0.00    +0.000 N 
ATOM     24  H   UNL     1      -3.348  13.600  18.885  0.00  0.00    +0.000 HD
BRANCH  23  25
ATOM     25  C   UNL     1      -4.803  12.150  19.144  0.00  0.00    +0.000 A 
ATOM     26  C   UNL     1      -5.631  11.689  18.120  0.00  0.00    +0.000 A 
ATOM     27  F   UNL     1      -5.180  11.508  16.873  0.00  0.00    +0.000 F 
ATOM     28  C   UNL     1      -6.952  11.307  18.378  0.00  0.00    +0.000 A 
ATOM     29  C   UNL     1      -7.462  11.361  19.675  0.00  0.00    +0.000 A 
ATOM     30  C   UNL     1      -6.638  11.776  20.716  0.00  0.00    +0.000 A 
ATOM     31  C   UNL     1      -5.324  12.152  20.445  0.00  0.00    +0.000 A 
ATOM     32  F   UNL     1      -4.547  12.537  21.468  0.00  0.00    +0.000 F 
ENDBRANCH  23  25
ENDBRANCH  20  22
ENDBRANCH  19  20
ENDBRANCH   1  19
TORSDOF 6
ENDMDL
MODEL 6
REMARK VINA RESULT:      -8.2      0.696      1.666
REMARK  Name = 
REMARK  6 active torsions:
REMARK  status: ('A' for Active; 'I' for Inactive)
REMARK    1  A    between atoms: C_2  and  C_3
REMARK    2  A    between atoms: C_3  and  S_4
REMARK    3  A    between atoms: S_4  and  C_5
REMARK    4  A    between atoms: C_9  and  S_10
REMARK    5  A    between atoms: S_10  and  N_13
REMARK    6  A    between atoms: N_23  and  C_24
REMARK                            x       y       z     vdW  Elec       q    Type
REMARK                         _______ _______ _______ _____ _____    ______ ____
ROOT
ATOM      1  C   UNL     1       1.096   8.879  20.234  0.00  0.00    +0.000 A 
ATOM      2  N   UNL     1       1.578   7.760  20.750  0.00  0.00    +0.000 NA
ATOM      3  C   UNL     1       2.329   7.225  19.731  0.00  0.00    +0.000 A 
ATOM      4  C   UNL     1       3.080   6.040  19.657  0.00  0.00    +0.000 A 
ATOM      5  C   UNL     1       3.753   5.759  18.454  0.00  0.00    +0.000 A 
ATOM      6  C   UNL     1       3.726   6.667  17.380  0.00  0.00    +0.000 A 
ATOM      7  C   UNL     1       2.980   7.853  17.445  0.00  0.00    +0.000 A 
ATOM      8  C   UNL     1       2.299   8.072  18.637  0.00  0.00    +0.000 A 
ATOM      9  O   UNL     1       1.506   9.132  18.951  0.00  0.00    +0.000 OA
ENDROOT
BRANCH   5  10
ATOM     10  S   UNL     1       4.836   4.332  18.371  0.00  0.00    +0.000 S 
ATOM     11  O   UNL     1       5.449   4.361  17.059  0.00  0.00    +0.000 OA
ATOM     12  O   UNL     1       5.648   4.360  19.566  0.00  0.00    +0.000 OA
BRANCH  10  13
ATOM     13  N   UNL     1       3.856   2.964  18.443  0.00  0.00    +0.000 NA
ATOM     14  C   UNL     1       2.663   2.842  17.571  0.00  0.00    +0.000 C 
ATOM     15  C   UNL     1       1.418   3.342  18.308  0.00  0.00    +0.000 C 
ATOM     16  O   UNL     1       1.229   2.664  19.560  0.00  0.00    +0.000 OA
ATOM     17  C   UNL     1       2.379   2.754  20.416  0.00  0.00    +0.000 C 
ATOM     18  C   UNL     1       3.647   2.249  19.725  0.00  0.00    +0.000 C 
ENDBRANCH  10  13
ENDBRANCH   5  10
BRANCH   1  19
ATOM     19  S   UNL     1       0.029   9.954  21.086  0.00  0.00    +0.000 S 
BRANCH  19  20
ATOM     20  C   UNL     1       0.463  11.542  20.326  0.00  0.00    +0.000 C 
BRANCH  20  22
ATOM     21  O   UNL     1      -0.839  13.357  19.469  0.00  0.00    +0.000 OA
ATOM     22  C   UNL     1      -0.751  12.144  19.630  0.00  0.00    +0.000 C 
ATOM     23  N   UNL     1      -1.707  11.206  19.292  0.00  0.00    +0.000 N 
ATOM     24  H   UNL     1      -1.678  10.327  19.811  0.00  0.00    +0.000 HD
BRANCH  23  25
ATOM     25  C   UNL     1      -2.920  11.457  18.601  0.00  0.00    +0.000 A 
ATOM     26  C   UNL     1      -4.058  12.048  19.151  0.00  0.00    +0.000 A 
ATOM     27  F   UNL     1      -4.066  12.550  20.392  0.00  0.00    +0.000 F 
ATOM     28  C   UNL     1      -5.219  12.222  18.390  0.00  0.00    +0.000 A 
ATOM     29  C   UNL     1      -5.253  11.826  17.053  0.00  0.00    +0.000 A 
ATOM     30  C   UNL     1      -4.114  11.276  16.475  0.00  0.00    +0.000 A 
ATOM     31  C   UNL     1      -2.964  11.109  17.244  0.00  0.00    +0.000 A 
ATOM     32  F   UNL     1      -1.876  10.587  16.660  0.00  0.00    +0.000 F 
ENDBRANCH  23  25
ENDBRANCH  20  22
ENDBRANCH  19  20
ENDBRANCH   1  19
TORSDOF 6
ENDMDL
MODEL 7
REMARK VINA RESULT:      -8.1      1.485      2.454
REMARK  Name = 
REMARK  6 active torsions:
REMARK  status: ('A' for Active; 'I' for Inactive)
REMARK    1  A    between atoms: C_2  and  C_3
REMARK    2  A    between atoms: C_3  and  S_4
REMARK    3  A    between atoms: S_4  and  C_5
REMARK    4  A    between atoms: C_9  and  S_10
REMARK    5  A    between atoms: S_10  and  N_13
REMARK    6  A    between atoms: N_23  and  C_24
REMARK                            x       y       z     vdW  Elec       q    Type
REMARK                         _______ _______ _______ _____ _____    ______ ____
ROOT
ATOM      1  C   UNL     1       0.240  10.066  21.263  0.00  0.00    +0.000 A 
ATOM      2  N   UNL     1       0.759   8.911  21.648  0.00  0.00    +0.000 NA
ATOM      3  C   UNL     1       1.352   8.421  20.509  0.00  0.00    +0.000 A 
ATOM      4  C   UNL     1       2.056   7.230  20.270  0.00  0.00    +0.000 A 
ATOM      5  C   UNL     1       2.554   7.006  18.973  0.00  0.00    +0.000 A 
ATOM      6  C   UNL     1       2.405   7.973  17.963  0.00  0.00    +0.000 A 
ATOM      7  C   UNL     1       1.704   9.167  18.193  0.00  0.00    +0.000 A 
ATOM      8  C   UNL     1       1.196   9.329  19.476  0.00  0.00    +0.000 A 
ATOM      9  O   UNL     1       0.479  10.384  19.952  0.00  0.00    +0.000 OA
ENDROOT
BRANCH   5  10
ATOM     10  S   UNL     1       3.578   5.567  18.667  0.00  0.00    +0.000 S 
ATOM     11  O   UNL     1       3.773   5.502  17.233  0.00  0.00    +0.000 OA
ATOM     12  O   UNL     1       4.710   5.667  19.561  0.00  0.00    +0.000 OA
BRANCH  10  13
ATOM     13  N   UNL     1       2.680   4.215  19.118  0.00  0.00    +0.000 NA
ATOM     14  C   UNL     1       3.145   3.330  20.213  0.00  0.00    +0.000 C 
ATOM     15  C   UNL     1       3.956   2.165  19.641  0.00  0.00    +0.000 C 
ATOM     16  O   UNL     1       3.216   1.435  18.649  0.00  0.00    +0.000 OA
ATOM     17  C   UNL     1       2.740   2.275  17.585  0.00  0.00    +0.000 C 
ATOM     18  C   UNL     1       1.910   3.447  18.111  0.00  0.00    +0.000 C 
ENDBRANCH  10  13
ENDBRANCH   5  10
BRANCH   1  19
ATOM     19  S   UNL     1      -0.675  11.110  22.309  0.00  0.00    +0.000 S 
BRANCH  19  20
ATOM     20  C   UNL     1      -0.329  12.727  21.566  0.00  0.00    +0.000 C 
BRANCH  20  22
ATOM     21  O   UNL     1      -1.273  14.075  19.829  0.00  0.00    +0.000 OA
ATOM     22  C   UNL     1      -1.315  13.013  20.440  0.00  0.00    +0.000 C 
ATOM     23  N   UNL     1      -2.246  12.007  20.262  0.00  0.00    +0.000 N 
ATOM     24  H   UNL     1      -2.397  11.388  21.060  0.00  0.00    +0.000 HD
BRANCH  23  25
ATOM     25  C   UNL     1      -3.258  11.970  19.270  0.00  0.00    +0.000 A 
ATOM     26  C   UNL     1      -4.579  12.388  19.443  0.00  0.00    +0.000 A 
ATOM     27  F   UNL     1      -4.989  12.988  20.566  0.00  0.00    +0.000 F 
ATOM     28  C   UNL     1      -5.511  12.278  18.406  0.00  0.00    +0.000 A 
ATOM     29  C   UNL     1      -5.131  11.765  17.166  0.00  0.00    +0.000 A 
ATOM     30  C   UNL     1      -3.809  11.384  16.961  0.00  0.00    +0.000 A 
ATOM     31  C   UNL     1      -2.890  11.500  18.001  0.00  0.00    +0.000 A 
ATOM     32  F   UNL     1      -1.620  11.137  17.774  0.00  0.00    +0.000 F 
ENDBRANCH  23  25
ENDBRANCH  20  22
ENDBRANCH  19  20
ENDBRANCH   1  19
TORSDOF 6
ENDMDL
MODEL 8
REMARK VINA RESULT:      -8.1      2.276      3.394
REMARK  Name = 
REMARK  6 active torsions:
REMARK  status: ('A' for Active; 'I' for Inactive)
REMARK    1  A    between atoms: C_2  and  C_3
REMARK    2  A    between atoms: C_3  and  S_4
REMARK    3  A    between atoms: S_4  and  C_5
REMARK    4  A    between atoms: C_9  and  S_10
REMARK    5  A    between atoms: S_10  and  N_13
REMARK    6  A    between atoms: N_23  and  C_24
REMARK                            x       y       z     vdW  Elec       q    Type
REMARK                         _______ _______ _______ _____ _____    ______ ____
ROOT
ATOM      1  C   UNL     1       0.800   9.182  20.171  0.00  0.00    +0.000 A 
ATOM      2  N   UNL     1       1.659   8.933  19.195  0.00  0.00    +0.000 NA
ATOM      3  C   UNL     1       2.063   7.641  19.436  0.00  0.00    +0.000 A 
ATOM      4  C   UNL     1       2.973   6.814  18.759  0.00  0.00    +0.000 A 
ATOM      5  C   UNL     1       3.180   5.514  19.256  0.00  0.00    +0.000 A 
ATOM      6  C   UNL     1       2.452   5.036  20.360  0.00  0.00    +0.000 A 
ATOM      7  C   UNL     1       1.540   5.855  21.043  0.00  0.00    +0.000 A 
ATOM      8  C   UNL     1       1.396   7.144  20.542  0.00  0.00    +0.000 A 
ATOM      9  O   UNL     1       0.587   8.129  21.020  0.00  0.00    +0.000 OA
ENDROOT
BRANCH   5  10
ATOM     10  S   UNL     1       4.224   4.383  18.336  0.00  0.00    +0.000 S 
ATOM     11  O   UNL     1       4.973   3.628  19.320  0.00  0.00    +0.000 OA
ATOM     12  O   UNL     1       3.367   3.710  17.386  0.00  0.00    +0.000 OA
BRANCH  10  13
ATOM     13  N   UNL     1       5.324   5.319  17.470  0.00  0.00    +0.000 NA
ATOM     14  C   UNL     1       5.410   5.211  15.993  0.00  0.00    +0.000 C 
ATOM     15  C   UNL     1       6.493   4.203  15.601  0.00  0.00    +0.000 C 
ATOM     16  O   UNL     1       7.764   4.531  16.182  0.00  0.00    +0.000 OA
ATOM     17  C   UNL     1       7.704   4.657  17.612  0.00  0.00    +0.000 C 
ATOM     18  C   UNL     1       6.642   5.668  18.050  0.00  0.00    +0.000 C 
ENDBRANCH  10  13
ENDBRANCH   5  10
BRANCH   1  19
ATOM     19  S   UNL     1      -0.003  10.710  20.382  0.00  0.00    +0.000 S 
BRANCH  19  20
ATOM     20  C   UNL     1      -0.449  11.101  18.669  0.00  0.00    +0.000 C 
BRANCH  20  22
ATOM     21  O   UNL     1      -2.325   9.742  18.067  0.00  0.00    +0.000 OA
ATOM     22  C   UNL     1      -1.934  10.844  18.438  0.00  0.00    +0.000 C 
ATOM     23  N   UNL     1      -2.717  11.967  18.623  0.00  0.00    +0.000 N 
ATOM     24  H   UNL     1      -2.238  12.866  18.554  0.00  0.00    +0.000 HD
BRANCH  23  25
ATOM     25  C   UNL     1      -4.130  12.028  18.522  0.00  0.00    +0.000 A 
ATOM     26  C   UNL     1      -4.867  11.859  17.349  0.00  0.00    +0.000 A 
ATOM     27  F   UNL     1      -4.289  11.499  16.197  0.00  0.00    +0.000 F 
ATOM     28  C   UNL     1      -6.261  11.971  17.351  0.00  0.00    +0.000 A 
ATOM     29  C   UNL     1      -6.947  12.233  18.537  0.00  0.00    +0.000 A 
ATOM     30  C   UNL     1      -6.233  12.361  19.725  0.00  0.00    +0.000 A 
ATOM     31  C   UNL     1      -4.845  12.246  19.709  0.00  0.00    +0.000 A 
ATOM     32  F   UNL     1      -4.182  12.360  20.868  0.00  0.00    +0.000 F 
ENDBRANCH  23  25
ENDBRANCH  20  22
ENDBRANCH  19  20
ENDBRANCH   1  19
TORSDOF 6
ENDMDL
MODEL 9
REMARK VINA RESULT:      -8.0      2.392      3.303
REMARK  Name = 
REMARK  6 active torsions:
REMARK  status: ('A' for Active; 'I' for Inactive)
REMARK    1  A    between atoms: C_2  and  C_3
REMARK    2  A    between atoms: C_3  and  S_4
REMARK    3  A    between atoms: S_4  and  C_5
REMARK    4  A    between atoms: C_9  and  S_10
REMARK    5  A    between atoms: S_10  and  N_13
REMARK    6  A    between atoms: N_23  and  C_24
REMARK                            x       y       z     vdW  Elec       q    Type
REMARK                         _______ _______ _______ _____ _____    ______ ____
ROOT
ATOM      1  C   UNL     1       1.042   8.605  20.583  0.00  0.00    +0.000 A 
ATOM      2  N   UNL     1       1.555   7.447  20.969  0.00  0.00    +0.000 NA
ATOM      3  C   UNL     1       2.300   7.041  19.889  0.00  0.00    +0.000 A 
ATOM      4  C   UNL     1       3.074   5.889  19.677  0.00  0.00    +0.000 A 
ATOM      5  C   UNL     1       3.734   5.753  18.442  0.00  0.00    +0.000 A 
ATOM      6  C   UNL     1       3.671   6.769  17.472  0.00  0.00    +0.000 A 
ATOM      7  C   UNL     1       2.901   7.925  17.675  0.00  0.00    +0.000 A 
ATOM      8  C   UNL     1       2.235   7.999  18.892  0.00  0.00    +0.000 A 
ATOM      9  O   UNL     1       1.426   9.003  19.329  0.00  0.00    +0.000 OA
ENDROOT
BRANCH   5  10
ATOM     10  S   UNL     1       4.844   4.367  18.192  0.00  0.00    +0.000 S 
ATOM     11  O   UNL     1       5.377   4.509  16.852  0.00  0.00    +0.000 OA
ATOM     12  O   UNL     1       5.725   4.331  19.337  0.00  0.00    +0.000 OA
BRANCH  10  13
ATOM     13  N   UNL     1       3.903   2.970  18.218  0.00  0.00    +0.000 NA
ATOM     14  C   UNL     1       2.659   2.881  17.417  0.00  0.00    +0.000 C 
ATOM     15  C   UNL     1       1.454   3.287  18.269  0.00  0.00    +0.000 C 
ATOM     16  O   UNL     1       1.364   2.510  19.473  0.00  0.00    +0.000 OA
ATOM     17  C   UNL     1       2.565   2.566  20.259  0.00  0.00    +0.000 C 
ATOM     18  C   UNL     1       3.797   2.153  19.450  0.00  0.00    +0.000 C 
ENDBRANCH  10  13
ENDBRANCH   5  10
BRANCH   1  19
ATOM     19  S   UNL     1      -0.034   9.558  21.560  0.00  0.00    +0.000 S 
BRANCH  19  20
ATOM     20  C   UNL     1      -0.575  10.804  20.358  0.00  0.00    +0.000 C 
BRANCH  20  22
ATOM     21  O   UNL     1       1.163  12.184  21.253  0.00  0.00    +0.000 OA
ATOM     22  C   UNL     1       0.425  11.952  20.302  0.00  0.00    +0.000 C 
ATOM     23  N   UNL     1       0.342  12.690  19.136  0.00  0.00    +0.000 N 
ATOM     24  H   UNL     1      -0.540  12.626  18.625  0.00  0.00    +0.000 HD
BRANCH  23  25
ATOM     25  C   UNL     1       1.167  13.788  18.780  0.00  0.00    +0.000 A 
ATOM     26  C   UNL     1       2.469  13.696  18.287  0.00  0.00    +0.000 A 
ATOM     27  F   UNL     1       3.032  12.518  17.991  0.00  0.00    +0.000 F 
ATOM     28  C   UNL     1       3.212  14.845  17.995  0.00  0.00    +0.000 A 
ATOM     29  C   UNL     1       2.654  16.110  18.172  0.00  0.00    +0.000 A 
ATOM     30  C   UNL     1       1.341  16.221  18.620  0.00  0.00    +0.000 A 
ATOM     31  C   UNL     1       0.612  15.069  18.906  0.00  0.00    +0.000 A 
ATOM     32  F   UNL     1      -0.654  15.203  19.325  0.00  0.00    +0.000 F 
ENDBRANCH  23  25
ENDBRANCH  20  22
ENDBRANCH  19  20
ENDBRANCH   1  19
TORSDOF 6
ENDMDL
