MODEL 1
REMARK VINA RESULT:      -8.7      0.000      0.000
REMARK  Name = 
REMARK  7 active torsions:
REMARK  status: ('A' for Active; 'I' for Inactive)
REMARK    1  A    between atoms: C_1  and  C_2
REMARK    2  A    between atoms: C_2  and  N_3
REMARK    3  A    between atoms: C_6  and  O_7
REMARK    4  A    between atoms: O_7  and  C_8
REMARK    5  A    between atoms: C_11  and  C_12
REMARK    6  A    between atoms: C_17  and  O_18
REMARK    7  A    between atoms: O_18  and  C_19
REMARK                            x       y       z     vdW  Elec       q    Type
REMARK                         _______ _______ _______ _____ _____    ______ ____
ROOT
ATOM      1  C   UNL     1       8.340   9.160  18.131  0.00  0.00    +0.000 A 
ATOM      2  N   UNL     1       8.692   8.153  18.909  0.00  0.00    +0.000 NA
ATOM      3  C   UNL     1       7.939   7.106  18.450  0.00  0.00    +0.000 A 
ATOM      4  C   UNL     1       7.903   5.770  18.855  0.00  0.00    +0.000 A 
ATOM      5  C   UNL     1       7.028   4.903  18.185  0.00  0.00    +0.000 A 
ATOM      6  C   UNL     1       6.207   5.352  17.141  0.00  0.00    +0.000 A 
ATOM      7  C   UNL     1       6.211   6.697  16.741  0.00  0.00    +0.000 A 
ATOM      8  C   UNL     1       7.108   7.522  17.422  0.00  0.00    +0.000 A 
ATOM      9  O   UNL     1       7.356   8.850  17.215  0.00  0.00    +0.000 OA
ENDROOT
BRANCH   1  13
ATOM     10  C   UNL     1      10.173  12.982  17.557  0.00  0.00    +0.000 A 
ATOM     11  C   UNL     1      10.940  11.888  17.955  0.00  0.00    +0.000 A 
ATOM     12  C   UNL     1      10.326  10.649  18.197  0.00  0.00    +0.000 A 
ATOM     13  C   UNL     1       8.938  10.489  18.050  0.00  0.00    +0.000 A 
ATOM     14  C   UNL     1       8.173  11.620  17.743  0.00  0.00    +0.000 A 
ATOM     15  C   UNL     1       8.784  12.856  17.514  0.00  0.00    +0.000 A 
BRANCH  10  16
ATOM     16  O   UNL     1      10.869  14.105  17.192  0.00  0.00    +0.000 OA
BRANCH  16  20
ATOM     17  N   UNL     1      10.505  17.333  18.768  0.00  0.00    +0.000 NA
ATOM     18  C   UNL     1       9.890  16.087  19.253  0.00  0.00    +0.000 C 
ATOM     19  C   UNL     1      10.959  15.024  19.491  0.00  0.00    +0.000 C 
ATOM     20  C   UNL     1      11.716  14.704  18.194  0.00  0.00    +0.000 C 
ATOM     21  C   UNL     1      12.286  16.009  17.638  0.00  0.00    +0.000 C 
ATOM     22  C   UNL     1      11.218  17.096  17.502  0.00  0.00    +0.000 C 
BRANCH  17  24
ATOM     23  C   UNL     1       8.052  17.810  18.623  0.00  0.00    +0.000 C 
ATOM     24  C   UNL     1       9.469  18.372  18.637  0.00  0.00    +0.000 C 
ENDBRANCH  17  24
ENDBRANCH  16  20
ENDBRANCH  10  16
ENDBRANCH   1  13
BRANCH   6  25
ATOM     25  O   UNL     1       5.348   4.390  16.652  0.00  0.00    +0.000 OA
BRANCH  25  26
ATOM     26  C   UNL     1       4.177   4.085  17.300  0.00  0.00    +0.000 A 
ATOM     27  C   UNL     1       3.191   5.013  17.638  0.00  0.00    +0.000 A 
ATOM     28  C   UNL     1       2.031   4.587  18.291  0.00  0.00    +0.000 A 
ATOM     29  C   UNL     1       1.843   3.233  18.568  0.00  0.00    +0.000 A 
ATOM     30 CL   UNL     1       0.425   2.717  19.395  0.00  0.00    +0.000 Cl
ATOM     31  C   UNL     1       2.794   2.295  18.176  0.00  0.00    +0.000 A 
ATOM     32  C   UNL     1       3.960   2.723  17.537  0.00  0.00    +0.000 A 
ENDBRANCH  25  26
ENDBRANCH   6  25
TORSDOF 6
ENDMDL
MODEL 2
REMARK VINA RESULT:      -8.4      1.432      2.106
REMARK  Name = 
REMARK  7 active torsions:
REMARK  status: ('A' for Active; 'I' for Inactive)
REMARK    1  A    between atoms: C_1  and  C_2
REMARK    2  A    between atoms: C_2  and  N_3
REMARK    3  A    between atoms: C_6  and  O_7
REMARK    4  A    between atoms: O_7  and  C_8
REMARK    5  A    between atoms: C_11  and  C_12
REMARK    6  A    between atoms: C_17  and  O_18
REMARK    7  A    between atoms: O_18  and  C_19
REMARK                            x       y       z     vdW  Elec       q    Type
REMARK                         _______ _______ _______ _____ _____    ______ ____
ROOT
ATOM      1  C   UNL     1       8.613   9.103  18.345  0.00  0.00    +0.000 A 
ATOM      2  N   UNL     1       7.670   9.064  17.422  0.00  0.00    +0.000 NA
ATOM      3  C   UNL     1       7.147   7.804  17.543  0.00  0.00    +0.000 A 
ATOM      4  C   UNL     1       6.095   7.192  16.860  0.00  0.00    +0.000 A 
ATOM      5  C   UNL     1       5.763   5.874  17.210  0.00  0.00    +0.000 A 
ATOM      6  C   UNL     1       6.460   5.182  18.210  0.00  0.00    +0.000 A 
ATOM      7  C   UNL     1       7.538   5.775  18.886  0.00  0.00    +0.000 A 
ATOM      8  C   UNL     1       7.823   7.092  18.520  0.00  0.00    +0.000 A 
ATOM      9  O   UNL     1       8.778   7.922  19.038  0.00  0.00    +0.000 OA
ENDROOT
BRANCH   1  13
ATOM     10  C   UNL     1      10.617  12.675  19.581  0.00  0.00    +0.000 A 
ATOM     11  C   UNL     1      10.607  12.304  18.238  0.00  0.00    +0.000 A 
ATOM     12  C   UNL     1       9.998  11.103  17.843  0.00  0.00    +0.000 A 
ATOM     13  C   UNL     1       9.395  10.255  18.787  0.00  0.00    +0.000 A 
ATOM     14  C   UNL     1       9.498  10.596  20.140  0.00  0.00    +0.000 A 
ATOM     15  C   UNL     1      10.115  11.787  20.533  0.00  0.00    +0.000 A 
BRANCH  10  16
ATOM     16  O   UNL     1      11.093  13.931  19.857  0.00  0.00    +0.000 OA
BRANCH  16  20
ATOM     17  N   UNL     1       9.963  17.288  19.155  0.00  0.00    +0.000 NA
ATOM     18  C   UNL     1       9.254  16.061  18.753  0.00  0.00    +0.000 C 
ATOM     19  C   UNL     1       8.964  15.191  19.974  0.00  0.00    +0.000 C 
ATOM     20  C   UNL     1      10.264  14.779  20.678  0.00  0.00    +0.000 C 
ATOM     21  C   UNL     1      11.047  16.046  21.021  0.00  0.00    +0.000 C 
ATOM     22  C   UNL     1      11.241  16.954  19.805  0.00  0.00    +0.000 C 
BRANCH  17  24
ATOM     23  C   UNL     1      11.577  18.151  17.447  0.00  0.00    +0.000 C 
ATOM     24  C   UNL     1      10.148  18.153  17.978  0.00  0.00    +0.000 C 
ENDBRANCH  17  24
ENDBRANCH  16  20
ENDBRANCH  10  16
ENDBRANCH   1  13
BRANCH   6  25
ATOM     25  O   UNL     1       6.062   3.871  18.366  0.00  0.00    +0.000 OA
BRANCH  25  26
ATOM     26  C   UNL     1       4.733   3.536  18.445  0.00  0.00    +0.000 A 
ATOM     27  C   UNL     1       4.009   2.914  17.426  0.00  0.00    +0.000 A 
ATOM     28  C   UNL     1       2.658   2.609  17.621  0.00  0.00    +0.000 A 
ATOM     29  C   UNL     1       2.048   2.890  18.843  0.00  0.00    +0.000 A 
ATOM     30 CL   UNL     1       0.380   2.536  19.068  0.00  0.00    +0.000 Cl
ATOM     31  C   UNL     1       2.782   3.452  19.884  0.00  0.00    +0.000 A 
ATOM     32  C   UNL     1       4.127   3.770  19.684  0.00  0.00    +0.000 A 
ENDBRANCH  25  26
ENDBRANCH   6  25
TORSDOF 6
ENDMDL
MODEL 3
REMARK VINA RESULT:      -8.2      7.548     11.440
REMARK  Name = 
REMARK  7 active torsions:
REMARK  status: ('A' for Active; 'I' for Inactive)
REMARK    1  A    between atoms: C_1  and  C_2
REMARK    2  A    between atoms: C_2  and  N_3
REMARK    3  A    between atoms: C_6  and  O_7
REMARK    4  A    between atoms: O_7  and  C_8
REMARK    5  A    between atoms: C_11  and  C_12
REMARK    6  A    between atoms: C_17  and  O_18
REMARK    7  A    between atoms: O_18  and  C_19
REMARK                            x       y       z     vdW  Elec       q    Type
REMARK                         _______ _______ _______ _____ _____    ______ ____
ROOT
ATOM      1  C   UNL     1       1.455   8.699  20.334  0.00  0.00    +0.000 A 
ATOM      2  N   UNL     1       0.998   8.280  21.500  0.00  0.00    +0.000 NA
ATOM      3  C   UNL     1       0.211   9.313  21.932  0.00  0.00    +0.000 A 
ATOM      4  C   UNL     1      -0.567   9.437  23.085  0.00  0.00    +0.000 A 
ATOM      5  C   UNL     1      -1.294  10.623  23.263  0.00  0.00    +0.000 A 
ATOM      6  C   UNL     1      -1.247  11.662  22.323  0.00  0.00    +0.000 A 
ATOM      7  C   UNL     1      -0.448  11.563  21.173  0.00  0.00    +0.000 A 
ATOM      8  C   UNL     1       0.245  10.360  21.025  0.00  0.00    +0.000 A 
ATOM      9  O   UNL     1       1.053   9.974  19.993  0.00  0.00    +0.000 OA
ENDROOT
BRANCH   1  13
ATOM     10  C   UNL     1       3.961   6.664  17.527  0.00  0.00    +0.000 A 
ATOM     11  C   UNL     1       3.386   7.889  17.196  0.00  0.00    +0.000 A 
ATOM     12  C   UNL     1       2.519   8.527  18.096  0.00  0.00    +0.000 A 
ATOM     13  C   UNL     1       2.213   7.946  19.338  0.00  0.00    +0.000 A 
ATOM     14  C   UNL     1       2.723   6.672  19.614  0.00  0.00    +0.000 A 
ATOM     15  C   UNL     1       3.577   6.033  18.711  0.00  0.00    +0.000 A 
BRANCH  10  16
ATOM     16  O   UNL     1       4.913   6.190  16.661  0.00  0.00    +0.000 OA
BRANCH  16  20
ATOM     17  N   UNL     1       6.444   3.867  14.360  0.00  0.00    +0.000 NA
ATOM     18  C   UNL     1       7.159   4.939  15.073  0.00  0.00    +0.000 C 
ATOM     19  C   UNL     1       6.961   4.799  16.580  0.00  0.00    +0.000 C 
ATOM     20  C   UNL     1       5.474   4.894  16.951  0.00  0.00    +0.000 C 
ATOM     21  C   UNL     1       4.711   3.839  16.149  0.00  0.00    +0.000 C 
ATOM     22  C   UNL     1       5.002   3.931  14.650  0.00  0.00    +0.000 C 
BRANCH  17  24
ATOM     23  C   UNL     1       6.063   2.864  12.098  0.00  0.00    +0.000 C 
ATOM     24  C   UNL     1       6.727   3.965  12.918  0.00  0.00    +0.000 C 
ENDBRANCH  17  24
ENDBRANCH  16  20
ENDBRANCH  10  16
ENDBRANCH   1  13
BRANCH   6  25
ATOM     25  O   UNL     1      -1.950  12.787  22.696  0.00  0.00    +0.000 OA
BRANCH  25  26
ATOM     26  C   UNL     1      -3.317  12.762  22.827  0.00  0.00    +0.000 A 
ATOM     27  C   UNL     1      -3.998  12.800  24.045  0.00  0.00    +0.000 A 
ATOM     28  C   UNL     1      -5.395  12.778  24.059  0.00  0.00    +0.000 A 
ATOM     29  C   UNL     1      -6.106  12.760  22.860  0.00  0.00    +0.000 A 
ATOM     30 CL   UNL     1      -7.825  12.708  22.883  0.00  0.00    +0.000 Cl
ATOM     31  C   UNL     1      -5.432  12.787  21.642  0.00  0.00    +0.000 A 
ATOM     32  C   UNL     1      -4.036  12.793  21.628  0.00  0.00    +0.000 A 
ENDBRANCH  25  26
ENDBRANCH   6  25
TORSDOF 6
ENDMDL
MODEL 4
REMARK VINA RESULT:      -8.0      1.028      1.547
REMARK  Name = 
REMARK  7 active torsions:
REMARK  status: ('A' for Active; 'I' for Inactive)
REMARK    1  A    between atoms: C_1  and  C_2
REMARK    2  A    between atoms: C_2  and  N_3
REMARK    3  A    between atoms: C_6  and  O_7
REMARK    4  A    between atoms: O_7  and  C_8
REMARK    5  A    between atoms: C_11  and  C_12
REMARK    6  A    between atoms: C_17  and  O_18
REMARK    7  A    between atoms: O_18  and  C_19
REMARK                            x       y       z     vdW  Elec       q    Type
REMARK                         _______ _______ _______ _____ _____    ______ ____
ROOT
ATOM      1  C   UNL     1       8.373   9.325  18.074  0.00  0.00    +0.000 A 
ATOM      2  N   UNL     1       8.797   8.359  18.868  0.00  0.00    +0.000 NA
ATOM      3  C   UNL     1       8.030   7.283  18.511  0.00  0.00    +0.000 A 
ATOM      4  C   UNL     1       8.047   5.966  18.975  0.00  0.00    +0.000 A 
ATOM      5  C   UNL     1       7.141   5.058  18.408  0.00  0.00    +0.000 A 
ATOM      6  C   UNL     1       6.240   5.448  17.407  0.00  0.00    +0.000 A 
ATOM      7  C   UNL     1       6.193   6.773  16.949  0.00  0.00    +0.000 A 
ATOM      8  C   UNL     1       7.122   7.640  17.527  0.00  0.00    +0.000 A 
ATOM      9  O   UNL     1       7.332   8.962  17.245  0.00  0.00    +0.000 OA
ENDROOT
BRANCH   1  13
ATOM     10  C   UNL     1       9.963  13.292  17.877  0.00  0.00    +0.000 A 
ATOM     11  C   UNL     1       8.608  13.066  17.641  0.00  0.00    +0.000 A 
ATOM     12  C   UNL     1       8.100  11.757  17.650  0.00  0.00    +0.000 A 
ATOM     13  C   UNL     1       8.942  10.658  17.891  0.00  0.00    +0.000 A 
ATOM     14  C   UNL     1      10.313  10.896  18.032  0.00  0.00    +0.000 A 
ATOM     15  C   UNL     1      10.820  12.198  18.010  0.00  0.00    +0.000 A 
BRANCH  10  16
ATOM     16  O   UNL     1      10.342  14.603  18.004  0.00  0.00    +0.000 OA
BRANCH  16  20
ATOM     17  N   UNL     1       9.778  17.358  20.269  0.00  0.00    +0.000 NA
ATOM     18  C   UNL     1       9.164  16.026  20.397  0.00  0.00    +0.000 C 
ATOM     19  C   UNL     1      10.242  14.947  20.455  0.00  0.00    +0.000 C 
ATOM     20  C   UNL     1      11.098  14.954  19.181  0.00  0.00    +0.000 C 
ATOM     21  C   UNL     1      11.671  16.360  18.995  0.00  0.00    +0.000 C 
ATOM     22  C   UNL     1      10.585  17.437  19.040  0.00  0.00    +0.000 C 
BRANCH  17  24
ATOM     23  C   UNL     1       8.161  18.618  21.708  0.00  0.00    +0.000 C 
ATOM     24  C   UNL     1       8.726  18.388  20.310  0.00  0.00    +0.000 C 
ENDBRANCH  17  24
ENDBRANCH  16  20
ENDBRANCH  10  16
ENDBRANCH   1  13
BRANCH   6  25
ATOM     25  O   UNL     1       5.365   4.454  17.023  0.00  0.00    +0.000 OA
BRANCH  25  26
ATOM     26  C   UNL     1       4.308   4.089  17.820  0.00  0.00    +0.000 A 
ATOM     27  C   UNL     1       4.391   3.192  18.887  0.00  0.00    +0.000 A 
ATOM     28  C   UNL     1       3.249   2.901  19.639  0.00  0.00    +0.000 A 
ATOM     29  C   UNL     1       2.041   3.535  19.349  0.00  0.00    +0.000 A 
ATOM     30 CL   UNL     1       0.633   3.154  20.261  0.00  0.00    +0.000 Cl
ATOM     31  C   UNL     1       1.969   4.478  18.328  0.00  0.00    +0.000 A 
ATOM     32  C   UNL     1       3.106   4.758  17.567  0.00  0.00    +0.000 A 
ENDBRANCH  25  26
ENDBRANCH   6  25
TORSDOF 6
ENDMDL
MODEL 5
REMARK VINA RESULT:      -8.0      1.476      2.031
REMARK  Name = 
REMARK  7 active torsions:
REMARK  status: ('A' for Active; 'I' for Inactive)
REMARK    1  A    between atoms: C_1  and  C_2
REMARK    2  A    between atoms: C_2  and  N_3
REMARK    3  A    between atoms: C_6  and  O_7
REMARK    4  A    between atoms: O_7  and  C_8
REMARK    5  A    between atoms: C_11  and  C_12
REMARK    6  A    between atoms: C_17  and  O_18
REMARK    7  A    between atoms: O_18  and  C_19
REMARK                            x       y       z     vdW  Elec       q    Type
REMARK                         _______ _______ _______ _____ _____    ______ ____
ROOT
ATOM      1  C   UNL     1       7.612   8.009  17.588  0.00  0.00    +0.000 A 
ATOM      2  N   UNL     1       8.055   7.194  16.648  0.00  0.00    +0.000 NA
ATOM      3  C   UNL     1       7.068   6.251  16.542  0.00  0.00    +0.000 A 
ATOM      4  C   UNL     1       6.955   5.153  15.687  0.00  0.00    +0.000 A 
ATOM      5  C   UNL     1       5.807   4.354  15.793  0.00  0.00    +0.000 A 
ATOM      6  C   UNL     1       4.800   4.635  16.728  0.00  0.00    +0.000 A 
ATOM      7  C   UNL     1       4.914   5.718  17.612  0.00  0.00    +0.000 A 
ATOM      8  C   UNL     1       6.062   6.498  17.461  0.00  0.00    +0.000 A 
ATOM      9  O   UNL     1       6.409   7.629  18.147  0.00  0.00    +0.000 OA
ENDROOT
BRANCH   1  13
ATOM     10  C   UNL     1       9.533  11.687  18.626  0.00  0.00    +0.000 A 
ATOM     11  C   UNL     1       9.756  10.540  19.385  0.00  0.00    +0.000 A 
ATOM     12  C   UNL     1       9.080   9.350  19.077  0.00  0.00    +0.000 A 
ATOM     13  C   UNL     1       8.171   9.291  18.008  0.00  0.00    +0.000 A 
ATOM     14  C   UNL     1       7.889  10.475  17.317  0.00  0.00    +0.000 A 
ATOM     15  C   UNL     1       8.553  11.664  17.633  0.00  0.00    +0.000 A 
BRANCH  10  16
ATOM     16  O   UNL     1      10.347  12.757  18.896  0.00  0.00    +0.000 OA
BRANCH  16  20
ATOM     17  N   UNL     1      10.239  16.358  19.143  0.00  0.00    +0.000 NA
ATOM     18  C   UNL     1       9.110  15.509  18.726  0.00  0.00    +0.000 C 
ATOM     19  C   UNL     1       8.802  14.469  19.800  0.00  0.00    +0.000 C 
ATOM     20  C   UNL     1      10.013  13.558  20.048  0.00  0.00    +0.000 C 
ATOM     21  C   UNL     1      11.213  14.439  20.398  0.00  0.00    +0.000 C 
ATOM     22  C   UNL     1      11.444  15.540  19.361  0.00  0.00    +0.000 C 
BRANCH  17  24
ATOM     23  C   UNL     1       9.276  18.368  18.002  0.00  0.00    +0.000 C 
ATOM     24  C   UNL     1      10.456  17.411  18.138  0.00  0.00    +0.000 C 
ENDBRANCH  17  24
ENDBRANCH  16  20
ENDBRANCH  10  16
ENDBRANCH   1  13
BRANCH   6  25
ATOM     25  O   UNL     1       3.787   3.700  16.757  0.00  0.00    +0.000 OA
BRANCH  25  26
ATOM     26  C   UNL     1       3.092   3.440  17.912  0.00  0.00    +0.000 A 
ATOM     27  C   UNL     1       1.716   3.614  18.068  0.00  0.00    +0.000 A 
ATOM     28  C   UNL     1       1.111   3.306  19.290  0.00  0.00    +0.000 A 
ATOM     29  C   UNL     1       1.874   2.789  20.336  0.00  0.00    +0.000 A 
ATOM     30 CL   UNL     1       1.129   2.436  21.846  0.00  0.00    +0.000 Cl
ATOM     31  C   UNL     1       3.235   2.553  20.165  0.00  0.00    +0.000 A 
ATOM     32  C   UNL     1       3.842   2.874  18.949  0.00  0.00    +0.000 A 
ENDBRANCH  25  26
ENDBRANCH   6  25
TORSDOF 6
ENDMDL
MODEL 6
REMARK VINA RESULT:      -7.9      3.647     11.319
REMARK  Name = 
REMARK  7 active torsions:
REMARK  status: ('A' for Active; 'I' for Inactive)
REMARK    1  A    between atoms: C_1  and  C_2
REMARK    2  A    between atoms: C_2  and  N_3
REMARK    3  A    between atoms: C_6  and  O_7
REMARK    4  A    between atoms: O_7  and  C_8
REMARK    5  A    between atoms: C_11  and  C_12
REMARK    6  A    between atoms: C_17  and  O_18
REMARK    7  A    between atoms: O_18  and  C_19
REMARK                            x       y       z     vdW  Elec       q    Type
REMARK                         _______ _______ _______ _____ _____    ______ ____
ROOT
ATOM      1  C   UNL     1       8.408   8.945  18.244  0.00  0.00    +0.000 A 
ATOM      2  N   UNL     1       9.268   9.199  19.213  0.00  0.00    +0.000 NA
ATOM      3  C   UNL     1       9.461  10.552  19.133  0.00  0.00    +0.000 A 
ATOM      4  C   UNL     1      10.237  11.404  19.921  0.00  0.00    +0.000 A 
ATOM      5  C   UNL     1      10.233  12.772  19.610  0.00  0.00    +0.000 A 
ATOM      6  C   UNL     1       9.482  13.280  18.541  0.00  0.00    +0.000 A 
ATOM      7  C   UNL     1       8.720  12.432  17.722  0.00  0.00    +0.000 A 
ATOM      8  C   UNL     1       8.736  11.082  18.077  0.00  0.00    +0.000 A 
ATOM      9  O   UNL     1       8.059  10.048  17.493  0.00  0.00    +0.000 OA
ENDROOT
BRANCH   1  13
ATOM     10  C   UNL     1       6.120   5.381  17.644  0.00  0.00    +0.000 A 
ATOM     11  C   UNL     1       7.060   5.447  18.671  0.00  0.00    +0.000 A 
ATOM     12  C   UNL     1       7.849   6.597  18.830  0.00  0.00    +0.000 A 
ATOM     13  C   UNL     1       7.712   7.693  17.962  0.00  0.00    +0.000 A 
ATOM     14  C   UNL     1       6.832   7.571  16.880  0.00  0.00    +0.000 A 
ATOM     15  C   UNL     1       6.055   6.420  16.716  0.00  0.00    +0.000 A 
BRANCH  10  16
ATOM     16  O   UNL     1       5.288   4.291  17.658  0.00  0.00    +0.000 OA
BRANCH  16  20
ATOM     17  N   UNL     1       2.331   3.043  19.311  0.00  0.00    +0.000 NA
ATOM     18  C   UNL     1       3.016   4.302  19.650  0.00  0.00    +0.000 C 
ATOM     19  C   UNL     1       3.114   5.200  18.421  0.00  0.00    +0.000 C 
ATOM     20  C   UNL     1       3.910   4.515  17.300  0.00  0.00    +0.000 C 
ATOM     21  C   UNL     1       3.254   3.167  17.002  0.00  0.00    +0.000 C 
ATOM     22  C   UNL     1       3.071   2.321  18.263  0.00  0.00    +0.000 C 
BRANCH  17  24
ATOM     23  C   UNL     1       1.450   2.978  21.654  0.00  0.00    +0.000 C 
ATOM     24  C   UNL     1       2.163   2.234  20.530  0.00  0.00    +0.000 C 
ENDBRANCH  17  24
ENDBRANCH  16  20
ENDBRANCH  10  16
ENDBRANCH   1  13
BRANCH   6  25
ATOM     25  O   UNL     1       9.660  14.629  18.322  0.00  0.00    +0.000 OA
BRANCH  25  26
ATOM     26  C   UNL     1       8.761  15.552  18.795  0.00  0.00    +0.000 A 
ATOM     27  C   UNL     1       7.524  15.827  18.211  0.00  0.00    +0.000 A 
ATOM     28  C   UNL     1       6.681  16.783  18.786  0.00  0.00    +0.000 A 
ATOM     29  C   UNL     1       7.059  17.430  19.962  0.00  0.00    +0.000 A 
ATOM     30 CL   UNL     1       6.031  18.624  20.652  0.00  0.00    +0.000 Cl
ATOM     31  C   UNL     1       8.264  17.112  20.584  0.00  0.00    +0.000 A 
ATOM     32  C   UNL     1       9.112  16.168  20.001  0.00  0.00    +0.000 A 
ENDBRANCH  25  26
ENDBRANCH   6  25
TORSDOF 6
ENDMDL
MODEL 7
REMARK VINA RESULT:      -7.9      3.632     11.133
REMARK  Name = 
REMARK  7 active torsions:
REMARK  status: ('A' for Active; 'I' for Inactive)
REMARK    1  A    between atoms: C_1  and  C_2
REMARK    2  A    between atoms: C_2  and  N_3
REMARK    3  A    between atoms: C_6  and  O_7
REMARK    4  A    between atoms: O_7  and  C_8
REMARK    5  A    between atoms: C_11  and  C_12
REMARK    6  A    between atoms: C_17  and  O_18
REMARK    7  A    between atoms: O_18  and  C_19
REMARK                            x       y       z     vdW  Elec       q    Type
REMARK                         _______ _______ _______ _____ _____    ______ ____
ROOT
ATOM      1  C   UNL     1       8.222   8.657  18.159  0.00  0.00    +0.000 A 
ATOM      2  N   UNL     1       9.082   8.929  19.123  0.00  0.00    +0.000 NA
ATOM      3  C   UNL     1       9.263  10.283  19.026  0.00  0.00    +0.000 A 
ATOM      4  C   UNL     1      10.033  11.151  19.803  0.00  0.00    +0.000 A 
ATOM      5  C   UNL     1      10.016  12.515  19.476  0.00  0.00    +0.000 A 
ATOM      6  C   UNL     1       9.258  13.004  18.403  0.00  0.00    +0.000 A 
ATOM      7  C   UNL     1       8.502  12.140  17.596  0.00  0.00    +0.000 A 
ATOM      8  C   UNL     1       8.531  10.794  17.966  0.00  0.00    +0.000 A 
ATOM      9  O   UNL     1       7.861   9.748  17.395  0.00  0.00    +0.000 OA
ENDROOT
BRANCH   1  13
ATOM     10  C   UNL     1       5.961   5.068  17.602  0.00  0.00    +0.000 A 
ATOM     11  C   UNL     1       6.892   5.158  18.636  0.00  0.00    +0.000 A 
ATOM     12  C   UNL     1       7.672   6.315  18.781  0.00  0.00    +0.000 A 
ATOM     13  C   UNL     1       7.535   7.395  17.892  0.00  0.00    +0.000 A 
ATOM     14  C   UNL     1       6.666   7.249  16.806  0.00  0.00    +0.000 A 
ATOM     15  C   UNL     1       5.897   6.091  16.656  0.00  0.00    +0.000 A 
BRANCH  10  16
ATOM     16  O   UNL     1       5.136   3.973  17.628  0.00  0.00    +0.000 OA
BRANCH  16  20
ATOM     17  N   UNL     1       2.201   4.070  19.728  0.00  0.00    +0.000 NA
ATOM     18  C   UNL     1       3.040   5.235  19.402  0.00  0.00    +0.000 C 
ATOM     19  C   UNL     1       3.138   5.413  17.889  0.00  0.00    +0.000 C 
ATOM     20  C   UNL     1       3.765   4.177  17.229  0.00  0.00    +0.000 C 
ATOM     21  C   UNL     1       2.949   2.950  17.634  0.00  0.00    +0.000 C 
ATOM     22  C   UNL     1       2.776   2.844  19.150  0.00  0.00    +0.000 C 
BRANCH  17  24
ATOM     23  C   UNL     1       1.639   2.582  21.662  0.00  0.00    +0.000 C 
ATOM     24  C   UNL     1       2.043   3.974  21.189  0.00  0.00    +0.000 C 
ENDBRANCH  17  24
ENDBRANCH  16  20
ENDBRANCH  10  16
ENDBRANCH   1  13
BRANCH   6  25
ATOM     25  O   UNL     1       9.425  14.352  18.168  0.00  0.00    +0.000 OA
BRANCH  25  26
ATOM     26  C   UNL     1       8.636  15.286  18.793  0.00  0.00    +0.000 A 
ATOM     27  C   UNL     1       9.000  15.991  19.942  0.00  0.00    +0.000 A 
ATOM     28  C   UNL     1       8.119  16.929  20.489  0.00  0.00    +0.000 A 
ATOM     29  C   UNL     1       6.899  17.187  19.866  0.00  0.00    +0.000 A 
ATOM     30 CL   UNL     1       5.808  18.324  20.557  0.00  0.00    +0.000 Cl
ATOM     31  C   UNL     1       6.560  16.534  18.684  0.00  0.00    +0.000 A 
ATOM     32  C   UNL     1       7.433  15.586  18.146  0.00  0.00    +0.000 A 
ENDBRANCH  25  26
ENDBRANCH   6  25
TORSDOF 6
ENDMDL
MODEL 8
REMARK VINA RESULT:      -7.9      1.599      2.199
REMARK  Name = 
REMARK  7 active torsions:
REMARK  status: ('A' for Active; 'I' for Inactive)
REMARK    1  A    between atoms: C_1  and  C_2
REMARK    2  A    between atoms: C_2  and  N_3
REMARK    3  A    between atoms: C_6  and  O_7
REMARK    4  A    between atoms: O_7  and  C_8
REMARK    5  A    between atoms: C_11  and  C_12
REMARK    6  A    between atoms: C_17  and  O_18
REMARK    7  A    between atoms: O_18  and  C_19
REMARK                            x       y       z     vdW  Elec       q    Type
REMARK                         _______ _______ _______ _____ _____    ______ ____
ROOT
ATOM      1  C   UNL     1       7.578   8.128  17.612  0.00  0.00    +0.000 A 
ATOM      2  N   UNL     1       8.066   7.231  16.774  0.00  0.00    +0.000 NA
ATOM      3  C   UNL     1       7.057   6.314  16.654  0.00  0.00    +0.000 A 
ATOM      4  C   UNL     1       6.974   5.158  15.874  0.00  0.00    +0.000 A 
ATOM      5  C   UNL     1       5.793   4.404  15.941  0.00  0.00    +0.000 A 
ATOM      6  C   UNL     1       4.723   4.786  16.764  0.00  0.00    +0.000 A 
ATOM      7  C   UNL     1       4.804   5.929  17.574  0.00  0.00    +0.000 A 
ATOM      8  C   UNL     1       5.988   6.660  17.464  0.00  0.00    +0.000 A 
ATOM      9  O   UNL     1       6.320   7.828  18.093  0.00  0.00    +0.000 OA
ENDROOT
BRANCH   1  13
ATOM     10  C   UNL     1       9.518  11.838  18.489  0.00  0.00    +0.000 A 
ATOM     11  C   UNL     1       9.804  10.701  19.243  0.00  0.00    +0.000 A 
ATOM     12  C   UNL     1       9.124   9.499  18.990  0.00  0.00    +0.000 A 
ATOM     13  C   UNL     1       8.147   9.421  17.982  0.00  0.00    +0.000 A 
ATOM     14  C   UNL     1       7.807  10.594  17.301  0.00  0.00    +0.000 A 
ATOM     15  C   UNL     1       8.476  11.793  17.562  0.00  0.00    +0.000 A 
BRANCH  10  16
ATOM     16  O   UNL     1      10.335  12.919  18.697  0.00  0.00    +0.000 OA
BRANCH  16  20
ATOM     17  N   UNL     1      11.440  16.334  19.092  0.00  0.00    +0.000 NA
ATOM     18  C   UNL     1      12.280  15.231  18.595  0.00  0.00    +0.000 C 
ATOM     19  C   UNL     1      11.628  14.573  17.382  0.00  0.00    +0.000 C 
ATOM     20  C   UNL     1      10.251  13.996  17.741  0.00  0.00    +0.000 C 
ATOM     21  C   UNL     1       9.402  15.117  18.339  0.00  0.00    +0.000 C 
ATOM     22  C   UNL     1      10.114  15.832  19.489  0.00  0.00    +0.000 C 
BRANCH  17  24
ATOM     23  C   UNL     1      11.608  16.611  21.575  0.00  0.00    +0.000 C 
ATOM     24  C   UNL     1      12.132  17.013  20.201  0.00  0.00    +0.000 C 
ENDBRANCH  17  24
ENDBRANCH  16  20
ENDBRANCH  10  16
ENDBRANCH   1  13
BRANCH   6  25
ATOM     25  O   UNL     1       3.677   3.888  16.775  0.00  0.00    +0.000 OA
BRANCH  25  26
ATOM     26  C   UNL     1       3.017   3.579  17.939  0.00  0.00    +0.000 A 
ATOM     27  C   UNL     1       1.660   3.812  18.168  0.00  0.00    +0.000 A 
ATOM     28  C   UNL     1       1.090   3.446  19.391  0.00  0.00    +0.000 A 
ATOM     29  C   UNL     1       1.866   2.814  20.362  0.00  0.00    +0.000 A 
ATOM     30 CL   UNL     1       1.166   2.388  21.874  0.00  0.00    +0.000 Cl
ATOM     31  C   UNL     1       3.204   2.521  20.113  0.00  0.00    +0.000 A 
ATOM     32  C   UNL     1       3.777   2.900  18.898  0.00  0.00    +0.000 A 
ENDBRANCH  25  26
ENDBRANCH   6  25
TORSDOF 6
ENDMDL
MODEL 9
REMARK VINA RESULT:      -7.9      7.730      9.799
REMARK  Name = 
REMARK  7 active torsions:
REMARK  status: ('A' for Active; 'I' for Inactive)
REMARK    1  A    between atoms: C_1  and  C_2
REMARK    2  A    between atoms: C_2  and  N_3
REMARK    3  A    between atoms: C_6  and  O_7
REMARK    4  A    between atoms: O_7  and  C_8
REMARK    5  A    between atoms: C_11  and  C_12
REMARK    6  A    between atoms: C_17  and  O_18
REMARK    7  A    between atoms: O_18  and  C_19
REMARK                            x       y       z     vdW  Elec       q    Type
REMARK                         _______ _______ _______ _____ _____    ______ ____
ROOT
ATOM      1  C   UNL     1       1.394   7.523  20.574  0.00  0.00    +0.000 A 
ATOM      2  N   UNL     1       1.073   6.301  20.960  0.00  0.00    +0.000 NA
ATOM      3  C   UNL     1       2.082   5.524  20.457  0.00  0.00    +0.000 A 
ATOM      4  C   UNL     1       2.309   4.151  20.571  0.00  0.00    +0.000 A 
ATOM      5  C   UNL     1       3.451   3.621  19.953  0.00  0.00    +0.000 A 
ATOM      6  C   UNL     1       4.342   4.432  19.236  0.00  0.00    +0.000 A 
ATOM      7  C   UNL     1       4.112   5.808  19.089  0.00  0.00    +0.000 A 
ATOM      8  C   UNL     1       2.975   6.299  19.734  0.00  0.00    +0.000 A 
ATOM      9  O   UNL     1       2.533   7.591  19.798  0.00  0.00    +0.000 OA
ENDROOT
BRANCH   1  13
ATOM     10  C   UNL     1      -0.744  11.074  21.630  0.00  0.00    +0.000 A 
ATOM     11  C   UNL     1      -0.335  10.866  20.314  0.00  0.00    +0.000 A 
ATOM     12  C   UNL     1       0.415   9.727  19.982  0.00  0.00    +0.000 A 
ATOM     13  C   UNL     1       0.770   8.785  20.962  0.00  0.00    +0.000 A 
ATOM     14  C   UNL     1       0.433   9.058  22.292  0.00  0.00    +0.000 A 
ATOM     15  C   UNL     1      -0.304  10.199  22.624  0.00  0.00    +0.000 A 
BRANCH  10  16
ATOM     16  O   UNL     1      -1.601  12.124  21.836  0.00  0.00    +0.000 OA
BRANCH  16  20
ATOM     17  N   UNL     1      -3.837  14.683  23.057  0.00  0.00    +0.000 NA
ATOM     18  C   UNL     1      -4.218  13.282  22.810  0.00  0.00    +0.000 C 
ATOM     19  C   UNL     1      -3.320  12.339  23.607  0.00  0.00    +0.000 C 
ATOM     20  C   UNL     1      -1.848  12.508  23.204  0.00  0.00    +0.000 C 
ATOM     21  C   UNL     1      -1.469  13.979  23.376  0.00  0.00    +0.000 C 
ATOM     22  C   UNL     1      -2.440  14.915  22.654  0.00  0.00    +0.000 C 
BRANCH  17  24
ATOM     23  C   UNL     1      -4.294  17.021  22.288  0.00  0.00    +0.000 C 
ATOM     24  C   UNL     1      -4.774  15.575  22.354  0.00  0.00    +0.000 C 
ENDBRANCH  17  24
ENDBRANCH  16  20
ENDBRANCH  10  16
ENDBRANCH   1  13
BRANCH   6  25
ATOM     25  O   UNL     1       5.361   3.737  18.621  0.00  0.00    +0.000 OA
BRANCH  25  26
ATOM     26  C   UNL     1       5.754   4.034  17.340  0.00  0.00    +0.000 A 
ATOM     27  C   UNL     1       4.928   3.951  16.217  0.00  0.00    +0.000 A 
ATOM     28  C   UNL     1       5.433   4.289  14.958  0.00  0.00    +0.000 A 
ATOM     29  C   UNL     1       6.744   4.745  14.831  0.00  0.00    +0.000 A 
ATOM     30 CL   UNL     1       7.368   5.135  13.276  0.00  0.00    +0.000 Cl
ATOM     31  C   UNL     1       7.551   4.891  15.956  0.00  0.00    +0.000 A 
ATOM     32  C   UNL     1       7.052   4.539  17.211  0.00  0.00    +0.000 A 
ENDBRANCH  25  26
ENDBRANCH   6  25
TORSDOF 6
ENDMDL
