MODEL 1
REMARK VINA RESULT:      -8.6      0.000      0.000
REMARK  Name = 
REMARK  8 active torsions:
REMARK  status: ('A' for Active; 'I' for Inactive)
REMARK    1  A    between atoms: C_1  and  C_2
REMARK    2  A    between atoms: C_2  and  C_3
REMARK    3  A    between atoms: C_3  and  C_4
REMARK    4  A    between atoms: C_4  and  S_5
REMARK    5  A    between atoms: S_5  and  C_6
REMARK    6  A    between atoms: C_10  and  C_11
REMARK    7  A    between atoms: C_20  and  N_21
REMARK    8  A    between atoms: C_22  and  C_24
REMARK                            x       y       z     vdW  Elec       q    Type
REMARK                         _______ _______ _______ _____ _____    ______ ____
ROOT
ATOM      1  C   UNL     1       0.371  10.822  19.086  0.00  0.00    +0.000 A 
ATOM      2  C   UNL     1       1.193   9.937  18.359  0.00  0.00    +0.000 A 
ATOM      3  C   UNL     1       1.641   8.792  19.019  0.00  0.00    +0.000 A 
ATOM      4  N   UNL     1       2.358   7.705  18.600  0.00  0.00    +0.000 N 
ATOM      5  C   UNL     1       2.416   6.797  19.634  0.00  0.00    +0.000 A 
ATOM      6  N   UNL     1       1.853   7.292  20.713  0.00  0.00    +0.000 NA
ATOM      7  C   UNL     1       1.354   8.520  20.345  0.00  0.00    +0.000 A 
ATOM      8  C   UNL     1       0.611   9.448  21.085  0.00  0.00    +0.000 A 
ATOM      9  C   UNL     1       0.110  10.605  20.461  0.00  0.00    +0.000 A 
ATOM     10  H   UNL     1       2.722   7.561  17.670  0.00  0.00    +0.000 HD
ENDROOT
BRANCH   5  11
ATOM     11  C   UNL     1       3.038   5.439  19.453  0.00  0.00    +0.000 C 
ATOM     12  C   UNL     1       2.528   4.427  20.482  0.00  0.00    +0.000 C 
ATOM     13  C   UNL     1       1.117   3.918  20.194  0.00  0.00    +0.000 C 
ATOM     14  C   UNL     1       0.958   3.409  18.765  0.00  0.00    +0.000 C 
ATOM     15  C   UNL     1       1.464   4.396  17.716  0.00  0.00    +0.000 C 
ATOM     16  C   UNL     1       2.871   4.907  18.023  0.00  0.00    +0.000 C 
ENDBRANCH   5  11
BRANCH   9  17
ATOM     17  N   UNL     1      -0.696  11.526  21.181  0.00  0.00    +0.000 N 
ATOM     18  C   UNL     1      -0.902  11.519  22.552  0.00  0.00    +0.000 C 
ATOM     19  O   UNL     1      -0.383  10.741  23.348  0.00  0.00    +0.000 OA
ATOM     20  H   UNL     1      -1.079  12.290  20.631  0.00  0.00    +0.000 HD
BRANCH  18  21
ATOM     21  C   UNL     1      -1.781  12.569  23.133  0.00  0.00    +0.000 A 
ATOM     22  C   UNL     1      -3.080  12.194  23.536  0.00  0.00    +0.000 A 
ATOM     23  C   UNL     1      -3.919  13.110  24.167  0.00  0.00    +0.000 A 
ATOM     24  C   UNL     1      -3.465  14.404  24.390  0.00  0.00    +0.000 A 
ATOM     25  F   UNL     1      -4.255  15.277  25.031  0.00  0.00    +0.000 F 
ATOM     26  C   UNL     1      -2.202  14.804  23.975  0.00  0.00    +0.000 A 
ATOM     27  C   UNL     1      -1.368  13.883  23.344  0.00  0.00    +0.000 A 
ATOM     28  F   UNL     1      -0.148  14.293  22.965  0.00  0.00    +0.000 F 
ENDBRANCH  18  21
ENDBRANCH   9  17
BRANCH   1  29
ATOM     29  S   UNL     1      -0.442  12.087  18.090  0.00  0.00    +0.000 S 
BRANCH  29  30
ATOM     30  C   UNL     1      -2.141  11.452  17.907  0.00  0.00    +0.000 C 
BRANCH  30  31
ATOM     31  C   UNL     1      -2.230   9.953  17.646  0.00  0.00    +0.000 C 
BRANCH  31  33
ATOM     32  C   UNL     1      -3.031  10.989  15.491  0.00  0.00    +0.000 C 
ATOM     33  C   UNL     1      -2.701   9.693  16.212  0.00  0.00    +0.000 C 
ENDBRANCH  31  33
ENDBRANCH  30  31
ENDBRANCH  29  30
ENDBRANCH   1  29
TORSDOF 7
ENDMDL
MODEL 2
REMARK VINA RESULT:      -8.5      1.092      1.393
REMARK  Name = 
REMARK  8 active torsions:
REMARK  status: ('A' for Active; 'I' for Inactive)
REMARK    1  A    between atoms: C_1  and  C_2
REMARK    2  A    between atoms: C_2  and  C_3
REMARK    3  A    between atoms: C_3  and  C_4
REMARK    4  A    between atoms: C_4  and  S_5
REMARK    5  A    between atoms: S_5  and  C_6
REMARK    6  A    between atoms: C_10  and  C_11
REMARK    7  A    between atoms: C_20  and  N_21
REMARK    8  A    between atoms: C_22  and  C_24
REMARK                            x       y       z     vdW  Elec       q    Type
REMARK                         _______ _______ _______ _____ _____    ______ ____
ROOT
ATOM      1  C   UNL     1      -0.043  10.833  19.269  0.00  0.00    +0.000 A 
ATOM      2  C   UNL     1       0.863  10.030  18.547  0.00  0.00    +0.000 A 
ATOM      3  C   UNL     1       1.390   8.914  19.199  0.00  0.00    +0.000 A 
ATOM      4  N   UNL     1       2.202   7.896  18.778  0.00  0.00    +0.000 N 
ATOM      5  C   UNL     1       2.313   6.979  19.799  0.00  0.00    +0.000 A 
ATOM      6  N   UNL     1       1.689   7.408  20.873  0.00  0.00    +0.000 NA
ATOM      7  C   UNL     1       1.098   8.597  20.514  0.00  0.00    +0.000 A 
ATOM      8  C   UNL     1       0.268   9.448  21.251  0.00  0.00    +0.000 A 
ATOM      9  C   UNL     1      -0.313  10.571  20.634  0.00  0.00    +0.000 A 
ATOM     10  H   UNL     1       2.595   7.798  17.854  0.00  0.00    +0.000 HD
ENDROOT
BRANCH   5  11
ATOM     11  C   UNL     1       3.047   5.679  19.611  0.00  0.00    +0.000 C 
ATOM     12  C   UNL     1       2.574   4.600  20.588  0.00  0.00    +0.000 C 
ATOM     13  C   UNL     1       1.221   3.992  20.222  0.00  0.00    +0.000 C 
ATOM     14  C   UNL     1       1.165   3.516  18.774  0.00  0.00    +0.000 C 
ATOM     15  C   UNL     1       1.638   4.569  17.777  0.00  0.00    +0.000 C 
ATOM     16  C   UNL     1       2.985   5.179  18.161  0.00  0.00    +0.000 C 
ENDBRANCH   5  11
BRANCH   9  17
ATOM     17  N   UNL     1      -1.206  11.412  21.351  0.00  0.00    +0.000 N 
ATOM     18  C   UNL     1      -0.852  12.553  22.053  0.00  0.00    +0.000 C 
ATOM     19  O   UNL     1       0.278  13.028  22.121  0.00  0.00    +0.000 OA
ATOM     20  H   UNL     1      -2.190  11.177  21.260  0.00  0.00    +0.000 HD
BRANCH  18  21
ATOM     21  C   UNL     1      -1.929  13.312  22.744  0.00  0.00    +0.000 A 
ATOM     22  C   UNL     1      -2.001  14.704  22.524  0.00  0.00    +0.000 A 
ATOM     23  C   UNL     1      -3.037  15.456  23.073  0.00  0.00    +0.000 A 
ATOM     24  C   UNL     1      -4.000  14.822  23.847  0.00  0.00    +0.000 A 
ATOM     25  F   UNL     1      -5.020  15.535  24.344  0.00  0.00    +0.000 F 
ATOM     26  C   UNL     1      -3.933  13.458  24.101  0.00  0.00    +0.000 A 
ATOM     27  C   UNL     1      -2.893  12.712  23.551  0.00  0.00    +0.000 A 
ATOM     28  F   UNL     1      -2.860  11.394  23.803  0.00  0.00    +0.000 F 
ENDBRANCH  18  21
ENDBRANCH   9  17
BRANCH   1  29
ATOM     29  S   UNL     1      -0.936  12.044  18.276  0.00  0.00    +0.000 S 
BRANCH  29  30
ATOM     30  C   UNL     1      -2.502  11.197  17.884  0.00  0.00    +0.000 C 
BRANCH  30  31
ATOM     31  C   UNL     1      -2.431  10.265  16.679  0.00  0.00    +0.000 C 
BRANCH  31  33
ATOM     32  C   UNL     1      -3.489   9.993  14.407  0.00  0.00    +0.000 C 
ATOM     33  C   UNL     1      -2.949  10.979  15.428  0.00  0.00    +0.000 C 
ENDBRANCH  31  33
ENDBRANCH  30  31
ENDBRANCH  29  30
ENDBRANCH   1  29
TORSDOF 7
ENDMDL
MODEL 3
REMARK VINA RESULT:      -8.3      0.973      1.011
REMARK  Name = 
REMARK  8 active torsions:
REMARK  status: ('A' for Active; 'I' for Inactive)
REMARK    1  A    between atoms: C_1  and  C_2
REMARK    2  A    between atoms: C_2  and  C_3
REMARK    3  A    between atoms: C_3  and  C_4
REMARK    4  A    between atoms: C_4  and  S_5
REMARK    5  A    between atoms: S_5  and  C_6
REMARK    6  A    between atoms: C_10  and  C_11
REMARK    7  A    between atoms: C_20  and  N_21
REMARK    8  A    between atoms: C_22  and  C_24
REMARK                            x       y       z     vdW  Elec       q    Type
REMARK                         _______ _______ _______ _____ _____    ______ ____
ROOT
ATOM      1  C   UNL     1       0.046  10.907  19.197  0.00  0.00    +0.000 A 
ATOM      2  C   UNL     1       1.020  10.111  18.559  0.00  0.00    +0.000 A 
ATOM      3  C   UNL     1       1.450   8.966  19.231  0.00  0.00    +0.000 A 
ATOM      4  N   UNL     1       2.290   7.947  18.875  0.00  0.00    +0.000 N 
ATOM      5  C   UNL     1       2.267   6.996  19.870  0.00  0.00    +0.000 A 
ATOM      6  N   UNL     1       1.528   7.402  20.878  0.00  0.00    +0.000 NA
ATOM      7  C   UNL     1       1.001   8.613  20.492  0.00  0.00    +0.000 A 
ATOM      8  C   UNL     1       0.102   9.456  21.155  0.00  0.00    +0.000 A 
ATOM      9  C   UNL     1      -0.386  10.608  20.512  0.00  0.00    +0.000 A 
ATOM     10  H   UNL     1       2.789   7.871  18.001  0.00  0.00    +0.000 HD
ENDROOT
BRANCH   5  11
ATOM     11  C   UNL     1       3.000   5.690  19.727  0.00  0.00    +0.000 C 
ATOM     12  C   UNL     1       2.459   4.615  20.673  0.00  0.00    +0.000 C 
ATOM     13  C   UNL     1       1.125   4.019  20.227  0.00  0.00    +0.000 C 
ATOM     14  C   UNL     1       1.151   3.543  18.778  0.00  0.00    +0.000 C 
ATOM     15  C   UNL     1       1.692   4.592  17.811  0.00  0.00    +0.000 C 
ATOM     16  C   UNL     1       3.020   5.190  18.275  0.00  0.00    +0.000 C 
ENDBRANCH   5  11
BRANCH   9  17
ATOM     17  N   UNL     1      -1.345  11.442  21.146  0.00  0.00    +0.000 N 
ATOM     18  C   UNL     1      -1.058  12.516  21.974  0.00  0.00    +0.000 C 
ATOM     19  O   UNL     1       0.066  12.930  22.244  0.00  0.00    +0.000 OA
ATOM     20  H   UNL     1      -2.312  11.262  20.894  0.00  0.00    +0.000 HD
BRANCH  18  21
ATOM     21  C   UNL     1      -2.197  13.280  22.550  0.00  0.00    +0.000 A 
ATOM     22  C   UNL     1      -3.004  12.637  23.513  0.00  0.00    +0.000 A 
ATOM     23  C   UNL     1      -4.031  13.326  24.153  0.00  0.00    +0.000 A 
ATOM     24  C   UNL     1      -4.261  14.657  23.828  0.00  0.00    +0.000 A 
ATOM     25  F   UNL     1      -5.223  15.335  24.469  0.00  0.00    +0.000 F 
ATOM     26  C   UNL     1      -3.500  15.302  22.862  0.00  0.00    +0.000 A 
ATOM     27  C   UNL     1      -2.474  14.607  22.225  0.00  0.00    +0.000 A 
ATOM     28  F   UNL     1      -1.747  15.258  21.304  0.00  0.00    +0.000 F 
ENDBRANCH  18  21
ENDBRANCH   9  17
BRANCH   1  29
ATOM     29  S   UNL     1      -0.706  12.165  18.147  0.00  0.00    +0.000 S 
BRANCH  29  30
ATOM     30  C   UNL     1      -2.356  11.482  17.785  0.00  0.00    +0.000 C 
BRANCH  30  31
ATOM     31  C   UNL     1      -2.372  10.415  16.696  0.00  0.00    +0.000 C 
BRANCH  31  33
ATOM     32  C   UNL     1      -3.020  10.020  14.291  0.00  0.00    +0.000 C 
ATOM     33  C   UNL     1      -3.261  10.863  15.532  0.00  0.00    +0.000 C 
ENDBRANCH  31  33
ENDBRANCH  30  31
ENDBRANCH  29  30
ENDBRANCH   1  29
TORSDOF 7
ENDMDL
MODEL 4
REMARK VINA RESULT:      -8.1      1.342      1.878
REMARK  Name = 
REMARK  8 active torsions:
REMARK  status: ('A' for Active; 'I' for Inactive)
REMARK    1  A    between atoms: C_1  and  C_2
REMARK    2  A    between atoms: C_2  and  C_3
REMARK    3  A    between atoms: C_3  and  C_4
REMARK    4  A    between atoms: C_4  and  S_5
REMARK    5  A    between atoms: S_5  and  C_6
REMARK    6  A    between atoms: C_10  and  C_11
REMARK    7  A    between atoms: C_20  and  N_21
REMARK    8  A    between atoms: C_22  and  C_24
REMARK                            x       y       z     vdW  Elec       q    Type
REMARK                         _______ _______ _______ _____ _____    ______ ____
ROOT
ATOM      1  C   UNL     1      -0.141  10.814  19.133  0.00  0.00    +0.000 A 
ATOM      2  C   UNL     1       0.732  10.012  18.370  0.00  0.00    +0.000 A 
ATOM      3  C   UNL     1       1.340   8.935  19.017  0.00  0.00    +0.000 A 
ATOM      4  N   UNL     1       2.149   7.926  18.569  0.00  0.00    +0.000 N 
ATOM      5  C   UNL     1       2.365   7.049  19.608  0.00  0.00    +0.000 A 
ATOM      6  N   UNL     1       1.812   7.498  20.712  0.00  0.00    +0.000 NA
ATOM      7  C   UNL     1       1.160   8.657  20.360  0.00  0.00    +0.000 A 
ATOM      8  C   UNL     1       0.361   9.510  21.131  0.00  0.00    +0.000 A 
ATOM      9  C   UNL     1      -0.298  10.594  20.523  0.00  0.00    +0.000 A 
ATOM     10  H   UNL     1       2.474   7.807  17.621  0.00  0.00    +0.000 HD
ENDROOT
BRANCH   5  11
ATOM     11  C   UNL     1       3.122   5.764  19.408  0.00  0.00    +0.000 C 
ATOM     12  C   UNL     1       2.750   4.704  20.447  0.00  0.00    +0.000 C 
ATOM     13  C   UNL     1       1.394   4.048  20.195  0.00  0.00    +0.000 C 
ATOM     14  C   UNL     1       1.251   3.525  18.769  0.00  0.00    +0.000 C 
ATOM     15  C   UNL     1       1.622   4.559  17.711  0.00  0.00    +0.000 C 
ATOM     16  C   UNL     1       2.975   5.217  17.981  0.00  0.00    +0.000 C 
ENDBRANCH   5  11
BRANCH   9  17
ATOM     17  N   UNL     1      -1.160  11.434  21.278  0.00  0.00    +0.000 N 
ATOM     18  C   UNL     1      -0.772  12.561  21.985  0.00  0.00    +0.000 C 
ATOM     19  O   UNL     1       0.366  13.021  22.027  0.00  0.00    +0.000 OA
ATOM     20  H   UNL     1      -2.149  11.212  21.213  0.00  0.00    +0.000 HD
BRANCH  18  21
ATOM     21  C   UNL     1      -1.818  13.322  22.719  0.00  0.00    +0.000 A 
ATOM     22  C   UNL     1      -1.871  14.719  22.534  0.00  0.00    +0.000 A 
ATOM     23  C   UNL     1      -2.881  15.476  23.123  0.00  0.00    +0.000 A 
ATOM     24  C   UNL     1      -3.836  14.841  23.905  0.00  0.00    +0.000 A 
ATOM     25  F   UNL     1      -4.832  15.559  24.442  0.00  0.00    +0.000 F 
ATOM     26  C   UNL     1      -3.788  13.471  24.126  0.00  0.00    +0.000 A 
ATOM     27  C   UNL     1      -2.775  12.719  23.534  0.00  0.00    +0.000 A 
ATOM     28  F   UNL     1      -2.759  11.396  23.755  0.00  0.00    +0.000 F 
ENDBRANCH  18  21
ENDBRANCH   9  17
BRANCH   1  29
ATOM     29  S   UNL     1      -1.143  11.964  18.172  0.00  0.00    +0.000 S 
BRANCH  29  30
ATOM     30  C   UNL     1      -2.624  10.987  17.756  0.00  0.00    +0.000 C 
BRANCH  30  31
ATOM     31  C   UNL     1      -3.930  11.560  18.294  0.00  0.00    +0.000 C 
BRANCH  31  33
ATOM     32  C   UNL     1      -4.859  12.579  20.406  0.00  0.00    +0.000 C 
ATOM     33  C   UNL     1      -3.652  12.477  19.489  0.00  0.00    +0.000 C 
ENDBRANCH  31  33
ENDBRANCH  30  31
ENDBRANCH  29  30
ENDBRANCH   1  29
TORSDOF 7
ENDMDL
MODEL 5
REMARK VINA RESULT:      -8.1      4.732      9.926
REMARK  Name = 
REMARK  8 active torsions:
REMARK  status: ('A' for Active; 'I' for Inactive)
REMARK    1  A    between atoms: C_1  and  C_2
REMARK    2  A    between atoms: C_2  and  C_3
REMARK    3  A    between atoms: C_3  and  C_4
REMARK    4  A    between atoms: C_4  and  S_5
REMARK    5  A    between atoms: S_5  and  C_6
REMARK    6  A    between atoms: C_10  and  C_11
REMARK    7  A    between atoms: C_20  and  N_21
REMARK    8  A    between atoms: C_22  and  C_24
REMARK                            x       y       z     vdW  Elec       q    Type
REMARK                         _______ _______ _______ _____ _____    ______ ____
ROOT
ATOM      1  C   UNL     1       2.264   6.759  19.924  0.00  0.00    +0.000 A 
ATOM      2  C   UNL     1       1.585   7.484  20.924  0.00  0.00    +0.000 A 
ATOM      3  C   UNL     1       1.034   8.714  20.560  0.00  0.00    +0.000 A 
ATOM      4  N   UNL     1       0.253   9.612  21.235  0.00  0.00    +0.000 N 
ATOM      5  C   UNL     1      -0.119  10.608  20.360  0.00  0.00    +0.000 A 
ATOM      6  N   UNL     1       0.460  10.436  19.194  0.00  0.00    +0.000 NA
ATOM      7  C   UNL     1       1.165   9.259  19.295  0.00  0.00    +0.000 A 
ATOM      8  C   UNL     1       1.917   8.573  18.333  0.00  0.00    +0.000 A 
ATOM      9  C   UNL     1       2.469   7.316  18.638  0.00  0.00    +0.000 A 
ATOM     10  H   UNL     1      -0.057   9.523  22.191  0.00  0.00    +0.000 HD
ENDROOT
BRANCH   5  11
ATOM     11  C   UNL     1      -1.082  11.691  20.765  0.00  0.00    +0.000 C 
ATOM     12  C   UNL     1      -0.529  12.564  21.894  0.00  0.00    +0.000 C 
ATOM     13  C   UNL     1       0.536  13.558  21.436  0.00  0.00    +0.000 C 
ATOM     14  C   UNL     1       0.086  14.389  20.239  0.00  0.00    +0.000 C 
ATOM     15  C   UNL     1      -0.476  13.545  19.099  0.00  0.00    +0.000 C 
ATOM     16  C   UNL     1      -1.531  12.546  19.572  0.00  0.00    +0.000 C 
ENDBRANCH   5  11
BRANCH   9  17
ATOM     17  N   UNL     1       3.184   6.580  17.656  0.00  0.00    +0.000 N 
ATOM     18  C   UNL     1       4.548   6.335  17.665  0.00  0.00    +0.000 C 
ATOM     19  O   UNL     1       5.330   6.680  18.546  0.00  0.00    +0.000 OA
ATOM     20  H   UNL     1       2.611   6.143  16.940  0.00  0.00    +0.000 HD
BRANCH  18  21
ATOM     21  C   UNL     1       5.123   5.538  16.548  0.00  0.00    +0.000 A 
ATOM     22  C   UNL     1       5.507   4.208  16.814  0.00  0.00    +0.000 A 
ATOM     23  C   UNL     1       5.971   3.384  15.791  0.00  0.00    +0.000 A 
ATOM     24  C   UNL     1       6.059   3.889  14.500  0.00  0.00    +0.000 A 
ATOM     25  F   UNL     1       6.467   3.089  13.506  0.00  0.00    +0.000 F 
ATOM     26  C   UNL     1       5.715   5.205  14.219  0.00  0.00    +0.000 A 
ATOM     27  C   UNL     1       5.252   6.024  15.247  0.00  0.00    +0.000 A 
ATOM     28  F   UNL     1       4.916   7.287  14.945  0.00  0.00    +0.000 F 
ENDBRANCH  18  21
ENDBRANCH   9  17
BRANCH   1  29
ATOM     29  S   UNL     1       2.650   5.052  20.360  0.00  0.00    +0.000 S 
BRANCH  29  30
ATOM     30  C   UNL     1       1.013   4.254  20.426  0.00  0.00    +0.000 C 
BRANCH  30  31
ATOM     31  C   UNL     1       0.838   3.091  19.456  0.00  0.00    +0.000 C 
BRANCH  31  33
ATOM     32  C   UNL     1       2.463   2.195  17.750  0.00  0.00    +0.000 C 
ATOM     33  C   UNL     1       1.592   3.371  18.153  0.00  0.00    +0.000 C 
ENDBRANCH  31  33
ENDBRANCH  30  31
ENDBRANCH  29  30
ENDBRANCH   1  29
TORSDOF 7
ENDMDL
MODEL 6
REMARK VINA RESULT:      -8.1      1.169      1.262
REMARK  Name = 
REMARK  8 active torsions:
REMARK  status: ('A' for Active; 'I' for Inactive)
REMARK    1  A    between atoms: C_1  and  C_2
REMARK    2  A    between atoms: C_2  and  C_3
REMARK    3  A    between atoms: C_3  and  C_4
REMARK    4  A    between atoms: C_4  and  S_5
REMARK    5  A    between atoms: S_5  and  C_6
REMARK    6  A    between atoms: C_10  and  C_11
REMARK    7  A    between atoms: C_20  and  N_21
REMARK    8  A    between atoms: C_22  and  C_24
REMARK                            x       y       z     vdW  Elec       q    Type
REMARK                         _______ _______ _______ _____ _____    ______ ____
ROOT
ATOM      1  C   UNL     1      -0.044  10.967  19.103  0.00  0.00    +0.000 A 
ATOM      2  C   UNL     1       0.919  10.148  18.479  0.00  0.00    +0.000 A 
ATOM      3  C   UNL     1       1.371   9.035  19.190  0.00  0.00    +0.000 A 
ATOM      4  N   UNL     1       2.209   8.006  18.859  0.00  0.00    +0.000 N 
ATOM      5  C   UNL     1       2.214   7.099  19.895  0.00  0.00    +0.000 A 
ATOM      6  N   UNL     1       1.496   7.545  20.900  0.00  0.00    +0.000 NA
ATOM      7  C   UNL     1       0.953   8.735  20.474  0.00  0.00    +0.000 A 
ATOM      8  C   UNL     1       0.064   9.603  21.121  0.00  0.00    +0.000 A 
ATOM      9  C   UNL     1      -0.444  10.723  20.439  0.00  0.00    +0.000 A 
ATOM     10  H   UNL     1       2.687   7.894  17.978  0.00  0.00    +0.000 HD
ENDROOT
BRANCH   5  11
ATOM     11  C   UNL     1       2.950   5.791  19.792  0.00  0.00    +0.000 C 
ATOM     12  C   UNL     1       2.375   4.727  20.730  0.00  0.00    +0.000 C 
ATOM     13  C   UNL     1       1.058   4.126  20.242  0.00  0.00    +0.000 C 
ATOM     14  C   UNL     1       1.136   3.635  18.800  0.00  0.00    +0.000 C 
ATOM     15  C   UNL     1       1.712   4.673  17.842  0.00  0.00    +0.000 C 
ATOM     16  C   UNL     1       3.022   5.276  18.348  0.00  0.00    +0.000 C 
ENDBRANCH   5  11
BRANCH   9  17
ATOM     17  N   UNL     1      -1.394  11.579  21.059  0.00  0.00    +0.000 N 
ATOM     18  C   UNL     1      -1.429  11.904  22.406  0.00  0.00    +0.000 C 
ATOM     19  O   UNL     1      -0.619  11.534  23.251  0.00  0.00    +0.000 OA
ATOM     20  H   UNL     1      -2.042  12.039  20.426  0.00  0.00    +0.000 HD
BRANCH  18  21
ATOM     21  C   UNL     1      -2.500  12.823  22.876  0.00  0.00    +0.000 A 
ATOM     22  C   UNL     1      -3.820  12.572  22.448  0.00  0.00    +0.000 A 
ATOM     23  C   UNL     1      -4.879  13.343  22.923  0.00  0.00    +0.000 A 
ATOM     24  C   UNL     1      -4.621  14.371  23.821  0.00  0.00    +0.000 A 
ATOM     25  F   UNL     1      -5.640  15.090  24.310  0.00  0.00    +0.000 F 
ATOM     26  C   UNL     1      -3.326  14.656  24.233  0.00  0.00    +0.000 A 
ATOM     27  C   UNL     1      -2.271  13.882  23.754  0.00  0.00    +0.000 A 
ATOM     28  F   UNL     1      -1.032  14.171  24.178  0.00  0.00    +0.000 F 
ENDBRANCH  18  21
ENDBRANCH   9  17
BRANCH   1  29
ATOM     29  S   UNL     1      -0.827  12.174  18.017  0.00  0.00    +0.000 S 
BRANCH  29  30
ATOM     30  C   UNL     1      -2.323  11.311  17.436  0.00  0.00    +0.000 C 
BRANCH  30  31
ATOM     31  C   UNL     1      -3.578  11.606  18.250  0.00  0.00    +0.000 C 
BRANCH  31  33
ATOM     32  C   UNL     1      -5.991  10.897  18.432  0.00  0.00    +0.000 C 
ATOM     33  C   UNL     1      -4.823  11.136  17.492  0.00  0.00    +0.000 C 
ENDBRANCH  31  33
ENDBRANCH  30  31
ENDBRANCH  29  30
ENDBRANCH   1  29
TORSDOF 7
ENDMDL
MODEL 7
REMARK VINA RESULT:      -8.0      1.602      2.090
REMARK  Name = 
REMARK  8 active torsions:
REMARK  status: ('A' for Active; 'I' for Inactive)
REMARK    1  A    between atoms: C_1  and  C_2
REMARK    2  A    between atoms: C_2  and  C_3
REMARK    3  A    between atoms: C_3  and  C_4
REMARK    4  A    between atoms: C_4  and  S_5
REMARK    5  A    between atoms: S_5  and  C_6
REMARK    6  A    between atoms: C_10  and  C_11
REMARK    7  A    between atoms: C_20  and  N_21
REMARK    8  A    between atoms: C_22  and  C_24
REMARK                            x       y       z     vdW  Elec       q    Type
REMARK                         _______ _______ _______ _____ _____    ______ ____
ROOT
ATOM      1  C   UNL     1       0.756  10.417  19.222  0.00  0.00    +0.000 A 
ATOM      2  C   UNL     1       1.606   9.506  18.562  0.00  0.00    +0.000 A 
ATOM      3  C   UNL     1       1.887   8.305  19.215  0.00  0.00    +0.000 A 
ATOM      4  N   UNL     1       2.579   7.187  18.837  0.00  0.00    +0.000 N 
ATOM      5  C   UNL     1       2.441   6.236  19.822  0.00  0.00    +0.000 A 
ATOM      6  N   UNL     1       1.776   6.725  20.844  0.00  0.00    +0.000 NA
ATOM      7  C   UNL     1       1.411   8.000  20.478  0.00  0.00    +0.000 A 
ATOM      8  C   UNL     1       0.641   8.948  21.163  0.00  0.00    +0.000 A 
ATOM      9  C   UNL     1       0.305  10.163  20.539  0.00  0.00    +0.000 A 
ATOM     10  H   UNL     1       3.051   7.056  17.955  0.00  0.00    +0.000 HD
ENDROOT
BRANCH   5  11
ATOM     11  C   UNL     1       2.989   4.845  19.655  0.00  0.00    +0.000 C 
ATOM     12  C   UNL     1       2.354   3.850  20.630  0.00  0.00    +0.000 C 
ATOM     13  C   UNL     1       0.936   3.434  20.244  0.00  0.00    +0.000 C 
ATOM     14  C   UNL     1       0.838   2.959  18.798  0.00  0.00    +0.000 C 
ATOM     15  C   UNL     1       1.469   3.928  17.803  0.00  0.00    +0.000 C 
ATOM     16  C   UNL     1       2.882   4.347  18.207  0.00  0.00    +0.000 C 
ENDBRANCH   5  11
BRANCH   9  17
ATOM     17  N   UNL     1      -0.526  11.110  21.196  0.00  0.00    +0.000 N 
ATOM     18  C   UNL     1      -0.712  11.207  22.566  0.00  0.00    +0.000 C 
ATOM     19  O   UNL     1      -0.152  10.517  23.413  0.00  0.00    +0.000 OA
ATOM     20  H   UNL     1      -0.946  11.811  20.593  0.00  0.00    +0.000 HD
BRANCH  18  21
ATOM     21  C   UNL     1      -1.622  12.268  23.075  0.00  0.00    +0.000 A 
ATOM     22  C   UNL     1      -2.911  11.885  23.500  0.00  0.00    +0.000 A 
ATOM     23  C   UNL     1      -3.777  12.816  24.067  0.00  0.00    +0.000 A 
ATOM     24  C   UNL     1      -3.361  14.134  24.205  0.00  0.00    +0.000 A 
ATOM     25  F   UNL     1      -4.177  15.025  24.786  0.00  0.00    +0.000 F 
ATOM     26  C   UNL     1      -2.108  14.541  23.767  0.00  0.00    +0.000 A 
ATOM     27  C   UNL     1      -1.246  13.605  23.200  0.00  0.00    +0.000 A 
ATOM     28  F   UNL     1      -0.037  14.023  22.796  0.00  0.00    +0.000 F 
ENDBRANCH  18  21
ENDBRANCH   9  17
BRANCH   1  29
ATOM     29  S   UNL     1       0.166  11.777  18.195  0.00  0.00    +0.000 S 
BRANCH  29  30
ATOM     30  C   UNL     1       1.443  13.058  18.418  0.00  0.00    +0.000 C 
BRANCH  30  31
ATOM     31  C   UNL     1       1.015  14.231  19.293  0.00  0.00    +0.000 C 
BRANCH  31  33
ATOM     32  C   UNL     1      -0.996  15.583  19.990  0.00  0.00    +0.000 C 
ATOM     33  C   UNL     1      -0.509  14.255  19.436  0.00  0.00    +0.000 C 
ENDBRANCH  31  33
ENDBRANCH  30  31
ENDBRANCH  29  30
ENDBRANCH   1  29
TORSDOF 7
ENDMDL
MODEL 8
REMARK VINA RESULT:      -8.0      4.859     10.026
REMARK  Name = 
REMARK  8 active torsions:
REMARK  status: ('A' for Active; 'I' for Inactive)
REMARK    1  A    between atoms: C_1  and  C_2
REMARK    2  A    between atoms: C_2  and  C_3
REMARK    3  A    between atoms: C_3  and  C_4
REMARK    4  A    between atoms: C_4  and  S_5
REMARK    5  A    between atoms: S_5  and  C_6
REMARK    6  A    between atoms: C_10  and  C_11
REMARK    7  A    between atoms: C_20  and  N_21
REMARK    8  A    between atoms: C_22  and  C_24
REMARK                            x       y       z     vdW  Elec       q    Type
REMARK                         _______ _______ _______ _____ _____    ______ ____
ROOT
ATOM      1  C   UNL     1       2.209   6.962  19.936  0.00  0.00    +0.000 A 
ATOM      2  C   UNL     1       1.565   7.791  20.877  0.00  0.00    +0.000 A 
ATOM      3  C   UNL     1       1.033   8.994  20.410  0.00  0.00    +0.000 A 
ATOM      4  N   UNL     1       0.284   9.968  21.012  0.00  0.00    +0.000 N 
ATOM      5  C   UNL     1      -0.084  10.888  20.055  0.00  0.00    +0.000 A 
ATOM      6  N   UNL     1       0.470  10.595  18.899  0.00  0.00    +0.000 NA
ATOM      7  C   UNL     1       1.152   9.417  19.098  0.00  0.00    +0.000 A 
ATOM      8  C   UNL     1       1.870   8.629  18.191  0.00  0.00    +0.000 A 
ATOM      9  C   UNL     1       2.402   7.393  18.602  0.00  0.00    +0.000 A 
ATOM     10  H   UNL     1      -0.009   9.976  21.977  0.00  0.00    +0.000 HD
ENDROOT
BRANCH   5  11
ATOM     11  C   UNL     1      -1.015  12.025  20.374  0.00  0.00    +0.000 C 
ATOM     12  C   UNL     1      -0.605  12.770  21.647  0.00  0.00    +0.000 C 
ATOM     13  C   UNL     1       0.599  13.691  21.458  0.00  0.00    +0.000 C 
ATOM     14  C   UNL     1       0.434  14.635  20.272  0.00  0.00    +0.000 C 
ATOM     15  C   UNL     1       0.020  13.921  18.989  0.00  0.00    +0.000 C 
ATOM     16  C   UNL     1      -1.177  12.993  19.194  0.00  0.00    +0.000 C 
ENDBRANCH   5  11
BRANCH   9  17
ATOM     17  N   UNL     1       3.081   6.553  17.680  0.00  0.00    +0.000 N 
ATOM     18  C   UNL     1       4.446   6.559  17.437  0.00  0.00    +0.000 C 
ATOM     19  O   UNL     1       5.271   7.260  18.017  0.00  0.00    +0.000 OA
ATOM     20  H   UNL     1       2.506   5.847  17.230  0.00  0.00    +0.000 HD
BRANCH  18  21
ATOM     21  C   UNL     1       4.983   5.602  16.433  0.00  0.00    +0.000 A 
ATOM     22  C   UNL     1       5.230   6.082  15.130  0.00  0.00    +0.000 A 
ATOM     23  C   UNL     1       5.814   5.259  14.169  0.00  0.00    +0.000 A 
ATOM     24  C   UNL     1       6.144   3.952  14.505  0.00  0.00    +0.000 A 
ATOM     25  F   UNL     1       6.740   3.169  13.596  0.00  0.00    +0.000 F 
ATOM     26  C   UNL     1       5.882   3.448  15.772  0.00  0.00    +0.000 A 
ATOM     27  C   UNL     1       5.298   4.276  16.729  0.00  0.00    +0.000 A 
ATOM     28  F   UNL     1       5.066   3.767  17.948  0.00  0.00    +0.000 F 
ENDBRANCH  18  21
ENDBRANCH   9  17
BRANCH   1  29
ATOM     29  S   UNL     1       2.567   5.294  20.522  0.00  0.00    +0.000 S 
BRANCH  29  30
ATOM     30  C   UNL     1       0.975   4.429  20.328  0.00  0.00    +0.000 C 
BRANCH  30  31
ATOM     31  C   UNL     1       1.092   2.915  20.187  0.00  0.00    +0.000 C 
BRANCH  31  33
ATOM     32  C   UNL     1       2.169   2.251  18.006  0.00  0.00    +0.000 C 
ATOM     33  C   UNL     1       0.858   2.500  18.732  0.00  0.00    +0.000 C 
ENDBRANCH  31  33
ENDBRANCH  30  31
ENDBRANCH  29  30
ENDBRANCH   1  29
TORSDOF 7
ENDMDL
MODEL 9
REMARK VINA RESULT:      -8.0      1.393      1.715
REMARK  Name = 
REMARK  8 active torsions:
REMARK  status: ('A' for Active; 'I' for Inactive)
REMARK    1  A    between atoms: C_1  and  C_2
REMARK    2  A    between atoms: C_2  and  C_3
REMARK    3  A    between atoms: C_3  and  C_4
REMARK    4  A    between atoms: C_4  and  S_5
REMARK    5  A    between atoms: S_5  and  C_6
REMARK    6  A    between atoms: C_10  and  C_11
REMARK    7  A    between atoms: C_20  and  N_21
REMARK    8  A    between atoms: C_22  and  C_24
REMARK                            x       y       z     vdW  Elec       q    Type
REMARK                         _______ _______ _______ _____ _____    ______ ____
ROOT
ATOM      1  C   UNL     1       0.595   9.851  18.751  0.00  0.00    +0.000 A 
ATOM      2  C   UNL     1       1.459   9.078  17.949  0.00  0.00    +0.000 A 
ATOM      3  C   UNL     1       2.086   7.986  18.552  0.00  0.00    +0.000 A 
ATOM      4  N   UNL     1       2.892   6.997  18.060  0.00  0.00    +0.000 N 
ATOM      5  C   UNL     1       3.132   6.090  19.068  0.00  0.00    +0.000 A 
ATOM      6  N   UNL     1       2.596   6.503  20.195  0.00  0.00    +0.000 NA
ATOM      7  C   UNL     1       1.931   7.667  19.889  0.00  0.00    +0.000 A 
ATOM      8  C   UNL     1       1.141   8.492  20.699  0.00  0.00    +0.000 A 
ATOM      9  C   UNL     1       0.464   9.588  20.136  0.00  0.00    +0.000 A 
ATOM     10  H   UNL     1       3.201   6.907  17.103  0.00  0.00    +0.000 HD
ENDROOT
BRANCH   5  11
ATOM     11  C   UNL     1       3.894   4.818  18.816  0.00  0.00    +0.000 C 
ATOM     12  C   UNL     1       3.627   3.760  19.891  0.00  0.00    +0.000 C 
ATOM     13  C   UNL     1       2.267   3.078  19.755  0.00  0.00    +0.000 C 
ATOM     14  C   UNL     1       2.018   2.540  18.350  0.00  0.00    +0.000 C 
ATOM     15  C   UNL     1       2.283   3.571  17.257  0.00  0.00    +0.000 C 
ATOM     16  C   UNL     1       3.640   4.255  17.411  0.00  0.00    +0.000 C 
ENDBRANCH   5  11
BRANCH   9  17
ATOM     17  N   UNL     1      -0.389  10.400  20.930  0.00  0.00    +0.000 N 
ATOM     18  C   UNL     1      -0.034  11.598  21.531  0.00  0.00    +0.000 C 
ATOM     19  O   UNL     1       1.056  12.153  21.426  0.00  0.00    +0.000 OA
ATOM     20  H   UNL     1      -1.356  10.093  20.983  0.00  0.00    +0.000 HD
BRANCH  18  21
ATOM     21  C   UNL     1      -1.066  12.314  22.328  0.00  0.00    +0.000 A 
ATOM     22  C   UNL     1      -1.224  13.699  22.112  0.00  0.00    +0.000 A 
ATOM     23  C   UNL     1      -2.230  14.409  22.763  0.00  0.00    +0.000 A 
ATOM     24  C   UNL     1      -3.077  13.739  23.637  0.00  0.00    +0.000 A 
ATOM     25  F   UNL     1      -4.070  14.410  24.235  0.00  0.00    +0.000 F 
ATOM     26  C   UNL     1      -2.921  12.382  23.888  0.00  0.00    +0.000 A 
ATOM     27  C   UNL     1      -1.912  11.678  23.235  0.00  0.00    +0.000 A 
ATOM     28  F   UNL     1      -1.793  10.365  23.487  0.00  0.00    +0.000 F 
ENDBRANCH  18  21
ENDBRANCH   9  17
BRANCH   1  29
ATOM     29  S   UNL     1      -0.432  11.022  17.841  0.00  0.00    +0.000 S 
BRANCH  29  30
ATOM     30  C   UNL     1      -2.023  10.148  17.676  0.00  0.00    +0.000 C 
BRANCH  30  31
ATOM     31  C   UNL     1      -2.419   9.825  16.240  0.00  0.00    +0.000 C 
BRANCH  31  33
ATOM     32  C   UNL     1      -4.317  11.401  16.758  0.00  0.00    +0.000 C 
ATOM     33  C   UNL     1      -3.354  10.908  15.693  0.00  0.00    +0.000 C 
ENDBRANCH  31  33
ENDBRANCH  30  31
ENDBRANCH  29  30
ENDBRANCH   1  29
TORSDOF 7
ENDMDL
