MODEL 1
REMARK VINA RESULT:      -8.0      0.000      0.000
REMARK  Name = 
REMARK  6 active torsions:
REMARK  status: ('A' for Active; 'I' for Inactive)
REMARK    1  A    between atoms: C_1  and  C_2
REMARK    2  A    between atoms: C_5  and  S_6
REMARK    3  A    between atoms: S_6  and  N_9
REMARK    4  A    between atoms: N_12  and  C_13
REMARK    5  A    between atoms: C_13  and  C_14
REMARK    6  A    between atoms: C_13  and  C_20
REMARK                            x       y       z     vdW  Elec       q    Type
REMARK                         _______ _______ _______ _____ _____    ______ ____
ROOT
ATOM      1  N   UNL     1       4.997   5.901  16.699  0.00  0.00    +0.000 NA
ATOM      2  C   UNL     1       4.773   7.255  17.255  0.00  0.00    +0.000 C 
ATOM      3  C   UNL     1       3.296   7.585  17.484  0.00  0.00    +0.000 C 
ATOM      4  N   UNL     1       2.526   6.567  18.195  0.00  0.00    +0.000 NA
ATOM      5  C   UNL     1       2.676   5.267  17.546  0.00  0.00    +0.000 C 
ATOM      6  C   UNL     1       4.103   4.816  17.184  0.00  0.00    +0.000 C 
ENDROOT
BRANCH   1   7
ATOM      7  S   UNL     1       6.655   5.479  16.502  0.00  0.00    +0.000 S 
ATOM      8  O   UNL     1       6.915   4.392  17.418  0.00  0.00    +0.000 OA
ATOM      9  O   UNL     1       7.442   6.703  16.522  0.00  0.00    +0.000 OA
BRANCH   7  14
ATOM     10  C   UNL     1       7.265   3.094  10.920  0.00  0.00    +0.000 C 
ATOM     11  C   UNL     1       7.001   3.750  12.249  0.00  0.00    +0.000 A 
ATOM     12  C   UNL     1       6.060   3.227  13.152  0.00  0.00    +0.000 A 
ATOM     13  C   UNL     1       5.955   3.735  14.453  0.00  0.00    +0.000 A 
ATOM     14  C   UNL     1       6.772   4.792  14.846  0.00  0.00    +0.000 A 
ATOM     15  C   UNL     1       7.658   5.373  13.926  0.00  0.00    +0.000 A 
ATOM     16  C   UNL     1       7.779   4.842  12.640  0.00  0.00    +0.000 A 
ENDBRANCH   7  14
ENDBRANCH   1   7
BRANCH   4  17
ATOM     17  C   UNL     1       2.444   6.597  19.668  0.00  0.00    +0.000 C 
BRANCH  17  18
ATOM     18  C   UNL     1       1.685   7.767  20.306  0.00  0.00    +0.000 A 
ATOM     19  C   UNL     1       1.462   8.957  19.587  0.00  0.00    +0.000 A 
ATOM     20  C   UNL     1       0.459   9.839  19.967  0.00  0.00    +0.000 A 
ATOM     21  C   UNL     1      -0.307   9.576  21.101  0.00  0.00    +0.000 A 
ATOM     22  C   UNL     1      -0.026   8.461  21.886  0.00  0.00    +0.000 A 
ATOM     23  C   UNL     1       0.963   7.558  21.492  0.00  0.00    +0.000 A 
ENDBRANCH  17  18
BRANCH  17  24
ATOM     24  C   UNL     1       2.021   5.232  20.277  0.00  0.00    +0.000 A 
ATOM     25  C   UNL     1       2.767   4.657  21.320  0.00  0.00    +0.000 A 
ATOM     26  C   UNL     1       2.446   3.392  21.823  0.00  0.00    +0.000 A 
ATOM     27  C   UNL     1       1.364   2.678  21.309  0.00  0.00    +0.000 A 
ATOM     28  C   UNL     1       0.563   3.251  20.331  0.00  0.00    +0.000 A 
ATOM     29  C   UNL     1       0.866   4.529  19.862  0.00  0.00    +0.000 A 
ENDBRANCH  17  24
ENDBRANCH   4  17
TORSDOF 5
ENDMDL
MODEL 2
REMARK VINA RESULT:      -8.0      2.728      7.635
REMARK  Name = 
REMARK  6 active torsions:
REMARK  status: ('A' for Active; 'I' for Inactive)
REMARK    1  A    between atoms: C_1  and  C_2
REMARK    2  A    between atoms: C_5  and  S_6
REMARK    3  A    between atoms: S_6  and  N_9
REMARK    4  A    between atoms: N_12  and  C_13
REMARK    5  A    between atoms: C_13  and  C_14
REMARK    6  A    between atoms: C_13  and  C_20
REMARK                            x       y       z     vdW  Elec       q    Type
REMARK                         _______ _______ _______ _____ _____    ______ ____
ROOT
ATOM      1  N   UNL     1       2.660   3.799  19.206  0.00  0.00    +0.000 NA
ATOM      2  C   UNL     1       4.130   3.845  19.374  0.00  0.00    +0.000 C 
ATOM      3  C   UNL     1       4.899   3.235  18.199  0.00  0.00    +0.000 C 
ATOM      4  N   UNL     1       4.484   3.687  16.872  0.00  0.00    +0.000 NA
ATOM      5  C   UNL     1       3.045   3.514  16.700  0.00  0.00    +0.000 C 
ATOM      6  C   UNL     1       2.130   4.016  17.833  0.00  0.00    +0.000 C 
ENDROOT
BRANCH   1   7
ATOM      7  S   UNL     1       1.775   4.545  20.481  0.00  0.00    +0.000 S 
ATOM      8  O   UNL     1       2.595   4.439  21.668  0.00  0.00    +0.000 OA
ATOM      9  O   UNL     1       0.411   4.041  20.445  0.00  0.00    +0.000 OA
BRANCH   7  14
ATOM     10  C   UNL     1       1.452  10.415  18.851  0.00  0.00    +0.000 C 
ATOM     11  C   UNL     1       1.641   9.003  19.334  0.00  0.00    +0.000 A 
ATOM     12  C   UNL     1       1.126   8.573  20.569  0.00  0.00    +0.000 A 
ATOM     13  C   UNL     1       1.149   7.218  20.924  0.00  0.00    +0.000 A 
ATOM     14  C   UNL     1       1.716   6.290  20.054  0.00  0.00    +0.000 A 
ATOM     15  C   UNL     1       2.304   6.719  18.855  0.00  0.00    +0.000 A 
ATOM     16  C   UNL     1       2.252   8.067  18.495  0.00  0.00    +0.000 A 
ENDBRANCH   7  14
ENDBRANCH   1   7
BRANCH   4  17
ATOM     17  C   UNL     1       5.113   4.877  16.267  0.00  0.00    +0.000 C 
BRANCH  17  18
ATOM     18  C   UNL     1       5.984   5.752  17.176  0.00  0.00    +0.000 A 
ATOM     19  C   UNL     1       6.995   5.179  17.971  0.00  0.00    +0.000 A 
ATOM     20  C   UNL     1       8.036   5.954  18.467  0.00  0.00    +0.000 A 
ATOM     21  C   UNL     1       8.059   7.325  18.221  0.00  0.00    +0.000 A 
ATOM     22  C   UNL     1       7.010   7.926  17.531  0.00  0.00    +0.000 A 
ATOM     23  C   UNL     1       5.978   7.146  17.008  0.00  0.00    +0.000 A 
ENDBRANCH  17  18
BRANCH  17  24
ATOM     24  C   UNL     1       5.814   4.568  14.916  0.00  0.00    +0.000 A 
ATOM     25  C   UNL     1       7.076   5.116  14.628  0.00  0.00    +0.000 A 
ATOM     26  C   UNL     1       7.683   4.913  13.384  0.00  0.00    +0.000 A 
ATOM     27  C   UNL     1       7.053   4.147  12.405  0.00  0.00    +0.000 A 
ATOM     28  C   UNL     1       5.842   3.530  12.686  0.00  0.00    +0.000 A 
ATOM     29  C   UNL     1       5.261   3.705  13.942  0.00  0.00    +0.000 A 
ENDBRANCH  17  24
ENDBRANCH   4  17
TORSDOF 5
ENDMDL
MODEL 3
REMARK VINA RESULT:      -7.9      6.428     10.896
REMARK  Name = 
REMARK  6 active torsions:
REMARK  status: ('A' for Active; 'I' for Inactive)
REMARK    1  A    between atoms: C_1  and  C_2
REMARK    2  A    between atoms: C_5  and  S_6
REMARK    3  A    between atoms: S_6  and  N_9
REMARK    4  A    between atoms: N_12  and  C_13
REMARK    5  A    between atoms: C_13  and  C_14
REMARK    6  A    between atoms: C_13  and  C_20
REMARK                            x       y       z     vdW  Elec       q    Type
REMARK                         _______ _______ _______ _____ _____    ______ ____
ROOT
ATOM      1  N   UNL     1       0.435  14.593  20.543  0.00  0.00    +0.000 NA
ATOM      2  C   UNL     1      -0.703  14.271  19.652  0.00  0.00    +0.000 C 
ATOM      3  C   UNL     1      -0.312  13.406  18.451  0.00  0.00    +0.000 C 
ATOM      4  N   UNL     1       0.494  12.227  18.760  0.00  0.00    +0.000 NA
ATOM      5  C   UNL     1       1.671  12.601  19.538  0.00  0.00    +0.000 C 
ATOM      6  C   UNL     1       1.456  13.531  20.747  0.00  0.00    +0.000 C 
ENDROOT
BRANCH   1   7
ATOM      7  S   UNL     1       0.007  15.504  21.941  0.00  0.00    +0.000 S 
ATOM      8  O   UNL     1      -0.513  16.767  21.466  0.00  0.00    +0.000 OA
ATOM      9  O   UNL     1       1.112  15.437  22.884  0.00  0.00    +0.000 OA
BRANCH   7  14
ATOM     10  C   UNL     1      -4.574  12.481  24.605  0.00  0.00    +0.000 C 
ATOM     11  C   UNL     1      -3.507  13.200  23.825  0.00  0.00    +0.000 A 
ATOM     12  C   UNL     1      -3.678  14.527  23.395  0.00  0.00    +0.000 A 
ATOM     13  C   UNL     1      -2.614  15.243  22.833  0.00  0.00    +0.000 A 
ATOM     14  C   UNL     1      -1.378  14.621  22.671  0.00  0.00    +0.000 A 
ATOM     15  C   UNL     1      -1.218  13.273  23.024  0.00  0.00    +0.000 A 
ATOM     16  C   UNL     1      -2.276  12.575  23.611  0.00  0.00    +0.000 A 
ENDBRANCH   7  14
ENDBRANCH   1   7
BRANCH   4  17
ATOM     17  C   UNL     1      -0.164  10.944  19.079  0.00  0.00    +0.000 C 
BRANCH  17  18
ATOM     18  C   UNL     1      -1.488  10.638  18.369  0.00  0.00    +0.000 A 
ATOM     19  C   UNL     1      -2.672  11.307  18.735  0.00  0.00    +0.000 A 
ATOM     20  C   UNL     1      -3.756  11.358  17.869  0.00  0.00    +0.000 A 
ATOM     21  C   UNL     1      -3.699  10.699  16.643  0.00  0.00    +0.000 A 
ATOM     22  C   UNL     1      -2.579   9.940  16.313  0.00  0.00    +0.000 A 
ATOM     23  C   UNL     1      -1.477   9.910  17.168  0.00  0.00    +0.000 A 
ENDBRANCH  17  18
BRANCH  17  24
ATOM     24  C   UNL     1       0.812   9.737  19.031  0.00  0.00    +0.000 A 
ATOM     25  C   UNL     1       1.541   9.457  17.863  0.00  0.00    +0.000 A 
ATOM     26  C   UNL     1       2.362   8.327  17.778  0.00  0.00    +0.000 A 
ATOM     27  C   UNL     1       2.485   7.458  18.861  0.00  0.00    +0.000 A 
ATOM     28  C   UNL     1       1.837   7.748  20.053  0.00  0.00    +0.000 A 
ATOM     29  C   UNL     1       1.052   8.897  20.144  0.00  0.00    +0.000 A 
ENDBRANCH  17  24
ENDBRANCH   4  17
TORSDOF 5
ENDMDL
MODEL 4
REMARK VINA RESULT:      -7.7      6.444     10.897
REMARK  Name = 
REMARK  6 active torsions:
REMARK  status: ('A' for Active; 'I' for Inactive)
REMARK    1  A    between atoms: C_1  and  C_2
REMARK    2  A    between atoms: C_5  and  S_6
REMARK    3  A    between atoms: S_6  and  N_9
REMARK    4  A    between atoms: N_12  and  C_13
REMARK    5  A    between atoms: C_13  and  C_14
REMARK    6  A    between atoms: C_13  and  C_20
REMARK                            x       y       z     vdW  Elec       q    Type
REMARK                         _______ _______ _______ _____ _____    ______ ____
ROOT
ATOM      1  N   UNL     1       0.527  14.596  20.452  0.00  0.00    +0.000 NA
ATOM      2  C   UNL     1      -0.635  14.315  19.580  0.00  0.00    +0.000 C 
ATOM      3  C   UNL     1      -0.301  13.415  18.387  0.00  0.00    +0.000 C 
ATOM      4  N   UNL     1       0.452  12.204  18.704  0.00  0.00    +0.000 NA
ATOM      5  C   UNL     1       1.655  12.533  19.462  0.00  0.00    +0.000 C 
ATOM      6  C   UNL     1       1.499  13.489  20.660  0.00  0.00    +0.000 C 
ENDROOT
BRANCH   1   7
ATOM      7  S   UNL     1       0.160  15.546  21.841  0.00  0.00    +0.000 S 
ATOM      8  O   UNL     1      -0.280  16.834  21.355  0.00  0.00    +0.000 OA
ATOM      9  O   UNL     1       1.260  15.418  22.784  0.00  0.00    +0.000 OA
BRANCH   7  14
ATOM     10  C   UNL     1      -4.824  12.898  24.159  0.00  0.00    +0.000 C 
ATOM     11  C   UNL     1      -3.554  13.575  23.720  0.00  0.00    +0.000 A 
ATOM     12  C   UNL     1      -2.329  12.886  23.680  0.00  0.00    +0.000 A 
ATOM     13  C   UNL     1      -1.196  13.470  23.099  0.00  0.00    +0.000 A 
ATOM     14  C   UNL     1      -1.277  14.760  22.582  0.00  0.00    +0.000 A 
ATOM     15  C   UNL     1      -2.473  15.486  22.688  0.00  0.00    +0.000 A 
ATOM     16  C   UNL     1      -3.606  14.887  23.242  0.00  0.00    +0.000 A 
ENDBRANCH   7  14
ENDBRANCH   1   7
BRANCH   4  17
ATOM     17  C   UNL     1      -0.261  10.959  19.050  0.00  0.00    +0.000 C 
BRANCH  17  18
ATOM     18  C   UNL     1      -1.583  10.681  18.324  0.00  0.00    +0.000 A 
ATOM     19  C   UNL     1      -2.765  11.348  18.702  0.00  0.00    +0.000 A 
ATOM     20  C   UNL     1      -3.844  11.430  17.831  0.00  0.00    +0.000 A 
ATOM     21  C   UNL     1      -3.783  10.805  16.587  0.00  0.00    +0.000 A 
ATOM     22  C   UNL     1      -2.666  10.049  16.242  0.00  0.00    +0.000 A 
ATOM     23  C   UNL     1      -1.570   9.987  17.103  0.00  0.00    +0.000 A 
ENDBRANCH  17  18
BRANCH  17  24
ATOM     24  C   UNL     1       0.667   9.713  19.059  0.00  0.00    +0.000 A 
ATOM     25  C   UNL     1       0.814   8.945  20.226  0.00  0.00    +0.000 A 
ATOM     26  C   UNL     1       1.708   7.869  20.273  0.00  0.00    +0.000 A 
ATOM     27  C   UNL     1       2.463   7.526  19.153  0.00  0.00    +0.000 A 
ATOM     28  C   UNL     1       2.283   8.218  17.963  0.00  0.00    +0.000 A 
ATOM     29  C   UNL     1       1.362   9.263  17.912  0.00  0.00    +0.000 A 
ENDBRANCH  17  24
ENDBRANCH   4  17
TORSDOF 5
ENDMDL
MODEL 5
REMARK VINA RESULT:      -7.7      2.733      7.533
REMARK  Name = 
REMARK  6 active torsions:
REMARK  status: ('A' for Active; 'I' for Inactive)
REMARK    1  A    between atoms: C_1  and  C_2
REMARK    2  A    between atoms: C_5  and  S_6
REMARK    3  A    between atoms: S_6  and  N_9
REMARK    4  A    between atoms: N_12  and  C_13
REMARK    5  A    between atoms: C_13  and  C_14
REMARK    6  A    between atoms: C_13  and  C_20
REMARK                            x       y       z     vdW  Elec       q    Type
REMARK                         _______ _______ _______ _____ _____    ______ ____
ROOT
ATOM      1  N   UNL     1       2.959   3.864  19.120  0.00  0.00    +0.000 NA
ATOM      2  C   UNL     1       4.408   4.062  19.354  0.00  0.00    +0.000 C 
ATOM      3  C   UNL     1       5.295   3.371  18.314  0.00  0.00    +0.000 C 
ATOM      4  N   UNL     1       4.928   3.605  16.919  0.00  0.00    +0.000 NA
ATOM      5  C   UNL     1       3.520   3.285  16.700  0.00  0.00    +0.000 C 
ATOM      6  C   UNL     1       2.499   3.850  17.705  0.00  0.00    +0.000 C 
ENDROOT
BRANCH   1   7
ATOM      7  S   UNL     1       1.940   4.692  20.234  0.00  0.00    +0.000 S 
ATOM      8  O   UNL     1       2.626   4.679  21.507  0.00  0.00    +0.000 OA
ATOM      9  O   UNL     1       0.589   4.175  20.087  0.00  0.00    +0.000 OA
BRANCH   7  14
ATOM     10  C   UNL     1       1.754  10.434  18.180  0.00  0.00    +0.000 C 
ATOM     11  C   UNL     1       1.916   9.053  18.757  0.00  0.00    +0.000 A 
ATOM     12  C   UNL     1       1.475   8.742  20.055  0.00  0.00    +0.000 A 
ATOM     13  C   UNL     1       1.465   7.418  20.511  0.00  0.00    +0.000 A 
ATOM     14  C   UNL     1       1.926   6.401  19.678  0.00  0.00    +0.000 A 
ATOM     15  C   UNL     1       2.442   6.711  18.412  0.00  0.00    +0.000 A 
ATOM     16  C   UNL     1       2.423   8.030  17.952  0.00  0.00    +0.000 A 
ENDBRANCH   7  14
ENDBRANCH   1   7
BRANCH   4  17
ATOM     17  C   UNL     1       5.494   4.755  16.188  0.00  0.00    +0.000 C 
BRANCH  17  18
ATOM     18  C   UNL     1       6.584   5.570  16.895  0.00  0.00    +0.000 A 
ATOM     19  C   UNL     1       6.574   6.978  16.850  0.00  0.00    +0.000 A 
ATOM     20  C   UNL     1       7.274   7.725  17.788  0.00  0.00    +0.000 A 
ATOM     21  C   UNL     1       8.038   7.082  18.759  0.00  0.00    +0.000 A 
ATOM     22  C   UNL     1       8.149   5.694  18.751  0.00  0.00    +0.000 A 
ATOM     23  C   UNL     1       7.425   4.940  17.827  0.00  0.00    +0.000 A 
ENDBRANCH  17  18
BRANCH  17  24
ATOM     24  C   UNL     1       5.889   4.408  14.727  0.00  0.00    +0.000 A 
ATOM     25  C   UNL     1       7.122   4.830  14.203  0.00  0.00    +0.000 A 
ATOM     26  C   UNL     1       7.456   4.594  12.865  0.00  0.00    +0.000 A 
ATOM     27  C   UNL     1       6.574   3.919  12.023  0.00  0.00    +0.000 A 
ATOM     28  C   UNL     1       5.382   3.423  12.530  0.00  0.00    +0.000 A 
ATOM     29  C   UNL     1       5.073   3.627  13.875  0.00  0.00    +0.000 A 
ENDBRANCH  17  24
ENDBRANCH   4  17
TORSDOF 5
ENDMDL
MODEL 6
REMARK VINA RESULT:      -7.7      0.390      1.298
REMARK  Name = 
REMARK  6 active torsions:
REMARK  status: ('A' for Active; 'I' for Inactive)
REMARK    1  A    between atoms: C_1  and  C_2
REMARK    2  A    between atoms: C_5  and  S_6
REMARK    3  A    between atoms: S_6  and  N_9
REMARK    4  A    between atoms: N_12  and  C_13
REMARK    5  A    between atoms: C_13  and  C_14
REMARK    6  A    between atoms: C_13  and  C_20
REMARK                            x       y       z     vdW  Elec       q    Type
REMARK                         _______ _______ _______ _____ _____    ______ ____
ROOT
ATOM      1  N   UNL     1       5.011   5.945  16.681  0.00  0.00    +0.000 NA
ATOM      2  C   UNL     1       4.805   7.292  17.259  0.00  0.00    +0.000 C 
ATOM      3  C   UNL     1       3.331   7.643  17.481  0.00  0.00    +0.000 C 
ATOM      4  N   UNL     1       2.538   6.625  18.166  0.00  0.00    +0.000 NA
ATOM      5  C   UNL     1       2.672   5.335  17.495  0.00  0.00    +0.000 C 
ATOM      6  C   UNL     1       4.094   4.866  17.138  0.00  0.00    +0.000 C 
ENDROOT
BRANCH   1   7
ATOM      7  S   UNL     1       6.664   5.499  16.491  0.00  0.00    +0.000 S 
ATOM      8  O   UNL     1       6.906   4.413  17.415  0.00  0.00    +0.000 OA
ATOM      9  O   UNL     1       7.468   6.711  16.506  0.00  0.00    +0.000 OA
BRANCH   7  14
ATOM     10  C   UNL     1       7.254   3.070  10.925  0.00  0.00    +0.000 C 
ATOM     11  C   UNL     1       6.996   3.738  12.249  0.00  0.00    +0.000 A 
ATOM     12  C   UNL     1       6.041   3.239  13.151  0.00  0.00    +0.000 A 
ATOM     13  C   UNL     1       5.939   3.757  14.448  0.00  0.00    +0.000 A 
ATOM     14  C   UNL     1       6.775   4.800  14.839  0.00  0.00    +0.000 A 
ATOM     15  C   UNL     1       7.677   5.358  13.921  0.00  0.00    +0.000 A 
ATOM     16  C   UNL     1       7.794   4.818  12.639  0.00  0.00    +0.000 A 
ENDBRANCH   7  14
ENDBRANCH   1   7
BRANCH   4  17
ATOM     17  C   UNL     1       2.442   6.629  19.639  0.00  0.00    +0.000 C 
BRANCH  17  18
ATOM     18  C   UNL     1       1.615   7.745  20.287  0.00  0.00    +0.000 A 
ATOM     19  C   UNL     1       1.512   7.844  21.688  0.00  0.00    +0.000 A 
ATOM     20  C   UNL     1       1.134   9.037  22.291  0.00  0.00    +0.000 A 
ATOM     21  C   UNL     1       0.802  10.138  21.506  0.00  0.00    +0.000 A 
ATOM     22  C   UNL     1       0.791  10.025  20.118  0.00  0.00    +0.000 A 
ATOM     23  C   UNL     1       1.196   8.837  19.509  0.00  0.00    +0.000 A 
ENDBRANCH  17  18
BRANCH  17  24
ATOM     24  C   UNL     1       2.092   5.234  20.226  0.00  0.00    +0.000 A 
ATOM     25  C   UNL     1       0.918   4.571  19.831  0.00  0.00    +0.000 A 
ATOM     26  C   UNL     1       0.549   3.352  20.410  0.00  0.00    +0.000 A 
ATOM     27  C   UNL     1       1.349   2.760  21.385  0.00  0.00    +0.000 A 
ATOM     28  C   UNL     1       2.553   3.352  21.741  0.00  0.00    +0.000 A 
ATOM     29  C   UNL     1       2.934   4.547  21.131  0.00  0.00    +0.000 A 
ENDBRANCH  17  24
ENDBRANCH   4  17
TORSDOF 5
ENDMDL
MODEL 7
REMARK VINA RESULT:      -7.6      3.796      8.074
REMARK  Name = 
REMARK  6 active torsions:
REMARK  status: ('A' for Active; 'I' for Inactive)
REMARK    1  A    between atoms: C_1  and  C_2
REMARK    2  A    between atoms: C_5  and  S_6
REMARK    3  A    between atoms: S_6  and  N_9
REMARK    4  A    between atoms: N_12  and  C_13
REMARK    5  A    between atoms: C_13  and  C_14
REMARK    6  A    between atoms: C_13  and  C_20
REMARK                            x       y       z     vdW  Elec       q    Type
REMARK                         _______ _______ _______ _____ _____    ______ ____
ROOT
ATOM      1  N   UNL     1       1.205   9.381  19.087  0.00  0.00    +0.000 NA
ATOM      2  C   UNL     1       1.956   9.121  17.838  0.00  0.00    +0.000 C 
ATOM      3  C   UNL     1       3.226   8.291  18.049  0.00  0.00    +0.000 C 
ATOM      4  N   UNL     1       3.060   7.081  18.852  0.00  0.00    +0.000 NA
ATOM      5  C   UNL     1       2.424   7.397  20.128  0.00  0.00    +0.000 C 
ATOM      6  C   UNL     1       1.167   8.286  20.093  0.00  0.00    +0.000 C 
ENDROOT
BRANCH   1   7
ATOM      7  S   UNL     1      -0.265  10.250  18.864  0.00  0.00    +0.000 S 
ATOM      8  O   UNL     1      -1.061  10.024  20.049  0.00  0.00    +0.000 OA
ATOM      9  O   UNL     1      -0.771   9.954  17.532  0.00  0.00    +0.000 OA
BRANCH   7  14
ATOM     10  C   UNL     1       1.483  16.095  18.783  0.00  0.00    +0.000 C 
ATOM     11  C   UNL     1       0.995  14.679  18.929  0.00  0.00    +0.000 A 
ATOM     12  C   UNL     1      -0.331  14.323  18.625  0.00  0.00    +0.000 A 
ATOM     13  C   UNL     1      -0.723  12.979  18.589  0.00  0.00    +0.000 A 
ATOM     14  C   UNL     1       0.205  11.984  18.887  0.00  0.00    +0.000 A 
ATOM     15  C   UNL     1       1.510  12.333  19.268  0.00  0.00    +0.000 A 
ATOM     16  C   UNL     1       1.902  13.673  19.273  0.00  0.00    +0.000 A 
ENDBRANCH   7  14
ENDBRANCH   1   7
BRANCH   4  17
ATOM     17  C   UNL     1       2.704   5.805  18.202  0.00  0.00    +0.000 C 
BRANCH  17  18
ATOM     18  C   UNL     1       3.695   5.236  17.180  0.00  0.00    +0.000 A 
ATOM     19  C   UNL     1       4.654   6.067  16.568  0.00  0.00    +0.000 A 
ATOM     20  C   UNL     1       5.790   5.527  15.979  0.00  0.00    +0.000 A 
ATOM     21  C   UNL     1       5.967   4.145  15.946  0.00  0.00    +0.000 A 
ATOM     22  C   UNL     1       4.977   3.305  16.447  0.00  0.00    +0.000 A 
ATOM     23  C   UNL     1       3.847   3.845  17.063  0.00  0.00    +0.000 A 
ENDBRANCH  17  18
BRANCH  17  24
ATOM     24  C   UNL     1       2.228   4.724  19.211  0.00  0.00    +0.000 A 
ATOM     25  C   UNL     1       1.171   3.860  18.881  0.00  0.00    +0.000 A 
ATOM     26  C   UNL     1       0.679   2.936  19.810  0.00  0.00    +0.000 A 
ATOM     27  C   UNL     1       1.240   2.843  21.083  0.00  0.00    +0.000 A 
ATOM     28  C   UNL     1       2.335   3.631  21.411  0.00  0.00    +0.000 A 
ATOM     29  C   UNL     1       2.845   4.521  20.468  0.00  0.00    +0.000 A 
ENDBRANCH  17  24
ENDBRANCH   4  17
TORSDOF 5
ENDMDL
MODEL 8
REMARK VINA RESULT:      -7.6      3.380      7.835
REMARK  Name = 
REMARK  6 active torsions:
REMARK  status: ('A' for Active; 'I' for Inactive)
REMARK    1  A    between atoms: C_1  and  C_2
REMARK    2  A    between atoms: C_5  and  S_6
REMARK    3  A    between atoms: S_6  and  N_9
REMARK    4  A    between atoms: N_12  and  C_13
REMARK    5  A    between atoms: C_13  and  C_14
REMARK    6  A    between atoms: C_13  and  C_20
REMARK                            x       y       z     vdW  Elec       q    Type
REMARK                         _______ _______ _______ _____ _____    ______ ____
ROOT
ATOM      1  N   UNL     1       2.264   8.472  18.969  0.00  0.00    +0.000 NA
ATOM      2  C   UNL     1       3.085   8.478  17.737  0.00  0.00    +0.000 C 
ATOM      3  C   UNL     1       4.320   7.576  17.821  0.00  0.00    +0.000 C 
ATOM      4  N   UNL     1       4.077   6.221  18.312  0.00  0.00    +0.000 NA
ATOM      5  C   UNL     1       3.371   6.259  19.589  0.00  0.00    +0.000 C 
ATOM      6  C   UNL     1       2.139   7.178  19.691  0.00  0.00    +0.000 C 
ENDROOT
BRANCH   1   7
ATOM      7  S   UNL     1       0.831   9.422  18.872  0.00  0.00    +0.000 S 
ATOM      8  O   UNL     1       0.025   9.069  20.020  0.00  0.00    +0.000 OA
ATOM      9  O   UNL     1       0.314   9.329  17.516  0.00  0.00    +0.000 OA
BRANCH   7  14
ATOM     10  C   UNL     1       2.540  15.237  19.565  0.00  0.00    +0.000 C 
ATOM     11  C   UNL     1       2.230  13.768  19.471  0.00  0.00    +0.000 A 
ATOM     12  C   UNL     1       1.559  13.090  20.504  0.00  0.00    +0.000 A 
ATOM     13  C   UNL     1       1.117  11.773  20.329  0.00  0.00    +0.000 A 
ATOM     14  C   UNL     1       1.371  11.117  19.127  0.00  0.00    +0.000 A 
ATOM     15  C   UNL     1       2.110  11.756  18.121  0.00  0.00    +0.000 A 
ATOM     16  C   UNL     1       2.522  13.080  18.291  0.00  0.00    +0.000 A 
ENDBRANCH   7  14
ENDBRANCH   1   7
BRANCH   4  17
ATOM     17  C   UNL     1       3.733   5.142  17.365  0.00  0.00    +0.000 C 
BRANCH  17  18
ATOM     18  C   UNL     1       4.849   4.630  16.447  0.00  0.00    +0.000 A 
ATOM     19  C   UNL     1       4.623   4.458  15.067  0.00  0.00    +0.000 A 
ATOM     20  C   UNL     1       5.686   4.400  14.175  0.00  0.00    +0.000 A 
ATOM     21  C   UNL     1       6.995   4.460  14.647  0.00  0.00    +0.000 A 
ATOM     22  C   UNL     1       7.238   4.519  16.017  0.00  0.00    +0.000 A 
ATOM     23  C   UNL     1       6.173   4.605  16.914  0.00  0.00    +0.000 A 
ENDBRANCH  17  18
BRANCH  17  24
ATOM     24  C   UNL     1       2.953   3.977  18.035  0.00  0.00    +0.000 A 
ATOM     25  C   UNL     1       1.555   3.903  17.928  0.00  0.00    +0.000 A 
ATOM     26  C   UNL     1       0.832   2.906  18.592  0.00  0.00    +0.000 A 
ATOM     27  C   UNL     1       1.490   1.951  19.366  0.00  0.00    +0.000 A 
ATOM     28  C   UNL     1       2.876   1.953  19.429  0.00  0.00    +0.000 A 
ATOM     29  C   UNL     1       3.592   2.925  18.732  0.00  0.00    +0.000 A 
ENDBRANCH  17  24
ENDBRANCH   4  17
TORSDOF 5
ENDMDL
MODEL 9
REMARK VINA RESULT:      -7.5      8.132     11.188
REMARK  Name = 
REMARK  6 active torsions:
REMARK  status: ('A' for Active; 'I' for Inactive)
REMARK    1  A    between atoms: C_1  and  C_2
REMARK    2  A    between atoms: C_5  and  S_6
REMARK    3  A    between atoms: S_6  and  N_9
REMARK    4  A    between atoms: N_12  and  C_13
REMARK    5  A    between atoms: C_13  and  C_14
REMARK    6  A    between atoms: C_13  and  C_20
REMARK                            x       y       z     vdW  Elec       q    Type
REMARK                         _______ _______ _______ _____ _____    ______ ____
ROOT
ATOM      1  N   UNL     1       0.650  14.965  20.157  0.00  0.00    +0.000 NA
ATOM      2  C   UNL     1      -0.388  14.497  19.210  0.00  0.00    +0.000 C 
ATOM      3  C   UNL     1       0.123  13.458  18.208  0.00  0.00    +0.000 C 
ATOM      4  N   UNL     1       0.881  12.349  18.784  0.00  0.00    +0.000 NA
ATOM      5  C   UNL     1       1.970  12.850  19.616  0.00  0.00    +0.000 C 
ATOM      6  C   UNL     1       1.633  13.957  20.634  0.00  0.00    +0.000 C 
ENDROOT
BRANCH   1   7
ATOM      7  S   UNL     1       0.080  16.080  21.340  0.00  0.00    +0.000 S 
ATOM      8  O   UNL     1      -0.607  17.129  20.620  0.00  0.00    +0.000 OA
ATOM      9  O   UNL     1       1.172  16.369  22.256  0.00  0.00    +0.000 OA
BRANCH   7  14
ATOM     10  C   UNL     1      -4.161  12.874  24.332  0.00  0.00    +0.000 C 
ATOM     11  C   UNL     1      -3.165  13.780  23.658  0.00  0.00    +0.000 A 
ATOM     12  C   UNL     1      -1.985  14.185  24.304  0.00  0.00    +0.000 A 
ATOM     13  C   UNL     1      -0.985  14.874  23.607  0.00  0.00    +0.000 A 
ATOM     14  C   UNL     1      -1.175  15.186  22.263  0.00  0.00    +0.000 A 
ATOM     15  C   UNL     1      -2.383  14.856  21.630  0.00  0.00    +0.000 A 
ATOM     16  C   UNL     1      -3.363  14.144  22.324  0.00  0.00    +0.000 A 
ENDBRANCH   7  14
ENDBRANCH   1   7
BRANCH   4  17
ATOM     17  C   UNL     1       0.181  11.127  19.227  0.00  0.00    +0.000 C 
BRANCH  17  18
ATOM     18  C   UNL     1       0.161  10.836  20.733  0.00  0.00    +0.000 A 
ATOM     19  C   UNL     1      -0.757  11.487  21.579  0.00  0.00    +0.000 A 
ATOM     20  C   UNL     1      -1.073  10.961  22.825  0.00  0.00    +0.000 A 
ATOM     21  C   UNL     1      -0.442   9.802  23.271  0.00  0.00    +0.000 A 
ATOM     22  C   UNL     1       0.549   9.207  22.494  0.00  0.00    +0.000 A 
ATOM     23  C   UNL     1       0.849   9.718  21.231  0.00  0.00    +0.000 A 
ENDBRANCH  17  18
BRANCH  17  24
ATOM     24  C   UNL     1      -1.225  10.970  18.588  0.00  0.00    +0.000 A 
ATOM     25  C   UNL     1      -2.312  11.720  19.068  0.00  0.00    +0.000 A 
ATOM     26  C   UNL     1      -3.601  11.531  18.557  0.00  0.00    +0.000 A 
ATOM     27  C   UNL     1      -3.832  10.600  17.545  0.00  0.00    +0.000 A 
ATOM     28  C   UNL     1      -2.766   9.900  16.998  0.00  0.00    +0.000 A 
ATOM     29  C   UNL     1      -1.479  10.122  17.485  0.00  0.00    +0.000 A 
ENDBRANCH  17  24
ENDBRANCH   4  17
TORSDOF 5
ENDMDL
