MODEL 1
REMARK VINA RESULT:      -8.3      0.000      0.000
REMARK  Name = 
REMARK  3 active torsions:
REMARK  status: ('A' for Active; 'I' for Inactive)
REMARK    1  A    between atoms: C_1  and  O_2
REMARK    2  A    between atoms: O_2  and  C_3
REMARK    3  A    between atoms: C_6  and  C_7
REMARK                            x       y       z     vdW  Elec       q    Type
REMARK                         _______ _______ _______ _____ _____    ______ ____
ROOT
ATOM      1  C   UNL     1       5.106   4.087  18.567  0.00  0.00    +0.000 C 
ATOM      2  N   UNL     1       5.144   2.703  18.953  0.00  0.00    +0.000 N 
ATOM      3  C   UNL     1       4.650   2.454  20.233  0.00  0.00    +0.000 C 
ATOM      4  O   UNL     1       5.195   1.719  21.030  0.00  0.00    +0.000 OA
ATOM      5  C   UNL     1       3.308   3.028  20.458  0.00  0.00    +0.000 A 
ATOM      6  C   UNL     1       2.485   2.607  21.497  0.00  0.00    +0.000 A 
ATOM      7  C   UNL     1       1.126   2.930  21.455  0.00  0.00    +0.000 A 
ATOM      8  C   UNL     1       0.618   3.647  20.367  0.00  0.00    +0.000 A 
ATOM      9  C   UNL     1       1.484   4.174  19.413  0.00  0.00    +0.000 A 
ATOM     10  C   UNL     1       2.844   3.913  19.479  0.00  0.00    +0.000 A 
ATOM     11  N   UNL     1       3.708   4.514  18.568  0.00  0.00    +0.000 N 
ATOM     12  H   UNL     1       4.600   2.209  18.268  0.00  0.00    +0.000 HD
ATOM     13  H   UNL     1       3.680   5.524  18.699  0.00  0.00    +0.000 HD
ENDROOT
BRANCH   1  17
ATOM     14  C   UNL     1       6.794   4.711  14.603  0.00  0.00    +0.000 A 
ATOM     15  C   UNL     1       5.480   4.274  14.742  0.00  0.00    +0.000 A 
ATOM     16  C   UNL     1       4.939   4.072  16.011  0.00  0.00    +0.000 A 
ATOM     17  C   UNL     1       5.693   4.301  17.174  0.00  0.00    +0.000 A 
ATOM     18  C   UNL     1       7.027   4.725  17.018  0.00  0.00    +0.000 A 
ATOM     19  C   UNL     1       7.567   4.932  15.740  0.00  0.00    +0.000 A 
BRANCH  14  21
ATOM     20  C   UNL     1       6.707   3.880  12.383  0.00  0.00    +0.000 C 
ATOM     21  O   UNL     1       7.200   4.844  13.305  0.00  0.00    +0.000 OA
ENDBRANCH  14  21
ENDBRANCH   1  17
TORSDOF 2
ENDMDL
MODEL 2
REMARK VINA RESULT:      -8.2      0.191      1.120
REMARK  Name = 
REMARK  3 active torsions:
REMARK  status: ('A' for Active; 'I' for Inactive)
REMARK    1  A    between atoms: C_1  and  O_2
REMARK    2  A    between atoms: O_2  and  C_3
REMARK    3  A    between atoms: C_6  and  C_7
REMARK                            x       y       z     vdW  Elec       q    Type
REMARK                         _______ _______ _______ _____ _____    ______ ____
ROOT
ATOM      1  C   UNL     1       5.116   4.145  18.607  0.00  0.00    +0.000 C 
ATOM      2  N   UNL     1       5.161   2.750  18.953  0.00  0.00    +0.000 N 
ATOM      3  C   UNL     1       4.667   2.462  20.225  0.00  0.00    +0.000 C 
ATOM      4  O   UNL     1       5.215   1.707  21.001  0.00  0.00    +0.000 OA
ATOM      5  C   UNL     1       3.322   3.022  20.465  0.00  0.00    +0.000 A 
ATOM      6  C   UNL     1       2.501   2.568  21.491  0.00  0.00    +0.000 A 
ATOM      7  C   UNL     1       1.140   2.884  21.456  0.00  0.00    +0.000 A 
ATOM      8  C   UNL     1       0.629   3.631  20.389  0.00  0.00    +0.000 A 
ATOM      9  C   UNL     1       1.494   4.189  19.451  0.00  0.00    +0.000 A 
ATOM     10  C   UNL     1       2.855   3.933  19.512  0.00  0.00    +0.000 A 
ATOM     11  N   UNL     1       3.716   4.564  18.619  0.00  0.00    +0.000 N 
ATOM     12  H   UNL     1       4.620   2.273  18.253  0.00  0.00    +0.000 HD
ATOM     13  H   UNL     1       3.683   5.570  18.779  0.00  0.00    +0.000 HD
ENDROOT
BRANCH   1  17
ATOM     14  C   UNL     1       6.782   4.864  14.649  0.00  0.00    +0.000 A 
ATOM     15  C   UNL     1       7.543   5.121  15.785  0.00  0.00    +0.000 A 
ATOM     16  C   UNL     1       7.010   4.892  17.053  0.00  0.00    +0.000 A 
ATOM     17  C   UNL     1       5.704   4.402  17.222  0.00  0.00    +0.000 A 
ATOM     18  C   UNL     1       4.939   4.165  16.064  0.00  0.00    +0.000 A 
ATOM     19  C   UNL     1       5.480   4.390  14.789  0.00  0.00    +0.000 A 
BRANCH  14  21
ATOM     20  C   UNL     1       7.119   4.318  12.366  0.00  0.00    +0.000 C 
ATOM     21  O   UNL     1       7.420   5.154  13.477  0.00  0.00    +0.000 OA
ENDBRANCH  14  21
ENDBRANCH   1  17
TORSDOF 2
ENDMDL
MODEL 3
REMARK VINA RESULT:      -7.7      1.932      7.021
REMARK  Name = 
REMARK  3 active torsions:
REMARK  status: ('A' for Active; 'I' for Inactive)
REMARK    1  A    between atoms: C_1  and  O_2
REMARK    2  A    between atoms: O_2  and  C_3
REMARK    3  A    between atoms: C_6  and  C_7
REMARK                            x       y       z     vdW  Elec       q    Type
REMARK                         _______ _______ _______ _____ _____    ______ ____
ROOT
ATOM      1  C   UNL     1       5.580   3.986  16.988  0.00  0.00    +0.000 C 
ATOM      2  N   UNL     1       5.736   5.397  16.763  0.00  0.00    +0.000 N 
ATOM      3  C   UNL     1       6.868   5.734  16.020  0.00  0.00    +0.000 C 
ATOM      4  O   UNL     1       7.607   6.652  16.307  0.00  0.00    +0.000 OA
ATOM      5  C   UNL     1       6.975   4.981  14.754  0.00  0.00    +0.000 A 
ATOM      6  C   UNL     1       7.794   5.398  13.710  0.00  0.00    +0.000 A 
ATOM      7  C   UNL     1       7.598   4.851  12.439  0.00  0.00    +0.000 A 
ATOM      8  C   UNL     1       6.577   3.916  12.238  0.00  0.00    +0.000 A 
ATOM      9  C   UNL     1       5.866   3.414  13.324  0.00  0.00    +0.000 A 
ATOM     10  C   UNL     1       6.096   3.904  14.600  0.00  0.00    +0.000 A 
ATOM     11  N   UNL     1       5.437   3.336  15.687  0.00  0.00    +0.000 N 
ATOM     12  H   UNL     1       4.904   5.695  16.284  0.00  0.00    +0.000 HD
ATOM     13  H   UNL     1       5.726   2.364  15.779  0.00  0.00    +0.000 HD
ENDROOT
BRANCH   1  17
ATOM     14  C   UNL     1       2.055   3.132  19.396  0.00  0.00    +0.000 A 
ATOM     15  C   UNL     1       3.308   3.211  19.995  0.00  0.00    +0.000 A 
ATOM     16  C   UNL     1       4.438   3.483  19.225  0.00  0.00    +0.000 A 
ATOM     17  C   UNL     1       4.348   3.683  17.837  0.00  0.00    +0.000 A 
ATOM     18  C   UNL     1       3.076   3.581  17.242  0.00  0.00    +0.000 A 
ATOM     19  C   UNL     1       1.940   3.313  18.020  0.00  0.00    +0.000 A 
BRANCH  14  21
ATOM     20  C   UNL     1       1.403   2.679  21.631  0.00  0.00    +0.000 C 
ATOM     21  O   UNL     1       1.042   2.837  20.265  0.00  0.00    +0.000 OA
ENDBRANCH  14  21
ENDBRANCH   1  17
TORSDOF 2
ENDMDL
MODEL 4
REMARK VINA RESULT:      -7.5      1.821      2.456
REMARK  Name = 
REMARK  3 active torsions:
REMARK  status: ('A' for Active; 'I' for Inactive)
REMARK    1  A    between atoms: C_1  and  O_2
REMARK    2  A    between atoms: O_2  and  C_3
REMARK    3  A    between atoms: C_6  and  C_7
REMARK                            x       y       z     vdW  Elec       q    Type
REMARK                         _______ _______ _______ _____ _____    ______ ____
ROOT
ATOM      1  C   UNL     1       3.871   3.392  16.966  0.00  0.00    +0.000 C 
ATOM      2  N   UNL     1       2.805   4.342  17.128  0.00  0.00    +0.000 N 
ATOM      3  C   UNL     1       1.681   3.834  17.779  0.00  0.00    +0.000 C 
ATOM      4  O   UNL     1       0.544   4.036  17.410  0.00  0.00    +0.000 OA
ATOM      5  C   UNL     1       2.004   3.177  19.062  0.00  0.00    +0.000 A 
ATOM      6  C   UNL     1       1.038   2.930  20.033  0.00  0.00    +0.000 A 
ATOM      7  C   UNL     1       1.451   2.629  21.334  0.00  0.00    +0.000 A 
ATOM      8  C   UNL     1       2.816   2.601  21.638  0.00  0.00    +0.000 A 
ATOM      9  C   UNL     1       3.761   2.714  20.621  0.00  0.00    +0.000 A 
ATOM     10  C   UNL     1       3.361   2.950  19.316  0.00  0.00    +0.000 A 
ATOM     11  N   UNL     1       4.309   2.978  18.297  0.00  0.00    +0.000 N 
ATOM     12  H   UNL     1       3.193   5.108  17.650  0.00  0.00    +0.000 HD
ATOM     13  H   UNL     1       4.744   2.060  18.222  0.00  0.00    +0.000 HD
ENDROOT
BRANCH   1  17
ATOM     14  C   UNL     1       7.248   5.127  14.834  0.00  0.00    +0.000 A 
ATOM     15  C   UNL     1       6.349   4.300  14.166  0.00  0.00    +0.000 A 
ATOM     16  C   UNL     1       5.269   3.743  14.848  0.00  0.00    +0.000 A 
ATOM     17  C   UNL     1       5.055   3.995  16.214  0.00  0.00    +0.000 A 
ATOM     18  C   UNL     1       5.982   4.818  16.881  0.00  0.00    +0.000 A 
ATOM     19  C   UNL     1       7.066   5.382  16.191  0.00  0.00    +0.000 A 
BRANCH  14  21
ATOM     20  C   UNL     1       8.060   5.540  12.644  0.00  0.00    +0.000 C 
ATOM     21  O   UNL     1       8.269   5.584  14.050  0.00  0.00    +0.000 OA
ENDBRANCH  14  21
ENDBRANCH   1  17
TORSDOF 2
ENDMDL
MODEL 5
REMARK VINA RESULT:      -7.3      1.892      6.954
REMARK  Name = 
REMARK  3 active torsions:
REMARK  status: ('A' for Active; 'I' for Inactive)
REMARK    1  A    between atoms: C_1  and  O_2
REMARK    2  A    between atoms: O_2  and  C_3
REMARK    3  A    between atoms: C_6  and  C_7
REMARK                            x       y       z     vdW  Elec       q    Type
REMARK                         _______ _______ _______ _____ _____    ______ ____
ROOT
ATOM      1  C   UNL     1       5.687   3.975  17.040  0.00  0.00    +0.000 C 
ATOM      2  N   UNL     1       5.811   5.389  16.812  0.00  0.00    +0.000 N 
ATOM      3  C   UNL     1       6.916   5.747  16.040  0.00  0.00    +0.000 C 
ATOM      4  O   UNL     1       7.646   6.678  16.308  0.00  0.00    +0.000 OA
ATOM      5  C   UNL     1       7.004   4.997  14.771  0.00  0.00    +0.000 A 
ATOM      6  C   UNL     1       7.787   5.429  13.706  0.00  0.00    +0.000 A 
ATOM      7  C   UNL     1       7.567   4.879  12.440  0.00  0.00    +0.000 A 
ATOM      8  C   UNL     1       6.559   3.926  12.265  0.00  0.00    +0.000 A 
ATOM      9  C   UNL     1       5.886   3.411  13.369  0.00  0.00    +0.000 A 
ATOM     10  C   UNL     1       6.141   3.905  14.639  0.00  0.00    +0.000 A 
ATOM     11  N   UNL     1       5.522   3.324  15.742  0.00  0.00    +0.000 N 
ATOM     12  H   UNL     1       4.962   5.672  16.355  0.00  0.00    +0.000 HD
ATOM     13  H   UNL     1       5.830   2.357  15.826  0.00  0.00    +0.000 HD
ENDROOT
BRANCH   1  17
ATOM     14  C   UNL     1       2.264   3.032  19.560  0.00  0.00    +0.000 A 
ATOM     15  C   UNL     1       2.075   3.643  18.324  0.00  0.00    +0.000 A 
ATOM     16  C   UNL     1       3.170   3.947  17.517  0.00  0.00    +0.000 A 
ATOM     17  C   UNL     1       4.483   3.650  17.921  0.00  0.00    +0.000 A 
ATOM     18  C   UNL     1       4.660   3.049  19.181  0.00  0.00    +0.000 A 
ATOM     19  C   UNL     1       3.556   2.739  19.989  0.00  0.00    +0.000 A 
BRANCH  14  21
ATOM     20  C   UNL     1       1.216   2.755  21.669  0.00  0.00    +0.000 C 
ATOM     21  O   UNL     1       1.107   2.813  20.253  0.00  0.00    +0.000 OA
ENDBRANCH  14  21
ENDBRANCH   1  17
TORSDOF 2
ENDMDL
MODEL 6
REMARK VINA RESULT:      -7.3      1.849      2.666
REMARK  Name = 
REMARK  3 active torsions:
REMARK  status: ('A' for Active; 'I' for Inactive)
REMARK    1  A    between atoms: C_1  and  O_2
REMARK    2  A    between atoms: O_2  and  C_3
REMARK    3  A    between atoms: C_6  and  C_7
REMARK                            x       y       z     vdW  Elec       q    Type
REMARK                         _______ _______ _______ _____ _____    ______ ____
ROOT
ATOM      1  C   UNL     1       3.816   3.366  16.937  0.00  0.00    +0.000 C 
ATOM      2  N   UNL     1       2.761   4.327  17.106  0.00  0.00    +0.000 N 
ATOM      3  C   UNL     1       1.641   3.833  17.776  0.00  0.00    +0.000 C 
ATOM      4  O   UNL     1       0.501   4.043  17.420  0.00  0.00    +0.000 OA
ATOM      5  C   UNL     1       1.974   3.181  19.059  0.00  0.00    +0.000 A 
ATOM      6  C   UNL     1       1.020   2.950  20.043  0.00  0.00    +0.000 A 
ATOM      7  C   UNL     1       1.447   2.653  21.341  0.00  0.00    +0.000 A 
ATOM      8  C   UNL     1       2.816   2.614  21.627  0.00  0.00    +0.000 A 
ATOM      9  C   UNL     1       3.748   2.712  20.598  0.00  0.00    +0.000 A 
ATOM     10  C   UNL     1       3.332   2.944  19.296  0.00  0.00    +0.000 A 
ATOM     11  N   UNL     1       4.268   2.957  18.265  0.00  0.00    +0.000 N 
ATOM     12  H   UNL     1       3.162   5.092  17.619  0.00  0.00    +0.000 HD
ATOM     13  H   UNL     1       4.693   2.034  18.190  0.00  0.00    +0.000 HD
ENDROOT
BRANCH   1  17
ATOM     14  C   UNL     1       7.178   5.026  14.724  0.00  0.00    +0.000 A 
ATOM     15  C   UNL     1       7.077   5.228  16.097  0.00  0.00    +0.000 A 
ATOM     16  C   UNL     1       6.000   4.698  16.806  0.00  0.00    +0.000 A 
ATOM     17  C   UNL     1       4.995   3.953  16.165  0.00  0.00    +0.000 A 
ATOM     18  C   UNL     1       5.100   3.774  14.773  0.00  0.00    +0.000 A 
ATOM     19  C   UNL     1       6.188   4.303  14.062  0.00  0.00    +0.000 A 
BRANCH  14  21
ATOM     20  C   UNL     1       8.283   5.694  12.735  0.00  0.00    +0.000 C 
ATOM     21  O   UNL     1       8.269   5.619  14.155  0.00  0.00    +0.000 OA
ENDBRANCH  14  21
ENDBRANCH   1  17
TORSDOF 2
ENDMDL
MODEL 7
REMARK VINA RESULT:      -7.2      2.819      3.347
REMARK  Name = 
REMARK  3 active torsions:
REMARK  status: ('A' for Active; 'I' for Inactive)
REMARK    1  A    between atoms: C_1  and  O_2
REMARK    2  A    between atoms: O_2  and  C_3
REMARK    3  A    between atoms: C_6  and  C_7
REMARK                            x       y       z     vdW  Elec       q    Type
REMARK                         _______ _______ _______ _____ _____    ______ ____
ROOT
ATOM      1  C   UNL     1       5.230   4.331  18.951  0.00  0.00    +0.000 C 
ATOM      2  N   UNL     1       4.704   3.655  17.797  0.00  0.00    +0.000 N 
ATOM      3  C   UNL     1       3.906   2.550  18.096  0.00  0.00    +0.000 C 
ATOM      4  O   UNL     1       3.988   1.489  17.516  0.00  0.00    +0.000 OA
ATOM      5  C   UNL     1       2.833   2.857  19.064  0.00  0.00    +0.000 A 
ATOM      6  C   UNL     1       1.724   2.034  19.227  0.00  0.00    +0.000 A 
ATOM      7  C   UNL     1       0.601   2.539  19.889  0.00  0.00    +0.000 A 
ATOM      8  C   UNL     1       0.606   3.857  20.355  0.00  0.00    +0.000 A 
ATOM      9  C   UNL     1       1.776   4.612  20.302  0.00  0.00    +0.000 A 
ATOM     10  C   UNL     1       2.915   4.098  19.704  0.00  0.00    +0.000 A 
ATOM     11  N   UNL     1       4.099   4.829  19.732  0.00  0.00    +0.000 N 
ATOM     12  H   UNL     1       4.172   4.341  17.291  0.00  0.00    +0.000 HD
ATOM     13  H   UNL     1       4.400   4.939  20.699  0.00  0.00    +0.000 HD
ENDROOT
BRANCH   1  17
ATOM     14  C   UNL     1       7.786   7.679  17.850  0.00  0.00    +0.000 A 
ATOM     15  C   UNL     1       6.564   7.493  17.211  0.00  0.00    +0.000 A 
ATOM     16  C   UNL     1       5.745   6.420  17.561  0.00  0.00    +0.000 A 
ATOM     17  C   UNL     1       6.123   5.505  18.559  0.00  0.00    +0.000 A 
ATOM     18  C   UNL     1       7.370   5.695  19.183  0.00  0.00    +0.000 A 
ATOM     19  C   UNL     1       8.190   6.778  18.832  0.00  0.00    +0.000 A 
BRANCH  14  21
ATOM     20  C   UNL     1       8.689   9.823  18.309  0.00  0.00    +0.000 C 
ATOM     21  O   UNL     1       8.494   8.754  17.392  0.00  0.00    +0.000 OA
ENDBRANCH  14  21
ENDBRANCH   1  17
TORSDOF 2
ENDMDL
MODEL 8
REMARK VINA RESULT:      -7.1      2.811      3.455
REMARK  Name = 
REMARK  3 active torsions:
REMARK  status: ('A' for Active; 'I' for Inactive)
REMARK    1  A    between atoms: C_1  and  O_2
REMARK    2  A    between atoms: O_2  and  C_3
REMARK    3  A    between atoms: C_6  and  C_7
REMARK                            x       y       z     vdW  Elec       q    Type
REMARK                         _______ _______ _______ _____ _____    ______ ____
ROOT
ATOM      1  C   UNL     1       5.217   4.346  18.960  0.00  0.00    +0.000 C 
ATOM      2  N   UNL     1       4.704   3.621  17.830  0.00  0.00    +0.000 N 
ATOM      3  C   UNL     1       3.921   2.516  18.168  0.00  0.00    +0.000 C 
ATOM      4  O   UNL     1       4.019   1.436  17.627  0.00  0.00    +0.000 OA
ATOM      5  C   UNL     1       2.842   2.842  19.122  0.00  0.00    +0.000 A 
ATOM      6  C   UNL     1       1.744   2.010  19.312  0.00  0.00    +0.000 A 
ATOM      7  C   UNL     1       0.612   2.522  19.953  0.00  0.00    +0.000 A 
ATOM      8  C   UNL     1       0.598   3.856  20.372  0.00  0.00    +0.000 A 
ATOM      9  C   UNL     1       1.756   4.625  20.294  0.00  0.00    +0.000 A 
ATOM     10  C   UNL     1       2.904   4.106  19.717  0.00  0.00    +0.000 A 
ATOM     11  N   UNL     1       4.077   4.855  19.721  0.00  0.00    +0.000 N 
ATOM     12  H   UNL     1       4.163   4.281  17.299  0.00  0.00    +0.000 HD
ATOM     13  H   UNL     1       4.374   5.003  20.684  0.00  0.00    +0.000 HD
ENDROOT
BRANCH   1  17
ATOM     14  C   UNL     1       7.713   7.686  17.709  0.00  0.00    +0.000 A 
ATOM     15  C   UNL     1       8.150   6.823  18.709  0.00  0.00    +0.000 A 
ATOM     16  C   UNL     1       7.351   5.753  19.112  0.00  0.00    +0.000 A 
ATOM     17  C   UNL     1       6.095   5.517  18.528  0.00  0.00    +0.000 A 
ATOM     18  C   UNL     1       5.657   6.410  17.532  0.00  0.00    +0.000 A 
ATOM     19  C   UNL     1       6.466   7.482  17.125  0.00  0.00    +0.000 A 
BRANCH  14  21
ATOM     20  C   UNL     1       8.657   9.755  18.384  0.00  0.00    +0.000 C 
ATOM     21  O   UNL     1       8.585   8.700  17.432  0.00  0.00    +0.000 OA
ENDBRANCH  14  21
ENDBRANCH   1  17
TORSDOF 2
ENDMDL
MODEL 9
REMARK VINA RESULT:      -7.1      4.751      7.259
REMARK  Name = 
REMARK  3 active torsions:
REMARK  status: ('A' for Active; 'I' for Inactive)
REMARK    1  A    between atoms: C_1  and  O_2
REMARK    2  A    between atoms: O_2  and  C_3
REMARK    3  A    between atoms: C_6  and  C_7
REMARK                            x       y       z     vdW  Elec       q    Type
REMARK                         _______ _______ _______ _____ _____    ______ ____
ROOT
ATOM      1  C   UNL     1       2.466   6.845  19.631  0.00  0.00    +0.000 C 
ATOM      2  N   UNL     1       2.661   6.845  18.207  0.00  0.00    +0.000 N 
ATOM      3  C   UNL     1       3.451   5.795  17.738  0.00  0.00    +0.000 C 
ATOM      4  O   UNL     1       4.329   5.934  16.914  0.00  0.00    +0.000 OA
ATOM      5  C   UNL     1       2.994   4.472  18.209  0.00  0.00    +0.000 A 
ATOM      6  C   UNL     1       3.389   3.288  17.595  0.00  0.00    +0.000 A 
ATOM      7  C   UNL     1       2.670   2.119  17.858  0.00  0.00    +0.000 A 
ATOM      8  C   UNL     1       1.564   2.163  18.714  0.00  0.00    +0.000 A 
ATOM      9  C   UNL     1       1.276   3.327  19.422  0.00  0.00    +0.000 A 
ATOM     10  C   UNL     1       2.021   4.477  19.215  0.00  0.00    +0.000 A 
ATOM     11  N   UNL     1       1.776   5.607  19.989  0.00  0.00    +0.000 N 
ATOM     12  H   UNL     1       1.742   6.796  17.801  0.00  0.00    +0.000 HD
ATOM     13  H   UNL     1       1.981   5.394  20.964  0.00  0.00    +0.000 HD
ENDROOT
BRANCH   1  17
ATOM     14  C   UNL     1       0.084  10.254  20.917  0.00  0.00    +0.000 A 
ATOM     15  C   UNL     1       0.286   9.179  21.777  0.00  0.00    +0.000 A 
ATOM     16  C   UNL     1       1.048   8.086  21.365  0.00  0.00    +0.000 A 
ATOM     17  C   UNL     1       1.627   8.036  20.086  0.00  0.00    +0.000 A 
ATOM     18  C   UNL     1       1.398   9.122  19.221  0.00  0.00    +0.000 A 
ATOM     19  C   UNL     1       0.636  10.224  19.639  0.00  0.00    +0.000 A 
BRANCH  14  21
ATOM     20  C   UNL     1      -0.978  11.162  22.833  0.00  0.00    +0.000 C 
ATOM     21  O   UNL     1      -0.699  11.244  21.441  0.00  0.00    +0.000 OA
ENDBRANCH  14  21
ENDBRANCH   1  17
TORSDOF 2
ENDMDL
