MODEL 1
REMARK VINA RESULT:      -8.7      0.000      0.000
REMARK  Name = 
REMARK  6 active torsions:
REMARK  status: ('A' for Active; 'I' for Inactive)
REMARK    1  A    between atoms: C_2  and  C_4
REMARK    2  A    between atoms: C_5  and  N_6
REMARK    3  A    between atoms: C_7  and  C_9
REMARK    4  A    between atoms: C_10  and  C_11
REMARK    5  A    between atoms: N_13  and  C_14
REMARK    6  A    between atoms: C_21  and  C_22
REMARK                            x       y       z     vdW  Elec       q    Type
REMARK                         _______ _______ _______ _____ _____    ______ ____
ROOT
ATOM      1  C   UNL     1       2.369   8.928  17.644  0.00  0.00    +0.000 C 
ATOM      2  C   UNL     1       2.635   7.763  18.249  0.00  0.00    +0.000 C 
ENDROOT
BRANCH   2   3
ATOM      3  C   UNL     1       3.282   6.652  17.632  0.00  0.00    +0.000 A 
ATOM      4  C   UNL     1       4.170   6.756  16.589  0.00  0.00    +0.000 A 
ATOM      5  N   UNL     1       4.606   5.481  16.307  0.00  0.00    +0.000 N 
ATOM      6  N   UNL     1       3.992   4.563  17.103  0.00  0.00    +0.000 NA
ATOM      7  C   UNL     1       3.238   5.268  17.962  0.00  0.00    +0.000 A 
BRANCH   5   8
ATOM      8  C   UNL     1       5.571   5.085  15.335  0.00  0.00    +0.000 A 
ATOM      9  C   UNL     1       5.228   4.225  14.279  0.00  0.00    +0.000 A 
ATOM     10  C   UNL     1       6.190   3.855  13.334  0.00  0.00    +0.000 A 
ATOM     11  C   UNL     1       7.493   4.334  13.432  0.00  0.00    +0.000 A 
ATOM     12  C   UNL     1       7.844   5.188  14.477  0.00  0.00    +0.000 A 
ATOM     13  C   UNL     1       6.887   5.565  15.424  0.00  0.00    +0.000 A 
ENDBRANCH   5   8
BRANCH   7  14
ATOM     14  C   UNL     1       2.520   4.601  19.047  0.00  0.00    +0.000 A 
ATOM     15  C   UNL     1       1.447   3.737  18.805  0.00  0.00    +0.000 A 
ATOM     16  C   UNL     1       0.794   3.113  19.867  0.00  0.00    +0.000 A 
ATOM     17  C   UNL     1       1.226   3.385  21.151  0.00  0.00    +0.000 A 
ATOM     18  N   UNL     1       2.245   4.222  21.437  0.00  0.00    +0.000 NA
ATOM     19  C   UNL     1       2.861   4.816  20.380  0.00  0.00    +0.000 A 
ENDBRANCH   7  14
ENDBRANCH   2   3
BRANCH   1  21
ATOM     20  N   UNL     1       0.487   9.497  19.008  0.00  0.00    +0.000 N 
ATOM     21  C   UNL     1       1.631   9.984  18.402  0.00  0.00    +0.000 C 
ATOM     22  O   UNL     1       2.093  11.113  18.512  0.00  0.00    +0.000 OA
ATOM     23  H   UNL     1       0.460   8.501  19.213  0.00  0.00    +0.000 HD
BRANCH  20  25
ATOM     24  C   UNL     1      -1.223  11.248  19.470  0.00  0.00    +0.000 A 
ATOM     25  C   UNL     1      -0.293  10.289  19.844  0.00  0.00    +0.000 A 
ATOM     26  S   UNL     1      -0.053  10.199  21.523  0.00  0.00    +0.000 S 
ATOM     27  C   UNL     1      -1.170  11.446  21.807  0.00  0.00    +0.000 A 
ATOM     28  C   UNL     1      -1.749  11.924  20.642  0.00  0.00    +0.000 A 
ATOM     29  C   UNL     1      -2.780  13.019  20.694  0.00  0.00    +0.000 C 
ATOM     30  C   UNL     1      -2.739  13.798  22.016  0.00  0.00    +0.000 C 
ATOM     31  C   UNL     1      -2.679  12.853  23.221  0.00  0.00    +0.000 C 
ATOM     32  C   UNL     1      -1.423  11.970  23.189  0.00  0.00    +0.000 C 
BRANCH  24  34
ATOM     33  N   UNL     1      -1.307  12.664  17.523  0.00  0.00    +0.000 N 
ATOM     34  C   UNL     1      -1.572  11.438  18.062  0.00  0.00    +0.000 C 
ATOM     35  O   UNL     1      -2.142  10.579  17.394  0.00  0.00    +0.000 OA
ATOM     36  H   UNL     1      -1.688  12.841  16.603  0.00  0.00    +0.000 HD
ATOM     37  H   UNL     1      -1.110  13.462  18.106  0.00  0.00    +0.000 HD
ENDBRANCH  24  34
ENDBRANCH  20  25
ENDBRANCH   1  21
TORSDOF 6
ENDMDL
MODEL 2
REMARK VINA RESULT:      -8.5      0.769      1.174
REMARK  Name = 
REMARK  6 active torsions:
REMARK  status: ('A' for Active; 'I' for Inactive)
REMARK    1  A    between atoms: C_2  and  C_4
REMARK    2  A    between atoms: C_5  and  N_6
REMARK    3  A    between atoms: C_7  and  C_9
REMARK    4  A    between atoms: C_10  and  C_11
REMARK    5  A    between atoms: N_13  and  C_14
REMARK    6  A    between atoms: C_21  and  C_22
REMARK                            x       y       z     vdW  Elec       q    Type
REMARK                         _______ _______ _______ _____ _____    ______ ____
ROOT
ATOM      1  C   UNL     1       2.558   8.772  17.458  0.00  0.00    +0.000 C 
ATOM      2  C   UNL     1       2.930   7.649  18.086  0.00  0.00    +0.000 C 
ENDROOT
BRANCH   2   3
ATOM      3  C   UNL     1       3.596   6.551  17.467  0.00  0.00    +0.000 A 
ATOM      4  C   UNL     1       4.312   6.640  16.299  0.00  0.00    +0.000 A 
ATOM      5  N   UNL     1       4.835   5.390  16.054  0.00  0.00    +0.000 N 
ATOM      6  N   UNL     1       4.439   4.497  17.001  0.00  0.00    +0.000 NA
ATOM      7  C   UNL     1       3.743   5.205  17.906  0.00  0.00    +0.000 A 
BRANCH   5   8
ATOM      8  C   UNL     1       5.690   4.997  14.983  0.00  0.00    +0.000 A 
ATOM      9  C   UNL     1       6.980   5.536  14.849  0.00  0.00    +0.000 A 
ATOM     10  C   UNL     1       7.804   5.132  13.794  0.00  0.00    +0.000 A 
ATOM     11  C   UNL     1       7.354   4.194  12.869  0.00  0.00    +0.000 A 
ATOM     12  C   UNL     1       6.075   3.653  12.994  0.00  0.00    +0.000 A 
ATOM     13  C   UNL     1       5.246   4.050  14.048  0.00  0.00    +0.000 A 
ENDBRANCH   5   8
BRANCH   7  14
ATOM     14  C   UNL     1       3.259   4.577  19.135  0.00  0.00    +0.000 A 
ATOM     15  C   UNL     1       2.377   5.228  20.002  0.00  0.00    +0.000 A 
ATOM     16  C   UNL     1       1.931   4.591  21.160  0.00  0.00    +0.000 A 
ATOM     17  C   UNL     1       2.397   3.318  21.426  0.00  0.00    +0.000 A 
ATOM     18  N   UNL     1       3.260   2.654  20.629  0.00  0.00    +0.000 NA
ATOM     19  C   UNL     1       3.677   3.302  19.508  0.00  0.00    +0.000 A 
ENDBRANCH   7  14
ENDBRANCH   2   3
BRANCH   1  21
ATOM     20  N   UNL     1       0.688   9.312  18.849  0.00  0.00    +0.000 N 
ATOM     21  C   UNL     1       1.814   9.817  18.226  0.00  0.00    +0.000 C 
ATOM     22  O   UNL     1       2.258  10.954  18.327  0.00  0.00    +0.000 OA
ATOM     23  H   UNL     1       0.680   8.316  19.056  0.00  0.00    +0.000 HD
BRANCH  20  25
ATOM     24  C   UNL     1      -1.077  11.002  19.335  0.00  0.00    +0.000 A 
ATOM     25  C   UNL     1      -0.094  10.091  19.695  0.00  0.00    +0.000 A 
ATOM     26  S   UNL     1       0.213  10.054  21.366  0.00  0.00    +0.000 S 
ATOM     27  C   UNL     1      -0.945  11.261  21.663  0.00  0.00    +0.000 A 
ATOM     28  C   UNL     1      -1.586  11.685  20.510  0.00  0.00    +0.000 A 
ATOM     29  C   UNL     1      -2.660  12.737  20.575  0.00  0.00    +0.000 C 
ATOM     30  C   UNL     1      -2.603  13.551  21.876  0.00  0.00    +0.000 C 
ATOM     31  C   UNL     1      -2.458  12.639  23.100  0.00  0.00    +0.000 C 
ATOM     32  C   UNL     1      -1.168  11.809  23.041  0.00  0.00    +0.000 C 
BRANCH  24  34
ATOM     33  N   UNL     1      -1.424  12.395  17.401  0.00  0.00    +0.000 N 
ATOM     34  C   UNL     1      -1.486  11.142  17.937  0.00  0.00    +0.000 C 
ATOM     35  O   UNL     1      -1.935  10.208  17.277  0.00  0.00    +0.000 OA
ATOM     36  H   UNL     1      -1.851  12.515  16.492  0.00  0.00    +0.000 HD
ATOM     37  H   UNL     1      -1.337  13.212  17.985  0.00  0.00    +0.000 HD
ENDBRANCH  24  34
ENDBRANCH  20  25
ENDBRANCH   1  21
TORSDOF 6
ENDMDL
MODEL 3
REMARK VINA RESULT:      -8.5      1.596      1.870
REMARK  Name = 
REMARK  6 active torsions:
REMARK  status: ('A' for Active; 'I' for Inactive)
REMARK    1  A    between atoms: C_2  and  C_4
REMARK    2  A    between atoms: C_5  and  N_6
REMARK    3  A    between atoms: C_7  and  C_9
REMARK    4  A    between atoms: C_10  and  C_11
REMARK    5  A    between atoms: N_13  and  C_14
REMARK    6  A    between atoms: C_21  and  C_22
REMARK                            x       y       z     vdW  Elec       q    Type
REMARK                         _______ _______ _______ _____ _____    ______ ____
ROOT
ATOM      1  C   UNL     1       2.159   8.267  17.897  0.00  0.00    +0.000 C 
ATOM      2  C   UNL     1       3.037   7.352  18.328  0.00  0.00    +0.000 C 
ENDROOT
BRANCH   2   3
ATOM      3  C   UNL     1       3.569   6.295  17.533  0.00  0.00    +0.000 A 
ATOM      4  C   UNL     1       4.412   6.481  16.464  0.00  0.00    +0.000 A 
ATOM      5  N   UNL     1       4.738   5.229  15.990  0.00  0.00    +0.000 N 
ATOM      6  N   UNL     1       4.097   4.255  16.690  0.00  0.00    +0.000 NA
ATOM      7  C   UNL     1       3.438   4.885  17.678  0.00  0.00    +0.000 A 
BRANCH   5   8
ATOM      8  C   UNL     1       5.624   4.906  14.921  0.00  0.00    +0.000 A 
ATOM      9  C   UNL     1       6.895   5.496  14.828  0.00  0.00    +0.000 A 
ATOM     10  C   UNL     1       7.751   5.159  13.775  0.00  0.00    +0.000 A 
ATOM     11  C   UNL     1       7.350   4.239  12.809  0.00  0.00    +0.000 A 
ATOM     12  C   UNL     1       6.090   3.648  12.893  0.00  0.00    +0.000 A 
ATOM     13  C   UNL     1       5.231   3.977  13.946  0.00  0.00    +0.000 A 
ENDBRANCH   5   8
BRANCH   7  14
ATOM     14  C   UNL     1       2.725   4.125  18.704  0.00  0.00    +0.000 A 
ATOM     15  C   UNL     1       1.451   3.594  18.481  0.00  0.00    +0.000 A 
ATOM     16  C   UNL     1       0.808   2.868  19.482  0.00  0.00    +0.000 A 
ATOM     17  C   UNL     1       1.456   2.706  20.691  0.00  0.00    +0.000 A 
ATOM     18  N   UNL     1       2.678   3.212  20.960  0.00  0.00    +0.000 NA
ATOM     19  C   UNL     1       3.279   3.916  19.964  0.00  0.00    +0.000 A 
ENDBRANCH   7  14
ENDBRANCH   2   3
BRANCH   1  21
ATOM     20  N   UNL     1       1.498  10.533  18.288  0.00  0.00    +0.000 N 
ATOM     21  C   UNL     1       1.643   9.284  18.863  0.00  0.00    +0.000 C 
ATOM     22  O   UNL     1       1.317   8.960  19.999  0.00  0.00    +0.000 OA
ATOM     23  H   UNL     1       1.372  10.566  17.279  0.00  0.00    +0.000 HD
BRANCH  20  25
ATOM     24  C   UNL     1      -0.371  12.052  18.923  0.00  0.00    +0.000 A 
ATOM     25  C   UNL     1       0.940  11.600  18.983  0.00  0.00    +0.000 A 
ATOM     26  S   UNL     1       1.946  12.571  19.948  0.00  0.00    +0.000 S 
ATOM     27  C   UNL     1       0.670  13.634  20.307  0.00  0.00    +0.000 A 
ATOM     28  C   UNL     1      -0.527  13.254  19.722  0.00  0.00    +0.000 A 
ATOM     29  C   UNL     1      -1.776  14.063  19.942  0.00  0.00    +0.000 C 
ATOM     30  C   UNL     1      -1.473  15.486  20.432  0.00  0.00    +0.000 C 
ATOM     31  C   UNL     1      -0.449  15.478  21.573  0.00  0.00    +0.000 C 
ATOM     32  C   UNL     1       0.889  14.868  21.132  0.00  0.00    +0.000 C 
BRANCH  24  34
ATOM     33  N   UNL     1      -1.938  11.963  17.096  0.00  0.00    +0.000 N 
ATOM     34  C   UNL     1      -1.378  11.316  18.159  0.00  0.00    +0.000 C 
ATOM     35  O   UNL     1      -1.772  10.197  18.478  0.00  0.00    +0.000 OA
ATOM     36  H   UNL     1      -2.737  11.515  16.669  0.00  0.00    +0.000 HD
ATOM     37  H   UNL     1      -1.849  12.961  16.983  0.00  0.00    +0.000 HD
ENDBRANCH  24  34
ENDBRANCH  20  25
ENDBRANCH   1  21
TORSDOF 6
ENDMDL
MODEL 4
REMARK VINA RESULT:      -8.4      1.549      2.403
REMARK  Name = 
REMARK  6 active torsions:
REMARK  status: ('A' for Active; 'I' for Inactive)
REMARK    1  A    between atoms: C_2  and  C_4
REMARK    2  A    between atoms: C_5  and  N_6
REMARK    3  A    between atoms: C_7  and  C_9
REMARK    4  A    between atoms: C_10  and  C_11
REMARK    5  A    between atoms: N_13  and  C_14
REMARK    6  A    between atoms: C_21  and  C_22
REMARK                            x       y       z     vdW  Elec       q    Type
REMARK                         _______ _______ _______ _____ _____    ______ ____
ROOT
ATOM      1  C   UNL     1       2.473   8.508  17.321  0.00  0.00    +0.000 C 
ATOM      2  C   UNL     1       3.296   7.613  17.882  0.00  0.00    +0.000 C 
ENDROOT
BRANCH   2   3
ATOM      3  C   UNL     1       3.862   6.491  17.209  0.00  0.00    +0.000 A 
ATOM      4  C   UNL     1       4.570   6.571  16.035  0.00  0.00    +0.000 A 
ATOM      5  N   UNL     1       4.985   5.293  15.731  0.00  0.00    +0.000 N 
ATOM      6  N   UNL     1       4.527   4.396  16.645  0.00  0.00    +0.000 NA
ATOM      7  C   UNL     1       3.902   5.120  17.589  0.00  0.00    +0.000 A 
BRANCH   5   8
ATOM      8  C   UNL     1       5.793   4.877  14.632  0.00  0.00    +0.000 A 
ATOM      9  C   UNL     1       7.077   5.410  14.433  0.00  0.00    +0.000 A 
ATOM     10  C   UNL     1       7.855   4.983  13.352  0.00  0.00    +0.000 A 
ATOM     11  C   UNL     1       7.363   4.029  12.465  0.00  0.00    +0.000 A 
ATOM     12  C   UNL     1       6.090   3.494  12.655  0.00  0.00    +0.000 A 
ATOM     13  C   UNL     1       5.308   3.913  13.736  0.00  0.00    +0.000 A 
ENDBRANCH   5   8
BRANCH   7  14
ATOM     14  C   UNL     1       3.380   4.482  18.797  0.00  0.00    +0.000 A 
ATOM     15  C   UNL     1       2.251   4.968  19.463  0.00  0.00    +0.000 A 
ATOM     16  C   UNL     1       1.780   4.325  20.608  0.00  0.00    +0.000 A 
ATOM     17  C   UNL     1       2.466   3.217  21.065  0.00  0.00    +0.000 A 
ATOM     18  N   UNL     1       3.569   2.720  20.466  0.00  0.00    +0.000 NA
ATOM     19  C   UNL     1       4.004   3.368  19.354  0.00  0.00    +0.000 A 
ENDBRANCH   7  14
ENDBRANCH   2   3
BRANCH   1  21
ATOM     20  N   UNL     1       0.717   9.247  18.769  0.00  0.00    +0.000 N 
ATOM     21  C   UNL     1       1.910   9.604  18.169  0.00  0.00    +0.000 C 
ATOM     22  O   UNL     1       2.535  10.643  18.344  0.00  0.00    +0.000 OA
ATOM     23  H   UNL     1       0.546   8.253  18.905  0.00  0.00    +0.000 HD
BRANCH  20  25
ATOM     24  C   UNL     1      -0.018   9.919  21.052  0.00  0.00    +0.000 A 
ATOM     25  C   UNL     1       0.074  10.081  19.677  0.00  0.00    +0.000 A 
ATOM     26  S   UNL     1      -0.810  11.408  19.092  0.00  0.00    +0.000 S 
ATOM     27  C   UNL     1      -1.358  11.803  20.652  0.00  0.00    +0.000 A 
ATOM     28  C   UNL     1      -0.861  10.952  21.626  0.00  0.00    +0.000 A 
ATOM     29  C   UNL     1      -1.219  11.155  23.073  0.00  0.00    +0.000 C 
ATOM     30  C   UNL     1      -2.472  12.025  23.248  0.00  0.00    +0.000 C 
ATOM     31  C   UNL     1      -2.408  13.282  22.373  0.00  0.00    +0.000 C 
ATOM     32  C   UNL     1      -2.319  12.931  20.881  0.00  0.00    +0.000 C 
BRANCH  24  34
ATOM     33  N   UNL     1       1.713   9.211  22.570  0.00  0.00    +0.000 N 
ATOM     34  C   UNL     1       0.707   8.841  21.725  0.00  0.00    +0.000 C 
ATOM     35  O   UNL     1       0.489   7.652  21.506  0.00  0.00    +0.000 OA
ATOM     36  H   UNL     1       2.308   8.468  22.910  0.00  0.00    +0.000 HD
ATOM     37  H   UNL     1       2.097  10.143  22.551  0.00  0.00    +0.000 HD
ENDBRANCH  24  34
ENDBRANCH  20  25
ENDBRANCH   1  21
TORSDOF 6
ENDMDL
MODEL 5
REMARK VINA RESULT:      -8.4      1.670      2.216
REMARK  Name = 
REMARK  6 active torsions:
REMARK  status: ('A' for Active; 'I' for Inactive)
REMARK    1  A    between atoms: C_2  and  C_4
REMARK    2  A    between atoms: C_5  and  N_6
REMARK    3  A    between atoms: C_7  and  C_9
REMARK    4  A    between atoms: C_10  and  C_11
REMARK    5  A    between atoms: N_13  and  C_14
REMARK    6  A    between atoms: C_21  and  C_22
REMARK                            x       y       z     vdW  Elec       q    Type
REMARK                         _______ _______ _______ _____ _____    ______ ____
ROOT
ATOM      1  C   UNL     1       1.977   8.655  18.185  0.00  0.00    +0.000 C 
ATOM      2  C   UNL     1       2.058   7.395  18.631  0.00  0.00    +0.000 C 
ENDROOT
BRANCH   2   3
ATOM      3  C   UNL     1       2.879   6.379  18.060  0.00  0.00    +0.000 A 
ATOM      4  C   UNL     1       3.768   6.588  17.035  0.00  0.00    +0.000 A 
ATOM      5  N   UNL     1       4.396   5.386  16.799  0.00  0.00    +0.000 N 
ATOM      6  N   UNL     1       3.906   4.407  17.606  0.00  0.00    +0.000 NA
ATOM      7  C   UNL     1       3.032   5.012  18.428  0.00  0.00    +0.000 A 
BRANCH   5   8
ATOM      8  C   UNL     1       5.435   5.115  15.861  0.00  0.00    +0.000 A 
ATOM      9  C   UNL     1       5.192   4.350  14.708  0.00  0.00    +0.000 A 
ATOM     10  C   UNL     1       6.224   4.103  13.798  0.00  0.00    +0.000 A 
ATOM     11  C   UNL     1       7.500   4.609  14.027  0.00  0.00    +0.000 A 
ATOM     12  C   UNL     1       7.752   5.370  15.168  0.00  0.00    +0.000 A 
ATOM     13  C   UNL     1       6.724   5.625  16.081  0.00  0.00    +0.000 A 
ENDBRANCH   5   8
BRANCH   7  14
ATOM     14  C   UNL     1       2.393   4.272  19.515  0.00  0.00    +0.000 A 
ATOM     15  C   UNL     1       1.260   3.479  19.306  0.00  0.00    +0.000 A 
ATOM     16  C   UNL     1       0.685   2.782  20.368  0.00  0.00    +0.000 A 
ATOM     17  C   UNL     1       1.255   2.910  21.620  0.00  0.00    +0.000 A 
ATOM     18  N   UNL     1       2.338   3.674  21.875  0.00  0.00    +0.000 NA
ATOM     19  C   UNL     1       2.875   4.342  20.820  0.00  0.00    +0.000 A 
ENDBRANCH   7  14
ENDBRANCH   2   3
BRANCH   1  21
ATOM     20  N   UNL     1       1.492  10.040  20.074  0.00  0.00    +0.000 N 
ATOM     21  C   UNL     1       1.026   9.598  18.850  0.00  0.00    +0.000 C 
ATOM     22  O   UNL     1       0.008   9.968  18.277  0.00  0.00    +0.000 OA
ATOM     23  H   UNL     1       2.499  10.021  20.221  0.00  0.00    +0.000 HD
BRANCH  20  25
ATOM     24  C   UNL     1      -0.101  10.782  21.839  0.00  0.00    +0.000 A 
ATOM     25  C   UNL     1       0.810  10.999  20.816  0.00  0.00    +0.000 A 
ATOM     26  S   UNL     1       0.983  12.637  20.401  0.00  0.00    +0.000 S 
ATOM     27  C   UNL     1      -0.162  13.111  21.563  0.00  0.00    +0.000 A 
ATOM     28  C   UNL     1      -0.666  12.042  22.286  0.00  0.00    +0.000 A 
ATOM     29  C   UNL     1      -1.679  12.267  23.376  0.00  0.00    +0.000 C 
ATOM     30  C   UNL     1      -2.379  13.628  23.252  0.00  0.00    +0.000 C 
ATOM     31  C   UNL     1      -1.369  14.756  23.008  0.00  0.00    +0.000 C 
ATOM     32  C   UNL     1      -0.583  14.543  21.707  0.00  0.00    +0.000 C 
BRANCH  24  34
ATOM     33  N   UNL     1      -0.181   9.232  23.682  0.00  0.00    +0.000 N 
ATOM     34  C   UNL     1      -0.350   9.431  22.342  0.00  0.00    +0.000 C 
ATOM     35  O   UNL     1      -0.629   8.486  21.607  0.00  0.00    +0.000 OA
ATOM     36  H   UNL     1      -0.202   8.272  23.998  0.00  0.00    +0.000 HD
ATOM     37  H   UNL     1       0.314   9.900  24.252  0.00  0.00    +0.000 HD
ENDBRANCH  24  34
ENDBRANCH  20  25
ENDBRANCH   1  21
TORSDOF 6
ENDMDL
MODEL 6
REMARK VINA RESULT:      -8.4      1.623      2.175
REMARK  Name = 
REMARK  6 active torsions:
REMARK  status: ('A' for Active; 'I' for Inactive)
REMARK    1  A    between atoms: C_2  and  C_4
REMARK    2  A    between atoms: C_5  and  N_6
REMARK    3  A    between atoms: C_7  and  C_9
REMARK    4  A    between atoms: C_10  and  C_11
REMARK    5  A    between atoms: N_13  and  C_14
REMARK    6  A    between atoms: C_21  and  C_22
REMARK                            x       y       z     vdW  Elec       q    Type
REMARK                         _______ _______ _______ _____ _____    ______ ____
ROOT
ATOM      1  C   UNL     1       1.983   8.324  17.904  0.00  0.00    +0.000 C 
ATOM      2  C   UNL     1       2.784   7.398  18.448  0.00  0.00    +0.000 C 
ENDROOT
BRANCH   2   3
ATOM      3  C   UNL     1       3.407   6.335  17.731  0.00  0.00    +0.000 A 
ATOM      4  C   UNL     1       4.230   6.513  16.645  0.00  0.00    +0.000 A 
ATOM      5  N   UNL     1       4.664   5.263  16.264  0.00  0.00    +0.000 N 
ATOM      6  N   UNL     1       4.110   4.292  17.039  0.00  0.00    +0.000 NA
ATOM      7  C   UNL     1       3.399   4.934  17.981  0.00  0.00    +0.000 A 
BRANCH   5   8
ATOM      8  C   UNL     1       5.575   4.939  15.217  0.00  0.00    +0.000 A 
ATOM      9  C   UNL     1       6.880   5.458  15.203  0.00  0.00    +0.000 A 
ATOM     10  C   UNL     1       7.759   5.122  14.169  0.00  0.00    +0.000 A 
ATOM     11  C   UNL     1       7.349   4.272  13.145  0.00  0.00    +0.000 A 
ATOM     12  C   UNL     1       6.056   3.751  13.150  0.00  0.00    +0.000 A 
ATOM     13  C   UNL     1       5.172   4.080  14.183  0.00  0.00    +0.000 A 
ENDBRANCH   5   8
BRANCH   7  14
ATOM     14  C   UNL     1       2.754   4.194  19.065  0.00  0.00    +0.000 A 
ATOM     15  C   UNL     1       1.364   4.155  19.212  0.00  0.00    +0.000 A 
ATOM     16  C   UNL     1       0.788   3.431  20.254  0.00  0.00    +0.000 A 
ATOM     17  C   UNL     1       1.625   2.774  21.135  0.00  0.00    +0.000 A 
ATOM     18  N   UNL     1       2.971   2.794  21.045  0.00  0.00    +0.000 NA
ATOM     19  C   UNL     1       3.503   3.509  20.018  0.00  0.00    +0.000 A 
ENDBRANCH   7  14
ENDBRANCH   2   3
BRANCH   1  21
ATOM     20  N   UNL     1       0.782  10.385  18.082  0.00  0.00    +0.000 N 
ATOM     21  C   UNL     1       1.354   9.347  18.794  0.00  0.00    +0.000 C 
ATOM     22  O   UNL     1       1.304   9.177  20.006  0.00  0.00    +0.000 OA
ATOM     23  H   UNL     1       0.503  10.191  17.123  0.00  0.00    +0.000 HD
BRANCH  20  25
ATOM     24  C   UNL     1       0.532  12.617  19.160  0.00  0.00    +0.000 A 
ATOM     25  C   UNL     1       0.057  11.393  18.709  0.00  0.00    +0.000 A 
ATOM     26  S   UNL     1      -1.573  11.116  19.097  0.00  0.00    +0.000 S 
ATOM     27  C   UNL     1      -1.698  12.613  19.890  0.00  0.00    +0.000 A 
ATOM     28  C   UNL     1      -0.520  13.342  19.850  0.00  0.00    +0.000 A 
ATOM     29  C   UNL     1      -0.442  14.704  20.484  0.00  0.00    +0.000 C 
ATOM     30  C   UNL     1      -1.564  14.939  21.505  0.00  0.00    +0.000 C 
ATOM     31  C   UNL     1      -2.927  14.518  20.945  0.00  0.00    +0.000 C 
ATOM     32  C   UNL     1      -2.959  13.025  20.589  0.00  0.00    +0.000 C 
BRANCH  24  34
ATOM     33  N   UNL     1       2.274  13.117  17.574  0.00  0.00    +0.000 N 
ATOM     34  C   UNL     1       1.908  13.029  18.886  0.00  0.00    +0.000 C 
ATOM     35  O   UNL     1       2.736  13.224  19.772  0.00  0.00    +0.000 OA
ATOM     36  H   UNL     1       3.260  13.249  17.391  0.00  0.00    +0.000 HD
ATOM     37  H   UNL     1       1.719  12.696  16.845  0.00  0.00    +0.000 HD
ENDBRANCH  24  34
ENDBRANCH  20  25
ENDBRANCH   1  21
TORSDOF 6
ENDMDL
MODEL 7
REMARK VINA RESULT:      -8.3      1.696      2.474
REMARK  Name = 
REMARK  6 active torsions:
REMARK  status: ('A' for Active; 'I' for Inactive)
REMARK    1  A    between atoms: C_2  and  C_4
REMARK    2  A    between atoms: C_5  and  N_6
REMARK    3  A    between atoms: C_7  and  C_9
REMARK    4  A    between atoms: C_10  and  C_11
REMARK    5  A    between atoms: N_13  and  C_14
REMARK    6  A    between atoms: C_21  and  C_22
REMARK                            x       y       z     vdW  Elec       q    Type
REMARK                         _______ _______ _______ _____ _____    ______ ____
ROOT
ATOM      1  C   UNL     1       1.998   8.684  18.077  0.00  0.00    +0.000 C 
ATOM      2  C   UNL     1       2.108   7.431  18.538  0.00  0.00    +0.000 C 
ENDROOT
BRANCH   2   3
ATOM      3  C   UNL     1       2.927   6.418  17.961  0.00  0.00    +0.000 A 
ATOM      4  C   UNL     1       3.822   6.635  16.941  0.00  0.00    +0.000 A 
ATOM      5  N   UNL     1       4.447   5.432  16.696  0.00  0.00    +0.000 N 
ATOM      6  N   UNL     1       3.949   4.447  17.490  0.00  0.00    +0.000 NA
ATOM      7  C   UNL     1       3.074   5.047  18.315  0.00  0.00    +0.000 A 
BRANCH   5   8
ATOM      8  C   UNL     1       5.489   5.167  15.759  0.00  0.00    +0.000 A 
ATOM      9  C   UNL     1       6.789   5.660  15.961  0.00  0.00    +0.000 A 
ATOM     10  C   UNL     1       7.797   5.382  15.032  0.00  0.00    +0.000 A 
ATOM     11  C   UNL     1       7.522   4.617  13.902  0.00  0.00    +0.000 A 
ATOM     12  C   UNL     1       6.235   4.123  13.694  0.00  0.00    +0.000 A 
ATOM     13  C   UNL     1       5.222   4.394  14.620  0.00  0.00    +0.000 A 
ENDBRANCH   5   8
BRANCH   7  14
ATOM     14  C   UNL     1       2.427   4.297  19.391  0.00  0.00    +0.000 A 
ATOM     15  C   UNL     1       2.811   4.440  20.728  0.00  0.00    +0.000 A 
ATOM     16  C   UNL     1       2.163   3.714  21.727  0.00  0.00    +0.000 A 
ATOM     17  C   UNL     1       1.153   2.848  21.355  0.00  0.00    +0.000 A 
ATOM     18  N   UNL     1       0.757   2.664  20.078  0.00  0.00    +0.000 NA
ATOM     19  C   UNL     1       1.409   3.385  19.127  0.00  0.00    +0.000 A 
ENDBRANCH   7  14
ENDBRANCH   2   3
BRANCH   1  21
ATOM     20  N   UNL     1       1.510  10.030  19.993  0.00  0.00    +0.000 N 
ATOM     21  C   UNL     1       1.053   9.623  18.753  0.00  0.00    +0.000 C 
ATOM     22  O   UNL     1       0.047  10.021  18.178  0.00  0.00    +0.000 OA
ATOM     23  H   UNL     1       2.514   9.994  20.151  0.00  0.00    +0.000 HD
BRANCH  20  25
ATOM     24  C   UNL     1      -0.075  10.751  21.775  0.00  0.00    +0.000 A 
ATOM     25  C   UNL     1       0.832  10.980  20.749  0.00  0.00    +0.000 A 
ATOM     26  S   UNL     1       1.003  12.623  20.353  0.00  0.00    +0.000 S 
ATOM     27  C   UNL     1      -0.136  13.083  21.526  0.00  0.00    +0.000 A 
ATOM     28  C   UNL     1      -0.637  12.007  22.239  0.00  0.00    +0.000 A 
ATOM     29  C   UNL     1      -1.645  12.219  23.336  0.00  0.00    +0.000 C 
ATOM     30  C   UNL     1      -2.344  13.581  23.232  0.00  0.00    +0.000 C 
ATOM     31  C   UNL     1      -1.335  14.712  22.997  0.00  0.00    +0.000 C 
ATOM     32  C   UNL     1      -0.555  14.514  21.689  0.00  0.00    +0.000 C 
BRANCH  24  34
ATOM     33  N   UNL     1      -0.191   9.190  23.605  0.00  0.00    +0.000 N 
ATOM     34  C   UNL     1      -0.321   9.394  22.262  0.00  0.00    +0.000 C 
ATOM     35  O   UNL     1      -0.566   8.450  21.515  0.00  0.00    +0.000 OA
ATOM     36  H   UNL     1      -0.209   8.229  23.916  0.00  0.00    +0.000 HD
ATOM     37  H   UNL     1       0.278   9.861  24.195  0.00  0.00    +0.000 HD
ENDBRANCH  24  34
ENDBRANCH  20  25
ENDBRANCH   1  21
TORSDOF 6
ENDMDL
MODEL 8
REMARK VINA RESULT:      -8.3      1.264      2.108
REMARK  Name = 
REMARK  6 active torsions:
REMARK  status: ('A' for Active; 'I' for Inactive)
REMARK    1  A    between atoms: C_2  and  C_4
REMARK    2  A    between atoms: C_5  and  N_6
REMARK    3  A    between atoms: C_7  and  C_9
REMARK    4  A    between atoms: C_10  and  C_11
REMARK    5  A    between atoms: N_13  and  C_14
REMARK    6  A    between atoms: C_21  and  C_22
REMARK                            x       y       z     vdW  Elec       q    Type
REMARK                         _______ _______ _______ _____ _____    ______ ____
ROOT
ATOM      1  C   UNL     1       2.435   8.966  17.562  0.00  0.00    +0.000 C 
ATOM      2  C   UNL     1       2.749   7.821  18.184  0.00  0.00    +0.000 C 
ENDROOT
BRANCH   2   3
ATOM      3  C   UNL     1       3.356   6.693  17.558  0.00  0.00    +0.000 A 
ATOM      4  C   UNL     1       4.231   6.773  16.502  0.00  0.00    +0.000 A 
ATOM      5  N   UNL     1       4.628   5.486  16.214  0.00  0.00    +0.000 N 
ATOM      6  N   UNL     1       4.002   4.586  17.020  0.00  0.00    +0.000 NA
ATOM      7  C   UNL     1       3.279   5.311  17.890  0.00  0.00    +0.000 A 
BRANCH   5   8
ATOM      8  C   UNL     1       5.568   5.064  15.229  0.00  0.00    +0.000 A 
ATOM      9  C   UNL     1       5.200   4.171  14.210  0.00  0.00    +0.000 A 
ATOM     10  C   UNL     1       6.137   3.775  13.250  0.00  0.00    +0.000 A 
ATOM     11  C   UNL     1       7.440   4.262  13.297  0.00  0.00    +0.000 A 
ATOM     12  C   UNL     1       7.815   5.149  14.304  0.00  0.00    +0.000 A 
ATOM     13  C   UNL     1       6.883   5.552  15.266  0.00  0.00    +0.000 A 
ENDBRANCH   5   8
BRANCH   7  14
ATOM     14  C   UNL     1       2.560   4.663  18.986  0.00  0.00    +0.000 A 
ATOM     15  C   UNL     1       1.486   3.797  18.758  0.00  0.00    +0.000 A 
ATOM     16  C   UNL     1       0.831   3.193  19.830  0.00  0.00    +0.000 A 
ATOM     17  C   UNL     1       1.263   3.486  21.109  0.00  0.00    +0.000 A 
ATOM     18  N   UNL     1       2.284   4.327  21.381  0.00  0.00    +0.000 NA
ATOM     19  C   UNL     1       2.901   4.901  20.315  0.00  0.00    +0.000 A 
ENDBRANCH   7  14
ENDBRANCH   2   3
BRANCH   1  21
ATOM     20  N   UNL     1       0.623   9.583  18.998  0.00  0.00    +0.000 N 
ATOM     21  C   UNL     1       1.747  10.043  18.337  0.00  0.00    +0.000 C 
ATOM     22  O   UNL     1       2.231  11.167  18.411  0.00  0.00    +0.000 OA
ATOM     23  H   UNL     1       0.589   8.590  19.217  0.00  0.00    +0.000 HD
BRANCH  20  25
ATOM     24  C   UNL     1      -0.205  10.296  21.236  0.00  0.00    +0.000 A 
ATOM     25  C   UNL     1      -0.108  10.398  19.855  0.00  0.00    +0.000 A 
ATOM     26  S   UNL     1      -1.105  11.604  19.194  0.00  0.00    +0.000 S 
ATOM     27  C   UNL     1      -1.709  12.023  20.726  0.00  0.00    +0.000 A 
ATOM     28  C   UNL     1      -1.149  11.273  21.747  0.00  0.00    +0.000 A 
ATOM     29  C   UNL     1      -1.547  11.514  23.179  0.00  0.00    +0.000 C 
ATOM     30  C   UNL     1      -2.878  12.269  23.297  0.00  0.00    +0.000 C 
ATOM     31  C   UNL     1      -2.920  13.481  22.358  0.00  0.00    +0.000 C 
ATOM     32  C   UNL     1      -2.776  13.066  20.887  0.00  0.00    +0.000 C 
BRANCH  24  34
ATOM     33  N   UNL     1       0.329   8.007  21.762  0.00  0.00    +0.000 N 
ATOM     34  C   UNL     1       0.608   9.327  21.970  0.00  0.00    +0.000 C 
ATOM     35  O   UNL     1       1.457   9.657  22.794  0.00  0.00    +0.000 OA
ATOM     36  H   UNL     1       0.783   7.350  22.382  0.00  0.00    +0.000 HD
ATOM     37  H   UNL     1      -0.530   7.716  21.323  0.00  0.00    +0.000 HD
ENDBRANCH  24  34
ENDBRANCH  20  25
ENDBRANCH   1  21
TORSDOF 6
ENDMDL
MODEL 9
REMARK VINA RESULT:      -8.3      1.403      2.152
REMARK  Name = 
REMARK  6 active torsions:
REMARK  status: ('A' for Active; 'I' for Inactive)
REMARK    1  A    between atoms: C_2  and  C_4
REMARK    2  A    between atoms: C_5  and  N_6
REMARK    3  A    between atoms: C_7  and  C_9
REMARK    4  A    between atoms: C_10  and  C_11
REMARK    5  A    between atoms: N_13  and  C_14
REMARK    6  A    between atoms: C_21  and  C_22
REMARK                            x       y       z     vdW  Elec       q    Type
REMARK                         _______ _______ _______ _____ _____    ______ ____
ROOT
ATOM      1  C   UNL     1       2.178   8.829  17.567  0.00  0.00    +0.000 C 
ATOM      2  C   UNL     1       2.931   7.894  18.160  0.00  0.00    +0.000 C 
ENDROOT
BRANCH   2   3
ATOM      3  C   UNL     1       3.476   6.750  17.507  0.00  0.00    +0.000 A 
ATOM      4  C   UNL     1       4.340   6.808  16.441  0.00  0.00    +0.000 A 
ATOM      5  N   UNL     1       4.672   5.509  16.125  0.00  0.00    +0.000 N 
ATOM      6  N   UNL     1       4.014   4.625  16.922  0.00  0.00    +0.000 NA
ATOM      7  C   UNL     1       3.338   5.367  17.815  0.00  0.00    +0.000 A 
BRANCH   5   8
ATOM      8  C   UNL     1       5.578   5.061  15.119  0.00  0.00    +0.000 A 
ATOM      9  C   UNL     1       5.180   4.132  14.145  0.00  0.00    +0.000 A 
ATOM     10  C   UNL     1       6.084   3.712  13.164  0.00  0.00    +0.000 A 
ATOM     11  C   UNL     1       7.384   4.209  13.146  0.00  0.00    +0.000 A 
ATOM     12  C   UNL     1       7.789   5.132  14.110  0.00  0.00    +0.000 A 
ATOM     13  C   UNL     1       6.890   5.560  15.091  0.00  0.00    +0.000 A 
ENDBRANCH   5   8
BRANCH   7  14
ATOM     14  C   UNL     1       2.602   4.734  18.909  0.00  0.00    +0.000 A 
ATOM     15  C   UNL     1       2.924   4.967  20.250  0.00  0.00    +0.000 A 
ATOM     16  C   UNL     1       2.192   4.351  21.264  0.00  0.00    +0.000 A 
ATOM     17  C   UNL     1       1.163   3.502  20.906  0.00  0.00    +0.000 A 
ATOM     18  N   UNL     1       0.825   3.233  19.627  0.00  0.00    +0.000 NA
ATOM     19  C   UNL     1       1.557   3.848  18.660  0.00  0.00    +0.000 A 
ENDBRANCH   7  14
ENDBRANCH   2   3
BRANCH   1  21
ATOM     20  N   UNL     1       0.394   9.638  18.943  0.00  0.00    +0.000 N 
ATOM     21  C   UNL     1       1.626   9.945  18.395  0.00  0.00    +0.000 C 
ATOM     22  O   UNL     1       2.287  10.957  18.601  0.00  0.00    +0.000 OA
ATOM     23  H   UNL     1       0.176   8.652  19.067  0.00  0.00    +0.000 HD
BRANCH  20  25
ATOM     24  C   UNL     1      -0.508  10.282  21.173  0.00  0.00    +0.000 A 
ATOM     25  C   UNL     1      -0.250  10.496  19.826  0.00  0.00    +0.000 A 
ATOM     26  S   UNL     1      -0.921  11.939  19.231  0.00  0.00    +0.000 S 
ATOM     27  C   UNL     1      -1.588  12.320  20.746  0.00  0.00    +0.000 A 
ATOM     28  C   UNL     1      -1.293  11.376  21.716  0.00  0.00    +0.000 A 
ATOM     29  C   UNL     1      -1.782  11.551  23.128  0.00  0.00    +0.000 C 
ATOM     30  C   UNL     1      -2.948  12.546  23.223  0.00  0.00    +0.000 C 
ATOM     31  C   UNL     1      -2.656  13.827  22.433  0.00  0.00    +0.000 C 
ATOM     32  C   UNL     1      -2.443  13.537  20.940  0.00  0.00    +0.000 C 
BRANCH  24  34
ATOM     33  N   UNL     1       1.310   9.172  22.297  0.00  0.00    +0.000 N 
ATOM     34  C   UNL     1       0.022   9.101  21.854  0.00  0.00    +0.000 C 
ATOM     35  O   UNL     1      -0.615   8.057  21.973  0.00  0.00    +0.000 OA
ATOM     36  H   UNL     1       1.720   8.308  22.626  0.00  0.00    +0.000 HD
ATOM     37  H   UNL     1       1.938   9.890  21.970  0.00  0.00    +0.000 HD
ENDBRANCH  24  34
ENDBRANCH  20  25
ENDBRANCH   1  21
TORSDOF 6
ENDMDL
