MODEL 1
REMARK VINA RESULT:      -6.8      0.000      0.000
REMARK  Name = 
REMARK  5 active torsions:
REMARK  status: ('A' for Active; 'I' for Inactive)
REMARK    1  A    between atoms: C_1  and  O_2
REMARK    2  A    between atoms: O_2  and  C_3
REMARK    3  A    between atoms: C_7  and  C_8
REMARK    4  A    between atoms: C_18  and  O_19
REMARK    5  A    between atoms: O_19  and  C_20
REMARK                            x       y       z     vdW  Elec       q    Type
REMARK                         _______ _______ _______ _____ _____    ______ ____
ROOT
ATOM      1  C   UNL     1       2.960   4.487  19.467  0.00  0.00    +0.000 A 
ATOM      2  C   UNL     1       2.353   5.364  20.373  0.00  0.00    +0.000 A 
ATOM      3  C   UNL     1       2.074   6.676  20.009  0.00  0.00    +0.000 A 
ATOM      4  N   UNL     1       1.409   7.485  20.915  0.00  0.00    +0.000 NA
ATOM      5  C   UNL     1       1.100   8.678  20.533  0.00  0.00    +0.000 A 
ATOM      6  O   UNL     1       1.391   9.232  19.332  0.00  0.00    +0.000 OA
ATOM      7  C   UNL     1       2.071   8.506  18.410  0.00  0.00    +0.000 A 
ATOM      8  O   UNL     1       2.370   8.971  17.317  0.00  0.00    +0.000 OA
ATOM      9  C   UNL     1       2.426   7.122  18.752  0.00  0.00    +0.000 A 
ATOM     10  C   UNL     1       3.082   6.282  17.844  0.00  0.00    +0.000 A 
ATOM     11  C   UNL     1       3.360   4.955  18.198  0.00  0.00    +0.000 A 
ENDROOT
BRANCH   5  12
ATOM     12  C   UNL     1       0.358   9.589  21.380  0.00  0.00    +0.000 A 
ATOM     13  C   UNL     1      -0.210   9.364  22.621  0.00  0.00    +0.000 A 
ATOM     14  C   UNL     1      -0.836  10.527  23.157  0.00  0.00    +0.000 A 
ATOM     15  C   UNL     1      -0.734  11.605  22.308  0.00  0.00    +0.000 A 
ATOM     16  S   UNL     1       0.108  11.214  20.877  0.00  0.00    +0.000 S 
ENDBRANCH   5  12
BRANCH   1  18
ATOM     17  C   UNL     1       2.052   2.335  19.798  0.00  0.00    +0.000 C 
ATOM     18  O   UNL     1       3.208   3.172  19.779  0.00  0.00    +0.000 OA
ENDBRANCH   1  18
BRANCH  11  19
ATOM     19  O   UNL     1       3.986   4.050  17.381  0.00  0.00    +0.000 OA
ATOM     20  C   UNL     1       4.834   4.564  16.361  0.00  0.00    +0.000 C 
ENDBRANCH  11  19
TORSDOF 3
ENDMDL
MODEL 2
REMARK VINA RESULT:      -6.7      0.870      1.054
REMARK  Name = 
REMARK  5 active torsions:
REMARK  status: ('A' for Active; 'I' for Inactive)
REMARK    1  A    between atoms: C_1  and  O_2
REMARK    2  A    between atoms: O_2  and  C_3
REMARK    3  A    between atoms: C_7  and  C_8
REMARK    4  A    between atoms: C_18  and  O_19
REMARK    5  A    between atoms: O_19  and  C_20
REMARK                            x       y       z     vdW  Elec       q    Type
REMARK                         _______ _______ _______ _____ _____    ______ ____
ROOT
ATOM      1  C   UNL     1       2.697   4.476  19.769  0.00  0.00    +0.000 A 
ATOM      2  C   UNL     1       2.135   5.451  20.600  0.00  0.00    +0.000 A 
ATOM      3  C   UNL     1       1.940   6.747  20.138  0.00  0.00    +0.000 A 
ATOM      4  N   UNL     1       1.315   7.659  20.972  0.00  0.00    +0.000 NA
ATOM      5  C   UNL     1       1.084   8.837  20.500  0.00  0.00    +0.000 A 
ATOM      6  O   UNL     1       1.421   9.283  19.267  0.00  0.00    +0.000 OA
ATOM      7  C   UNL     1       2.066   8.453  18.411  0.00  0.00    +0.000 A 
ATOM      8  O   UNL     1       2.406   8.818  17.292  0.00  0.00    +0.000 OA
ATOM      9  C   UNL     1       2.333   7.078  18.858  0.00  0.00    +0.000 A 
ATOM     10  C   UNL     1       2.947   6.136  18.023  0.00  0.00    +0.000 A 
ATOM     11  C   UNL     1       3.140   4.825  18.477  0.00  0.00    +0.000 A 
ENDROOT
BRANCH   5  12
ATOM     12  C   UNL     1       0.389   9.850  21.267  0.00  0.00    +0.000 A 
ATOM     13  C   UNL     1       0.185  11.187  20.971  0.00  0.00    +0.000 A 
ATOM     14  C   UNL     1      -0.581  11.858  21.968  0.00  0.00    +0.000 A 
ATOM     15  C   UNL     1      -0.935  11.019  22.999  0.00  0.00    +0.000 A 
ATOM     16  S   UNL     1      -0.345   9.436  22.766  0.00  0.00    +0.000 S 
ENDBRANCH   5  12
BRANCH   1  18
ATOM     17  C   UNL     1       2.333   2.886  21.474  0.00  0.00    +0.000 C 
ATOM     18  O   UNL     1       2.861   3.174  20.180  0.00  0.00    +0.000 OA
ENDBRANCH   1  18
BRANCH  11  19
ATOM     19  O   UNL     1       3.719   3.827  17.737  0.00  0.00    +0.000 OA
ATOM     20  C   UNL     1       4.873   4.160  16.975  0.00  0.00    +0.000 C 
ENDBRANCH  11  19
TORSDOF 3
ENDMDL
MODEL 3
REMARK VINA RESULT:      -6.5      5.439      7.830
REMARK  Name = 
REMARK  5 active torsions:
REMARK  status: ('A' for Active; 'I' for Inactive)
REMARK    1  A    between atoms: C_1  and  O_2
REMARK    2  A    between atoms: O_2  and  C_3
REMARK    3  A    between atoms: C_7  and  C_8
REMARK    4  A    between atoms: C_18  and  O_19
REMARK    5  A    between atoms: O_19  and  C_20
REMARK                            x       y       z     vdW  Elec       q    Type
REMARK                         _______ _______ _______ _____ _____    ______ ____
ROOT
ATOM      1  C   UNL     1       2.376   3.921  18.703  0.00  0.00    +0.000 A 
ATOM      2  C   UNL     1       2.865   4.071  17.401  0.00  0.00    +0.000 A 
ATOM      3  C   UNL     1       4.216   4.305  17.175  0.00  0.00    +0.000 A 
ATOM      4  N   UNL     1       4.665   4.376  15.867  0.00  0.00    +0.000 NA
ATOM      5  C   UNL     1       5.932   4.526  15.679  0.00  0.00    +0.000 A 
ATOM      6  O   UNL     1       6.873   4.651  16.645  0.00  0.00    +0.000 OA
ATOM      7  C   UNL     1       6.498   4.625  17.947  0.00  0.00    +0.000 A 
ATOM      8  O   UNL     1       7.313   4.751  18.855  0.00  0.00    +0.000 OA
ATOM      9  C   UNL     1       5.075   4.417  18.249  0.00  0.00    +0.000 A 
ATOM     10  C   UNL     1       4.604   4.324  19.565  0.00  0.00    +0.000 A 
ATOM     11  C   UNL     1       3.245   4.080  19.802  0.00  0.00    +0.000 A 
ENDROOT
BRANCH   5  12
ATOM     12  C   UNL     1       6.515   4.560  14.353  0.00  0.00    +0.000 A 
ATOM     13  C   UNL     1       7.571   5.317  13.880  0.00  0.00    +0.000 A 
ATOM     14  C   UNL     1       7.873   5.043  12.514  0.00  0.00    +0.000 A 
ATOM     15  C   UNL     1       7.035   4.091  11.981  0.00  0.00    +0.000 A 
ATOM     16  S   UNL     1       5.894   3.535  13.120  0.00  0.00    +0.000 S 
ENDBRANCH   5  12
BRANCH   1  18
ATOM     17  C   UNL     1       0.661   2.301  18.681  0.00  0.00    +0.000 C 
ATOM     18  O   UNL     1       1.054   3.645  18.959  0.00  0.00    +0.000 OA
ENDBRANCH   1  18
BRANCH  11  19
ATOM     19  O   UNL     1       2.686   3.961  21.048  0.00  0.00    +0.000 OA
ATOM     20  C   UNL     1       2.671   2.667  21.639  0.00  0.00    +0.000 C 
ENDBRANCH  11  19
TORSDOF 3
ENDMDL
MODEL 4
REMARK VINA RESULT:      -6.5      2.821      7.131
REMARK  Name = 
REMARK  5 active torsions:
REMARK  status: ('A' for Active; 'I' for Inactive)
REMARK    1  A    between atoms: C_1  and  O_2
REMARK    2  A    between atoms: O_2  and  C_3
REMARK    3  A    between atoms: C_7  and  C_8
REMARK    4  A    between atoms: C_18  and  O_19
REMARK    5  A    between atoms: O_19  and  C_20
REMARK                            x       y       z     vdW  Elec       q    Type
REMARK                         _______ _______ _______ _____ _____    ______ ____
ROOT
ATOM      1  C   UNL     1       0.889   9.614  19.616  0.00  0.00    +0.000 A 
ATOM      2  C   UNL     1       1.785   9.127  18.658  0.00  0.00    +0.000 A 
ATOM      3  C   UNL     1       2.359   7.870  18.801  0.00  0.00    +0.000 A 
ATOM      4  N   UNL     1       3.185   7.402  17.792  0.00  0.00    +0.000 NA
ATOM      5  C   UNL     1       3.654   6.206  17.912  0.00  0.00    +0.000 A 
ATOM      6  O   UNL     1       3.439   5.365  18.951  0.00  0.00    +0.000 OA
ATOM      7  C   UNL     1       2.668   5.772  19.989  0.00  0.00    +0.000 A 
ATOM      8  O   UNL     1       2.460   5.052  20.958  0.00  0.00    +0.000 OA
ATOM      9  C   UNL     1       2.063   7.109  19.912  0.00  0.00    +0.000 A 
ATOM     10  C   UNL     1       1.210   7.593  20.913  0.00  0.00    +0.000 A 
ATOM     11  C   UNL     1       0.620   8.856  20.774  0.00  0.00    +0.000 A 
ENDROOT
BRANCH   5  12
ATOM     12  C   UNL     1       4.483   5.599  16.891  0.00  0.00    +0.000 A 
ATOM     13  C   UNL     1       5.197   6.201  15.870  0.00  0.00    +0.000 A 
ATOM     14  C   UNL     1       5.924   5.263  15.082  0.00  0.00    +0.000 A 
ATOM     15  C   UNL     1       5.739   3.971  15.517  0.00  0.00    +0.000 A 
ATOM     16  S   UNL     1       4.696   3.893  16.863  0.00  0.00    +0.000 S 
ENDBRANCH   5  12
BRANCH   1  18
ATOM     17  C   UNL     1       1.148  11.957  19.526  0.00  0.00    +0.000 C 
ATOM     18  O   UNL     1       0.270  10.833  19.482  0.00  0.00    +0.000 OA
ENDBRANCH   1  18
BRANCH  11  19
ATOM     19  O   UNL     1      -0.235   9.416  21.688  0.00  0.00    +0.000 OA
ATOM     20  C   UNL     1       0.215   9.512  23.034  0.00  0.00    +0.000 C 
ENDBRANCH  11  19
TORSDOF 3
ENDMDL
MODEL 5
REMARK VINA RESULT:      -6.4      2.570      6.455
REMARK  Name = 
REMARK  5 active torsions:
REMARK  status: ('A' for Active; 'I' for Inactive)
REMARK    1  A    between atoms: C_1  and  O_2
REMARK    2  A    between atoms: O_2  and  C_3
REMARK    3  A    between atoms: C_7  and  C_8
REMARK    4  A    between atoms: C_18  and  O_19
REMARK    5  A    between atoms: O_19  and  C_20
REMARK                            x       y       z     vdW  Elec       q    Type
REMARK                         _______ _______ _______ _____ _____    ______ ____
ROOT
ATOM      1  C   UNL     1       0.426  10.637  21.263  0.00  0.00    +0.000 A 
ATOM      2  C   UNL     1       0.679   9.283  21.508  0.00  0.00    +0.000 A 
ATOM      3  C   UNL     1       1.251   8.481  20.528  0.00  0.00    +0.000 A 
ATOM      4  N   UNL     1       1.547   7.165  20.842  0.00  0.00    +0.000 NA
ATOM      5  C   UNL     1       2.139   6.456  19.940  0.00  0.00    +0.000 A 
ATOM      6  O   UNL     1       2.475   6.868  18.695  0.00  0.00    +0.000 OA
ATOM      7  C   UNL     1       2.182   8.135  18.310  0.00  0.00    +0.000 A 
ATOM      8  O   UNL     1       2.452   8.546  17.188  0.00  0.00    +0.000 OA
ATOM      9  C   UNL     1       1.543   9.021  19.293  0.00  0.00    +0.000 A 
ATOM     10  C   UNL     1       1.251  10.359  19.002  0.00  0.00    +0.000 A 
ATOM     11  C   UNL     1       0.683  11.178  19.986  0.00  0.00    +0.000 A 
ENDROOT
BRANCH   5  12
ATOM     12  C   UNL     1       2.543   5.086  20.181  0.00  0.00    +0.000 A 
ATOM     13  C   UNL     1       2.015   4.160  21.063  0.00  0.00    +0.000 A 
ATOM     14  C   UNL     1       2.668   2.896  20.986  0.00  0.00    +0.000 A 
ATOM     15  C   UNL     1       3.679   2.893  20.054  0.00  0.00    +0.000 A 
ATOM     16  S   UNL     1       3.839   4.405  19.281  0.00  0.00    +0.000 S 
ENDBRANCH   5  12
BRANCH   1  18
ATOM     17  C   UNL     1      -1.056  10.856  23.086  0.00  0.00    +0.000 C 
ATOM     18  O   UNL     1      -0.095  11.468  22.225  0.00  0.00    +0.000 OA
ENDBRANCH   1  18
BRANCH  11  19
ATOM     19  O   UNL     1       0.371  12.501  19.808  0.00  0.00    +0.000 OA
ATOM     20  C   UNL     1      -0.659  12.811  18.876  0.00  0.00    +0.000 C 
ENDBRANCH  11  19
TORSDOF 3
ENDMDL
MODEL 6
REMARK VINA RESULT:      -6.3      2.776      7.189
REMARK  Name = 
REMARK  5 active torsions:
REMARK  status: ('A' for Active; 'I' for Inactive)
REMARK    1  A    between atoms: C_1  and  O_2
REMARK    2  A    between atoms: O_2  and  C_3
REMARK    3  A    between atoms: C_7  and  C_8
REMARK    4  A    between atoms: C_18  and  O_19
REMARK    5  A    between atoms: O_19  and  C_20
REMARK                            x       y       z     vdW  Elec       q    Type
REMARK                         _______ _______ _______ _____ _____    ______ ____
ROOT
ATOM      1  C   UNL     1       1.232   9.360  19.097  0.00  0.00    +0.000 A 
ATOM      2  C   UNL     1       2.190   8.846  18.217  0.00  0.00    +0.000 A 
ATOM      3  C   UNL     1       2.783   7.612  18.458  0.00  0.00    +0.000 A 
ATOM      4  N   UNL     1       3.674   7.113  17.522  0.00  0.00    +0.000 NA
ATOM      5  C   UNL     1       4.161   5.937  17.731  0.00  0.00    +0.000 A 
ATOM      6  O   UNL     1       3.907   5.147  18.801  0.00  0.00    +0.000 OA
ATOM      7  C   UNL     1       3.070   5.588  19.772  0.00  0.00    +0.000 A 
ATOM      8  O   UNL     1       2.824   4.915  20.766  0.00  0.00    +0.000 OA
ATOM      9  C   UNL     1       2.441   6.904  19.591  0.00  0.00    +0.000 A 
ATOM     10  C   UNL     1       1.524   7.418  20.516  0.00  0.00    +0.000 A 
ATOM     11  C   UNL     1       0.915   8.657  20.277  0.00  0.00    +0.000 A 
ENDROOT
BRANCH   5  12
ATOM     12  C   UNL     1       5.059   5.298  16.792  0.00  0.00    +0.000 A 
ATOM     13  C   UNL     1       4.808   4.269  15.901  0.00  0.00    +0.000 A 
ATOM     14  C   UNL     1       5.948   3.934  15.115  0.00  0.00    +0.000 A 
ATOM     15  C   UNL     1       7.039   4.710  15.430  0.00  0.00    +0.000 A 
ATOM     16  S   UNL     1       6.689   5.831  16.667  0.00  0.00    +0.000 S 
ENDBRANCH   5  12
BRANCH   1  18
ATOM     17  C   UNL     1       1.444  11.701  18.892  0.00  0.00    +0.000 C 
ATOM     18  O   UNL     1       0.594  10.555  18.864  0.00  0.00    +0.000 OA
ENDBRANCH   1  18
BRANCH  11  19
ATOM     19  O   UNL     1      -0.002   9.243  21.111  0.00  0.00    +0.000 OA
ATOM     20  C   UNL     1       0.357   9.391  22.480  0.00  0.00    +0.000 C 
ENDBRANCH  11  19
TORSDOF 3
ENDMDL
MODEL 7
REMARK VINA RESULT:      -6.3      2.644      7.005
REMARK  Name = 
REMARK  5 active torsions:
REMARK  status: ('A' for Active; 'I' for Inactive)
REMARK    1  A    between atoms: C_1  and  O_2
REMARK    2  A    between atoms: O_2  and  C_3
REMARK    3  A    between atoms: C_7  and  C_8
REMARK    4  A    between atoms: C_18  and  O_19
REMARK    5  A    between atoms: O_19  and  C_20
REMARK                            x       y       z     vdW  Elec       q    Type
REMARK                         _______ _______ _______ _____ _____    ______ ____
ROOT
ATOM      1  C   UNL     1       0.769   9.634  19.729  0.00  0.00    +0.000 A 
ATOM      2  C   UNL     1       1.666   9.118  18.787  0.00  0.00    +0.000 A 
ATOM      3  C   UNL     1       2.226   7.859  18.959  0.00  0.00    +0.000 A 
ATOM      4  N   UNL     1       3.054   7.362  17.965  0.00  0.00    +0.000 NA
ATOM      5  C   UNL     1       3.510   6.164  18.112  0.00  0.00    +0.000 A 
ATOM      6  O   UNL     1       3.281   5.347  19.168  0.00  0.00    +0.000 OA
ATOM      7  C   UNL     1       2.508   5.783  20.192  0.00  0.00    +0.000 A 
ATOM      8  O   UNL     1       2.287   5.085  21.175  0.00  0.00    +0.000 OA
ATOM      9  C   UNL     1       1.916   7.124  20.084  0.00  0.00    +0.000 A 
ATOM     10  C   UNL     1       1.062   7.637  21.069  0.00  0.00    +0.000 A 
ATOM     11  C   UNL     1       0.485   8.902  20.901  0.00  0.00    +0.000 A 
ENDROOT
BRANCH   5  12
ATOM     12  C   UNL     1       4.339   5.528  17.109  0.00  0.00    +0.000 A 
ATOM     13  C   UNL     1       4.543   4.181  16.867  0.00  0.00    +0.000 A 
ATOM     14  C   UNL     1       5.411   3.948  15.762  0.00  0.00    +0.000 A 
ATOM     15  C   UNL     1       5.852   5.122  15.195  0.00  0.00    +0.000 A 
ATOM     16  S   UNL     1       5.224   6.491  15.993  0.00  0.00    +0.000 S 
ENDBRANCH   5  12
BRANCH   1  18
ATOM     17  C   UNL     1      -0.740  10.932  18.462  0.00  0.00    +0.000 C 
ATOM     18  O   UNL     1       0.162  10.856  19.566  0.00  0.00    +0.000 OA
ENDBRANCH   1  18
BRANCH  11  19
ATOM     19  O   UNL     1      -0.369   9.489  21.798  0.00  0.00    +0.000 OA
ATOM     20  C   UNL     1       0.018   9.494  23.166  0.00  0.00    +0.000 C 
ENDBRANCH  11  19
TORSDOF 3
ENDMDL
MODEL 8
REMARK VINA RESULT:      -6.3      1.827      2.412
REMARK  Name = 
REMARK  5 active torsions:
REMARK  status: ('A' for Active; 'I' for Inactive)
REMARK    1  A    between atoms: C_1  and  O_2
REMARK    2  A    between atoms: O_2  and  C_3
REMARK    3  A    between atoms: C_7  and  C_8
REMARK    4  A    between atoms: C_18  and  O_19
REMARK    5  A    between atoms: O_19  and  C_20
REMARK                            x       y       z     vdW  Elec       q    Type
REMARK                         _______ _______ _______ _____ _____    ______ ____
ROOT
ATOM      1  C   UNL     1       2.877   3.800  20.423  0.00  0.00    +0.000 A 
ATOM      2  C   UNL     1       2.276   5.043  20.651  0.00  0.00    +0.000 A 
ATOM      3  C   UNL     1       2.495   6.105  19.782  0.00  0.00    +0.000 A 
ATOM      4  N   UNL     1       1.823   7.294  20.010  0.00  0.00    +0.000 NA
ATOM      5  C   UNL     1       1.988   8.246  19.154  0.00  0.00    +0.000 A 
ATOM      6  O   UNL     1       2.785   8.205  18.060  0.00  0.00    +0.000 OA
ATOM      7  C   UNL     1       3.498   7.083  17.796  0.00  0.00    +0.000 A 
ATOM      8  O   UNL     1       4.244   7.006  16.827  0.00  0.00    +0.000 OA
ATOM      9  C   UNL     1       3.336   5.937  18.702  0.00  0.00    +0.000 A 
ATOM     10  C   UNL     1       3.992   4.720  18.478  0.00  0.00    +0.000 A 
ATOM     11  C   UNL     1       3.771   3.640  19.344  0.00  0.00    +0.000 A 
ENDROOT
BRANCH   5  12
ATOM     12  C   UNL     1       1.293   9.511  19.267  0.00  0.00    +0.000 A 
ATOM     13  C   UNL     1       1.379  10.632  18.461  0.00  0.00    +0.000 A 
ATOM     14  C   UNL     1       0.506  11.677  18.880  0.00  0.00    +0.000 A 
ATOM     15  C   UNL     1      -0.217  11.328  19.998  0.00  0.00    +0.000 A 
ATOM     16  S   UNL     1       0.158   9.754  20.535  0.00  0.00    +0.000 S 
ENDBRANCH   5  12
BRANCH   1  18
ATOM     17  C   UNL     1       1.324   2.646  21.773  0.00  0.00    +0.000 C 
ATOM     18  O   UNL     1       2.644   2.717  21.236  0.00  0.00    +0.000 OA
ENDBRANCH   1  18
BRANCH  11  19
ATOM     19  O   UNL     1       4.353   2.407  19.208  0.00  0.00    +0.000 OA
ATOM     20  C   UNL     1       3.693   1.457  18.380  0.00  0.00    +0.000 C 
ENDBRANCH  11  19
TORSDOF 3
ENDMDL
MODEL 9
REMARK VINA RESULT:      -6.3      2.436      6.583
REMARK  Name = 
REMARK  5 active torsions:
REMARK  status: ('A' for Active; 'I' for Inactive)
REMARK    1  A    between atoms: C_1  and  O_2
REMARK    2  A    between atoms: O_2  and  C_3
REMARK    3  A    between atoms: C_7  and  C_8
REMARK    4  A    between atoms: C_18  and  O_19
REMARK    5  A    between atoms: O_19  and  C_20
REMARK                            x       y       z     vdW  Elec       q    Type
REMARK                         _______ _______ _______ _____ _____    ______ ____
ROOT
ATOM      1  C   UNL     1       0.416  10.540  21.664  0.00  0.00    +0.000 A 
ATOM      2  C   UNL     1       0.788   9.193  21.750  0.00  0.00    +0.000 A 
ATOM      3  C   UNL     1       1.305   8.531  20.644  0.00  0.00    +0.000 A 
ATOM      4  N   UNL     1       1.724   7.219  20.796  0.00  0.00    +0.000 NA
ATOM      5  C   UNL     1       2.263   6.644  19.774  0.00  0.00    +0.000 A 
ATOM      6  O   UNL     1       2.434   7.192  18.547  0.00  0.00    +0.000 OA
ATOM      7  C   UNL     1       2.014   8.460  18.320  0.00  0.00    +0.000 A 
ATOM      8  O   UNL     1       2.133   8.991  17.222  0.00  0.00    +0.000 OA
ATOM      9  C   UNL     1       1.425   9.201  19.444  0.00  0.00    +0.000 A 
ATOM     10  C   UNL     1       1.011  10.533  19.316  0.00  0.00    +0.000 A 
ATOM     11  C   UNL     1       0.497  11.213  20.428  0.00  0.00    +0.000 A 
ENDROOT
BRANCH   5  12
ATOM     12  C   UNL     1       2.784   5.294  19.838  0.00  0.00    +0.000 A 
ATOM     13  C   UNL     1       3.928   4.769  19.264  0.00  0.00    +0.000 A 
ATOM     14  C   UNL     1       4.121   3.394  19.585  0.00  0.00    +0.000 A 
ATOM     15  C   UNL     1       3.117   2.906  20.388  0.00  0.00    +0.000 A 
ATOM     16  S   UNL     1       1.952   4.097  20.749  0.00  0.00    +0.000 S 
ENDBRANCH   5  12
BRANCH   1  18
ATOM     17  C   UNL     1      -1.381  10.891  23.153  0.00  0.00    +0.000 C 
ATOM     18  O   UNL     1      -0.055  11.237  22.751  0.00  0.00    +0.000 OA
ENDBRANCH   1  18
BRANCH  11  19
ATOM     19  O   UNL     1       0.076  12.517  20.412  0.00  0.00    +0.000 OA
ATOM     20  C   UNL     1      -0.849  12.895  19.399  0.00  0.00    +0.000 C 
ENDBRANCH  11  19
TORSDOF 3
ENDMDL
