MODEL 1
REMARK VINA RESULT:      -8.8      0.000      0.000
REMARK  Name = 
REMARK  6 active torsions:
REMARK  status: ('A' for Active; 'I' for Inactive)
REMARK    1  A    between atoms: N_1  and  C_2
REMARK    2  A    between atoms: N_10  and  C_11
REMARK    3  A    between atoms: C_14  and  C_15
REMARK    4  A    between atoms: C_18  and  C_19
REMARK    5  A    between atoms: C_19  and  C_20
REMARK    6  A    between atoms: C_20  and  O_22
REMARK                            x       y       z     vdW  Elec       q    Type
REMARK                         _______ _______ _______ _____ _____    ______ ____
ROOT
ATOM      1  C   UNL     1       2.278   7.448  18.714  0.00  0.00    +0.000 A 
ATOM      2  C   UNL     1       1.989   7.358  20.086  0.00  0.00    +0.000 A 
ATOM      3  C   UNL     1       1.380   8.405  20.783  0.00  0.00    +0.000 A 
ATOM      4  C   UNL     1       1.018   9.577  20.121  0.00  0.00    +0.000 A 
ATOM      5  C   UNL     1       1.280   9.668  18.747  0.00  0.00    +0.000 A 
ATOM      6  C   UNL     1       1.904   8.621  18.055  0.00  0.00    +0.000 A 
ENDROOT
BRANCH   1  15
ATOM      7  C   UNL     1       2.410   3.327  19.762  0.00  0.00    +0.000 A 
ATOM      8  N   UNL     1       3.010   2.434  20.566  0.00  0.00    +0.000 NA
ATOM      9  C   UNL     1       4.333   2.285  20.411  0.00  0.00    +0.000 A 
ATOM     10  N   UNL     1       5.102   2.932  19.526  0.00  0.00    +0.000 NA
ATOM     11  C   UNL     1       4.466   3.832  18.755  0.00  0.00    +0.000 A 
ATOM     12  C   UNL     1       3.112   4.082  18.833  0.00  0.00    +0.000 A 
ATOM     13  C   UNL     1       2.420   5.109  18.038  0.00  0.00    +0.000 C 
ATOM     14  O   UNL     1       1.316   4.849  17.564  0.00  0.00    +0.000 OA
ATOM     15  N   UNL     1       2.984   6.385  18.065  0.00  0.00    +0.000 N 
ATOM     16  C   UNL     1       4.270   6.594  17.404  0.00  0.00    +0.000 C 
ATOM     17  C   UNL     1       5.399   5.824  18.085  0.00  0.00    +0.000 C 
ATOM     18  O   UNL     1       5.272   4.426  17.824  0.00  0.00    +0.000 OA
BRANCH   7  19
ATOM     19  N   UNL     1       1.054   3.531  20.024  0.00  0.00    +0.000 N 
ATOM     20  H   UNL     1       0.904   3.609  21.024  0.00  0.00    +0.000 HD
ATOM     21  H   UNL     1       0.470   2.827  19.569  0.00  0.00    +0.000 HD
ENDBRANCH   7  19
ENDBRANCH   1  15
BRANCH   4  22
ATOM     22  C   UNL     1       0.329  10.694  20.879  0.00  0.00    +0.000 C 
ATOM     23  C   UNL     1      -0.723  11.406  20.013  0.00  0.00    +0.000 C 
ATOM     24  C   UNL     1      -1.483  12.473  20.799  0.00  0.00    +0.000 C 
ATOM     25  C   UNL     1      -2.118  11.892  22.073  0.00  0.00    +0.000 C 
ATOM     26  C   UNL     1      -1.033  11.247  22.948  0.00  0.00    +0.000 C 
ATOM     27  C   UNL     1      -0.275  10.163  22.189  0.00  0.00    +0.000 C 
BRANCH  25  28
ATOM     28  C   UNL     1      -2.867  12.960  22.883  0.00  0.00    +0.000 C 
BRANCH  28  29
ATOM     29  C   UNL     1      -4.181  12.466  23.446  0.00  0.00    +0.000 C 
ATOM     30  O   UNL     1      -4.360  12.121  24.603  0.00  0.00    +0.000 OA
BRANCH  29  31
ATOM     31  O   UNL     1      -5.180  12.478  22.534  0.00  0.00    +0.000 OA
ATOM     32  H   UNL     1      -4.936  12.883  21.680  0.00  0.00    +0.000 HD
ENDBRANCH  29  31
ENDBRANCH  28  29
ENDBRANCH  25  28
ENDBRANCH   4  22
TORSDOF 6
ENDMDL
MODEL 2
REMARK VINA RESULT:      -8.8      2.168      3.574
REMARK  Name = 
REMARK  6 active torsions:
REMARK  status: ('A' for Active; 'I' for Inactive)
REMARK    1  A    between atoms: N_1  and  C_2
REMARK    2  A    between atoms: N_10  and  C_11
REMARK    3  A    between atoms: C_14  and  C_15
REMARK    4  A    between atoms: C_18  and  C_19
REMARK    5  A    between atoms: C_19  and  C_20
REMARK    6  A    between atoms: C_20  and  O_22
REMARK                            x       y       z     vdW  Elec       q    Type
REMARK                         _______ _______ _______ _____ _____    ______ ____
ROOT
ATOM      1  C   UNL     1       3.012   6.512  18.877  0.00  0.00    +0.000 A 
ATOM      2  C   UNL     1       2.955   7.481  17.861  0.00  0.00    +0.000 A 
ATOM      3  C   UNL     1       2.230   8.667  18.012  0.00  0.00    +0.000 A 
ATOM      4  C   UNL     1       1.552   8.932  19.200  0.00  0.00    +0.000 A 
ATOM      5  C   UNL     1       1.621   7.982  20.229  0.00  0.00    +0.000 A 
ATOM      6  C   UNL     1       2.337   6.789  20.068  0.00  0.00    +0.000 A 
ENDROOT
BRANCH   1  15
ATOM      7  C   UNL     1       6.741   5.868  16.933  0.00  0.00    +0.000 A 
ATOM      8  N   UNL     1       7.326   5.731  15.732  0.00  0.00    +0.000 NA
ATOM      9  C   UNL     1       6.927   4.689  14.989  0.00  0.00    +0.000 A 
ATOM     10  N   UNL     1       6.015   3.773  15.339  0.00  0.00    +0.000 NA
ATOM     11  C   UNL     1       5.439   3.959  16.540  0.00  0.00    +0.000 A 
ATOM     12  C   UNL     1       5.757   5.000  17.386  0.00  0.00    +0.000 A 
ATOM     13  C   UNL     1       5.088   5.247  18.672  0.00  0.00    +0.000 C 
ATOM     14  O   UNL     1       5.766   5.593  19.639  0.00  0.00    +0.000 OA
ATOM     15  N   UNL     1       3.693   5.274  18.641  0.00  0.00    +0.000 N 
ATOM     16  C   UNL     1       2.976   4.026  18.390  0.00  0.00    +0.000 C 
ATOM     17  C   UNL     1       3.232   3.487  16.985  0.00  0.00    +0.000 C 
ATOM     18  O   UNL     1       4.560   2.971  16.888  0.00  0.00    +0.000 OA
BRANCH   7  19
ATOM     19  N   UNL     1       7.105   7.020  17.631  0.00  0.00    +0.000 N 
ATOM     20  H   UNL     1       7.794   6.792  18.340  0.00  0.00    +0.000 HD
ATOM     21  H   UNL     1       6.289   7.521  17.989  0.00  0.00    +0.000 HD
ENDBRANCH   7  19
ENDBRANCH   1  15
BRANCH   4  22
ATOM     22  C   UNL     1       0.795  10.235  19.365  0.00  0.00    +0.000 C 
ATOM     23  C   UNL     1      -0.353  10.360  18.351  0.00  0.00    +0.000 C 
ATOM     24  C   UNL     1      -1.174  11.630  18.570  0.00  0.00    +0.000 C 
ATOM     25  C   UNL     1      -1.699  11.721  20.013  0.00  0.00    +0.000 C 
ATOM     26  C   UNL     1      -0.523  11.661  20.999  0.00  0.00    +0.000 C 
ATOM     27  C   UNL     1       0.299  10.390  20.812  0.00  0.00    +0.000 C 
BRANCH  25  28
ATOM     28  C   UNL     1      -2.508  13.004  20.252  0.00  0.00    +0.000 C 
BRANCH  28  29
ATOM     29  C   UNL     1      -4.002  12.767  20.279  0.00  0.00    +0.000 C 
ATOM     30  O   UNL     1      -4.671  12.639  21.293  0.00  0.00    +0.000 OA
BRANCH  29  31
ATOM     31  O   UNL     1      -4.553  12.748  19.044  0.00  0.00    +0.000 OA
ATOM     32  H   UNL     1      -4.706  11.852  18.688  0.00  0.00    +0.000 HD
ENDBRANCH  29  31
ENDBRANCH  28  29
ENDBRANCH  25  28
ENDBRANCH   4  22
TORSDOF 6
ENDMDL
MODEL 3
REMARK VINA RESULT:      -8.7      0.485      1.148
REMARK  Name = 
REMARK  6 active torsions:
REMARK  status: ('A' for Active; 'I' for Inactive)
REMARK    1  A    between atoms: N_1  and  C_2
REMARK    2  A    between atoms: N_10  and  C_11
REMARK    3  A    between atoms: C_14  and  C_15
REMARK    4  A    between atoms: C_18  and  C_19
REMARK    5  A    between atoms: C_19  and  C_20
REMARK    6  A    between atoms: C_20  and  O_22
REMARK                            x       y       z     vdW  Elec       q    Type
REMARK                         _______ _______ _______ _____ _____    ______ ____
ROOT
ATOM      1  C   UNL     1       2.364   7.417  18.659  0.00  0.00    +0.000 A 
ATOM      2  C   UNL     1       2.015   8.513  17.851  0.00  0.00    +0.000 A 
ATOM      3  C   UNL     1       1.317   9.612  18.358  0.00  0.00    +0.000 A 
ATOM      4  C   UNL     1       0.960   9.660  19.704  0.00  0.00    +0.000 A 
ATOM      5  C   UNL     1       1.322   8.583  20.525  0.00  0.00    +0.000 A 
ATOM      6  C   UNL     1       2.011   7.477  20.009  0.00  0.00    +0.000 A 
ENDROOT
BRANCH   1  15
ATOM      7  C   UNL     1       2.215   3.360  19.928  0.00  0.00    +0.000 A 
ATOM      8  N   UNL     1       2.750   2.473  20.784  0.00  0.00    +0.000 NA
ATOM      9  C   UNL     1       4.061   2.228  20.648  0.00  0.00    +0.000 A 
ATOM     10  N   UNL     1       4.875   2.773  19.736  0.00  0.00    +0.000 NA
ATOM     11  C   UNL     1       4.304   3.671  18.913  0.00  0.00    +0.000 A 
ATOM     12  C   UNL     1       2.970   4.014  18.965  0.00  0.00    +0.000 A 
ATOM     13  C   UNL     1       2.352   5.040  18.111  0.00  0.00    +0.000 C 
ATOM     14  O   UNL     1       1.235   4.829  17.642  0.00  0.00    +0.000 OA
ATOM     15  N   UNL     1       3.000   6.275  18.073  0.00  0.00    +0.000 N 
ATOM     16  C   UNL     1       4.300   6.362  17.412  0.00  0.00    +0.000 C 
ATOM     17  C   UNL     1       5.372   5.557  18.143  0.00  0.00    +0.000 C 
ATOM     18  O   UNL     1       5.153   4.158  17.957  0.00  0.00    +0.000 OA
BRANCH   7  19
ATOM     19  N   UNL     1       0.875   3.667  20.168  0.00  0.00    +0.000 N 
ATOM     20  H   UNL     1       0.413   3.900  19.295  0.00  0.00    +0.000 HD
ATOM     21  H   UNL     1       0.772   4.376  20.896  0.00  0.00    +0.000 HD
ENDBRANCH   7  19
ENDBRANCH   1  15
BRANCH   4  22
ATOM     22  C   UNL     1       0.230  10.871  20.252  0.00  0.00    +0.000 C 
ATOM     23  C   UNL     1      -1.080  11.138  19.493  0.00  0.00    +0.000 C 
ATOM     24  C   UNL     1      -1.863  12.303  20.097  0.00  0.00    +0.000 C 
ATOM     25  C   UNL     1      -2.127  12.089  21.597  0.00  0.00    +0.000 C 
ATOM     26  C   UNL     1      -0.795  11.892  22.336  0.00  0.00    +0.000 C 
ATOM     27  C   UNL     1      -0.005  10.720  21.763  0.00  0.00    +0.000 C 
BRANCH  25  28
ATOM     28  C   UNL     1      -2.895  13.264  22.220  0.00  0.00    +0.000 C 
BRANCH  28  29
ATOM     29  C   UNL     1      -4.017  12.821  23.132  0.00  0.00    +0.000 C 
ATOM     30  O   UNL     1      -5.053  12.291  22.760  0.00  0.00    +0.000 OA
BRANCH  29  31
ATOM     31  O   UNL     1      -3.746  13.035  24.440  0.00  0.00    +0.000 OA
ATOM     32  H   UNL     1      -4.271  12.485  25.052  0.00  0.00    +0.000 HD
ENDBRANCH  29  31
ENDBRANCH  28  29
ENDBRANCH  25  28
ENDBRANCH   4  22
TORSDOF 6
ENDMDL
MODEL 4
REMARK VINA RESULT:      -8.5      1.992      3.292
REMARK  Name = 
REMARK  6 active torsions:
REMARK  status: ('A' for Active; 'I' for Inactive)
REMARK    1  A    between atoms: N_1  and  C_2
REMARK    2  A    between atoms: N_10  and  C_11
REMARK    3  A    between atoms: C_14  and  C_15
REMARK    4  A    between atoms: C_18  and  C_19
REMARK    5  A    between atoms: C_19  and  C_20
REMARK    6  A    between atoms: C_20  and  O_22
REMARK                            x       y       z     vdW  Elec       q    Type
REMARK                         _______ _______ _______ _____ _____    ______ ____
ROOT
ATOM      1  C   UNL     1       2.876   6.487  18.865  0.00  0.00    +0.000 A 
ATOM      2  C   UNL     1       2.252   6.729  20.100  0.00  0.00    +0.000 A 
ATOM      3  C   UNL     1       1.611   7.938  20.380  0.00  0.00    +0.000 A 
ATOM      4  C   UNL     1       1.554   8.946  19.418  0.00  0.00    +0.000 A 
ATOM      5  C   UNL     1       2.154   8.707  18.173  0.00  0.00    +0.000 A 
ATOM      6  C   UNL     1       2.808   7.497  17.902  0.00  0.00    +0.000 A 
ENDROOT
BRANCH   1  15
ATOM      7  C   UNL     1       6.612   5.915  16.912  0.00  0.00    +0.000 A 
ATOM      8  N   UNL     1       7.193   5.764  15.711  0.00  0.00    +0.000 NA
ATOM      9  C   UNL     1       6.825   4.689  15.000  0.00  0.00    +0.000 A 
ATOM     10  N   UNL     1       5.947   3.753  15.382  0.00  0.00    +0.000 NA
ATOM     11  C   UNL     1       5.373   3.953  16.582  0.00  0.00    +0.000 A 
ATOM     12  C   UNL     1       5.661   5.028  17.396  0.00  0.00    +0.000 A 
ATOM     13  C   UNL     1       4.992   5.288  18.680  0.00  0.00    +0.000 C 
ATOM     14  O   UNL     1       5.664   5.684  19.631  0.00  0.00    +0.000 OA
ATOM     15  N   UNL     1       3.597   5.267  18.658  0.00  0.00    +0.000 N 
ATOM     16  C   UNL     1       2.921   3.989  18.447  0.00  0.00    +0.000 C 
ATOM     17  C   UNL     1       3.186   3.420  17.056  0.00  0.00    +0.000 C 
ATOM     18  O   UNL     1       4.530   2.946  16.964  0.00  0.00    +0.000 OA
BRANCH   7  19
ATOM     19  N   UNL     1       6.941   7.099  17.575  0.00  0.00    +0.000 N 
ATOM     20  H   UNL     1       7.536   6.895  18.371  0.00  0.00    +0.000 HD
ATOM     21  H   UNL     1       6.111   7.648  17.806  0.00  0.00    +0.000 HD
ENDBRANCH   7  19
ENDBRANCH   1  15
BRANCH   4  22
ATOM     22  C   UNL     1       0.829  10.242  19.720  0.00  0.00    +0.000 C 
ATOM     23  C   UNL     1      -0.463  10.377  18.898  0.00  0.00    +0.000 C 
ATOM     24  C   UNL     1      -1.244  11.638  19.263  0.00  0.00    +0.000 C 
ATOM     25  C   UNL     1      -1.539  11.704  20.771  0.00  0.00    +0.000 C 
ATOM     26  C   UNL     1      -0.224  11.634  21.561  0.00  0.00    +0.000 C 
ATOM     27  C   UNL     1       0.562  10.371  21.228  0.00  0.00    +0.000 C 
BRANCH  25  28
ATOM     28  C   UNL     1      -2.305  12.979  21.153  0.00  0.00    +0.000 C 
BRANCH  28  29
ATOM     29  C   UNL     1      -3.687  12.698  21.701  0.00  0.00    +0.000 C 
ATOM     30  O   UNL     1      -4.729  12.858  21.084  0.00  0.00    +0.000 OA
BRANCH  29  31
ATOM     31  O   UNL     1      -3.662  12.202  22.958  0.00  0.00    +0.000 OA
ATOM     32  H   UNL     1      -2.771  11.958  23.274  0.00  0.00    +0.000 HD
ENDBRANCH  29  31
ENDBRANCH  28  29
ENDBRANCH  25  28
ENDBRANCH   4  22
TORSDOF 6
ENDMDL
MODEL 5
REMARK VINA RESULT:      -8.4      2.456      3.793
REMARK  Name = 
REMARK  6 active torsions:
REMARK  status: ('A' for Active; 'I' for Inactive)
REMARK    1  A    between atoms: N_1  and  C_2
REMARK    2  A    between atoms: N_10  and  C_11
REMARK    3  A    between atoms: C_14  and  C_15
REMARK    4  A    between atoms: C_18  and  C_19
REMARK    5  A    between atoms: C_19  and  C_20
REMARK    6  A    between atoms: C_20  and  O_22
REMARK                            x       y       z     vdW  Elec       q    Type
REMARK                         _______ _______ _______ _____ _____    ______ ____
ROOT
ATOM      1  C   UNL     1       2.987   6.582  18.839  0.00  0.00    +0.000 A 
ATOM      2  C   UNL     1       2.967   7.539  17.811  0.00  0.00    +0.000 A 
ATOM      3  C   UNL     1       2.250   8.733  17.926  0.00  0.00    +0.000 A 
ATOM      4  C   UNL     1       1.540   9.019  19.091  0.00  0.00    +0.000 A 
ATOM      5  C   UNL     1       1.571   8.081  20.132  0.00  0.00    +0.000 A 
ATOM      6  C   UNL     1       2.281   6.879  20.007  0.00  0.00    +0.000 A 
ENDROOT
BRANCH   1  15
ATOM      7  C   UNL     1       6.711   5.870  16.910  0.00  0.00    +0.000 A 
ATOM      8  N   UNL     1       7.294   5.697  15.712  0.00  0.00    +0.000 NA
ATOM      9  C   UNL     1       6.890   4.635  14.999  0.00  0.00    +0.000 A 
ATOM     10  N   UNL     1       5.976   3.733  15.377  0.00  0.00    +0.000 NA
ATOM     11  C   UNL     1       5.402   3.955  16.573  0.00  0.00    +0.000 A 
ATOM     12  C   UNL     1       5.725   5.020  17.388  0.00  0.00    +0.000 A 
ATOM     13  C   UNL     1       5.058   5.305  18.668  0.00  0.00    +0.000 C 
ATOM     14  O   UNL     1       5.739   5.677  19.623  0.00  0.00    +0.000 OA
ATOM     15  N   UNL     1       3.664   5.336  18.638  0.00  0.00    +0.000 N 
ATOM     16  C   UNL     1       2.942   4.083  18.423  0.00  0.00    +0.000 C 
ATOM     17  C   UNL     1       3.195   3.504  17.034  0.00  0.00    +0.000 C 
ATOM     18  O   UNL     1       4.520   2.980  16.950  0.00  0.00    +0.000 OA
BRANCH   7  19
ATOM     19  N   UNL     1       7.080   7.041  17.574  0.00  0.00    +0.000 N 
ATOM     20  H   UNL     1       6.413   7.244  18.311  0.00  0.00    +0.000 HD
ATOM     21  H   UNL     1       7.230   7.815  16.924  0.00  0.00    +0.000 HD
ENDBRANCH   7  19
ENDBRANCH   1  15
BRANCH   4  22
ATOM     22  C   UNL     1       0.790  10.330  19.218  0.00  0.00    +0.000 C 
ATOM     23  C   UNL     1      -0.563  10.286  18.490  0.00  0.00    +0.000 C 
ATOM     24  C   UNL     1      -1.362  11.573  18.690  0.00  0.00    +0.000 C 
ATOM     25  C   UNL     1      -1.547  11.897  20.182  0.00  0.00    +0.000 C 
ATOM     26  C   UNL     1      -0.176  12.000  20.866  0.00  0.00    +0.000 C 
ATOM     27  C   UNL     1       0.631  10.717  20.697  0.00  0.00    +0.000 C 
BRANCH  25  28
ATOM     28  C   UNL     1      -2.330  13.201  20.396  0.00  0.00    +0.000 C 
BRANCH  28  29
ATOM     29  C   UNL     1      -1.442  14.424  20.443  0.00  0.00    +0.000 C 
ATOM     30  O   UNL     1      -1.051  14.966  21.465  0.00  0.00    +0.000 OA
BRANCH  29  31
ATOM     31  O   UNL     1      -1.076  14.854  19.214  0.00  0.00    +0.000 OA
ATOM     32  H   UNL     1      -1.810  14.902  18.572  0.00  0.00    +0.000 HD
ENDBRANCH  29  31
ENDBRANCH  28  29
ENDBRANCH  25  28
ENDBRANCH   4  22
TORSDOF 6
ENDMDL
MODEL 6
REMARK VINA RESULT:      -8.3      3.640      9.878
REMARK  Name = 
REMARK  6 active torsions:
REMARK  status: ('A' for Active; 'I' for Inactive)
REMARK    1  A    between atoms: N_1  and  C_2
REMARK    2  A    between atoms: N_10  and  C_11
REMARK    3  A    between atoms: C_14  and  C_15
REMARK    4  A    between atoms: C_18  and  C_19
REMARK    5  A    between atoms: C_19  and  C_20
REMARK    6  A    between atoms: C_20  and  O_22
REMARK                            x       y       z     vdW  Elec       q    Type
REMARK                         _______ _______ _______ _____ _____    ______ ____
ROOT
ATOM      1  C   UNL     1       1.067   8.496  20.042  0.00  0.00    +0.000 A 
ATOM      2  C   UNL     1       1.498   7.294  20.627  0.00  0.00    +0.000 A 
ATOM      3  C   UNL     1       2.447   6.473  20.012  0.00  0.00    +0.000 A 
ATOM      4  C   UNL     1       3.015   6.841  18.794  0.00  0.00    +0.000 A 
ATOM      5  C   UNL     1       2.610   8.051  18.213  0.00  0.00    +0.000 A 
ATOM      6  C   UNL     1       1.647   8.864  18.827  0.00  0.00    +0.000 A 
ENDROOT
BRANCH   1  15
ATOM      7  C   UNL     1       0.273  12.663  19.716  0.00  0.00    +0.000 A 
ATOM      8  N   UNL     1       0.622  13.871  20.188  0.00  0.00    +0.000 NA
ATOM      9  C   UNL     1       0.416  14.085  21.495  0.00  0.00    +0.000 A 
ATOM     10  N   UNL     1      -0.114  13.214  22.363  0.00  0.00    +0.000 NA
ATOM     11  C   UNL     1      -0.430  12.009  21.855  0.00  0.00    +0.000 A 
ATOM     12  C   UNL     1      -0.251  11.669  20.530  0.00  0.00    +0.000 A 
ATOM     13  C   UNL     1      -0.536  10.335  19.981  0.00  0.00    +0.000 C 
ATOM     14  O   UNL     1      -1.073  10.249  18.878  0.00  0.00    +0.000 OA
ATOM     15  N   UNL     1       0.027   9.258  20.667  0.00  0.00    +0.000 N 
ATOM     16  C   UNL     1      -0.487   8.932  21.996  0.00  0.00    +0.000 C 
ATOM     17  C   UNL     1      -0.198  10.035  23.010  0.00  0.00    +0.000 C 
ATOM     18  O   UNL     1      -1.025  11.170  22.756  0.00  0.00    +0.000 OA
BRANCH   7  19
ATOM     19  N   UNL     1       0.599  12.442  18.377  0.00  0.00    +0.000 N 
ATOM     20  H   UNL     1       1.045  11.536  18.276  0.00  0.00    +0.000 HD
ATOM     21  H   UNL     1       1.137  13.217  17.985  0.00  0.00    +0.000 HD
ENDBRANCH   7  19
ENDBRANCH   1  15
BRANCH   4  22
ATOM     22  C   UNL     1       4.068   5.959  18.152  0.00  0.00    +0.000 C 
ATOM     23  C   UNL     1       3.456   4.674  17.571  0.00  0.00    +0.000 C 
ATOM     24  C   UNL     1       4.497   3.824  16.843  0.00  0.00    +0.000 C 
ATOM     25  C   UNL     1       5.226   4.631  15.755  0.00  0.00    +0.000 C 
ATOM     26  C   UNL     1       5.881   5.872  16.379  0.00  0.00    +0.000 C 
ATOM     27  C   UNL     1       4.856   6.746  17.093  0.00  0.00    +0.000 C 
BRANCH  25  28
ATOM     28  C   UNL     1       6.290   3.793  15.032  0.00  0.00    +0.000 C 
BRANCH  28  29
ATOM     29  C   UNL     1       6.629   4.324  13.657  0.00  0.00    +0.000 C 
ATOM     30  O   UNL     1       7.408   5.238  13.433  0.00  0.00    +0.000 OA
BRANCH  29  31
ATOM     31  O   UNL     1       6.005   3.650  12.665  0.00  0.00    +0.000 OA
ATOM     32  H   UNL     1       5.189   3.192  12.945  0.00  0.00    +0.000 HD
ENDBRANCH  29  31
ENDBRANCH  28  29
ENDBRANCH  25  28
ENDBRANCH   4  22
TORSDOF 6
ENDMDL
MODEL 7
REMARK VINA RESULT:      -8.2      1.096      1.178
REMARK  Name = 
REMARK  6 active torsions:
REMARK  status: ('A' for Active; 'I' for Inactive)
REMARK    1  A    between atoms: N_1  and  C_2
REMARK    2  A    between atoms: N_10  and  C_11
REMARK    3  A    between atoms: C_14  and  C_15
REMARK    4  A    between atoms: C_18  and  C_19
REMARK    5  A    between atoms: C_19  and  C_20
REMARK    6  A    between atoms: C_20  and  O_22
REMARK                            x       y       z     vdW  Elec       q    Type
REMARK                         _______ _______ _______ _____ _____    ______ ____
ROOT
ATOM      1  C   UNL     1       2.238   7.419  18.829  0.00  0.00    +0.000 A 
ATOM      2  C   UNL     1       1.924   7.306  20.194  0.00  0.00    +0.000 A 
ATOM      3  C   UNL     1       1.331   8.352  20.904  0.00  0.00    +0.000 A 
ATOM      4  C   UNL     1       1.011   9.548  20.263  0.00  0.00    +0.000 A 
ATOM      5  C   UNL     1       1.299   9.663  18.896  0.00  0.00    +0.000 A 
ATOM      6  C   UNL     1       1.906   8.616  18.191  0.00  0.00    +0.000 A 
ENDROOT
BRANCH   1  15
ATOM      7  C   UNL     1       2.302   3.284  19.828  0.00  0.00    +0.000 A 
ATOM      8  N   UNL     1       2.886   2.371  20.621  0.00  0.00    +0.000 NA
ATOM      9  C   UNL     1       4.207   2.202  20.465  0.00  0.00    +0.000 A 
ATOM     10  N   UNL     1       4.987   2.847  19.588  0.00  0.00    +0.000 NA
ATOM     11  C   UNL     1       4.366   3.767  18.828  0.00  0.00    +0.000 A 
ATOM     12  C   UNL     1       3.016   4.038  18.908  0.00  0.00    +0.000 A 
ATOM     13  C   UNL     1       2.342   5.085  18.125  0.00  0.00    +0.000 C 
ATOM     14  O   UNL     1       1.234   4.849  17.647  0.00  0.00    +0.000 OA
ATOM     15  N   UNL     1       2.927   6.351  18.167  0.00  0.00    +0.000 N 
ATOM     16  C   UNL     1       4.217   6.547  17.509  0.00  0.00    +0.000 C 
ATOM     17  C   UNL     1       5.332   5.751  18.181  0.00  0.00    +0.000 C 
ATOM     18  O   UNL     1       5.182   4.358  17.904  0.00  0.00    +0.000 OA
BRANCH   7  19
ATOM     19  N   UNL     1       0.950   3.506  20.092  0.00  0.00    +0.000 N 
ATOM     20  H   UNL     1       0.565   4.149  19.407  0.00  0.00    +0.000 HD
ATOM     21  H   UNL     1       0.794   3.788  21.061  0.00  0.00    +0.000 HD
ENDBRANCH   7  19
ENDBRANCH   1  15
BRANCH   4  22
ATOM     22  C   UNL     1       0.339  10.666  21.035  0.00  0.00    +0.000 C 
ATOM     23  C   UNL     1      -0.640  11.458  20.154  0.00  0.00    +0.000 C 
ATOM     24  C   UNL     1      -1.387  12.529  20.949  0.00  0.00    +0.000 C 
ATOM     25  C   UNL     1      -2.104  11.929  22.170  0.00  0.00    +0.000 C 
ATOM     26  C   UNL     1      -1.088  11.202  23.064  0.00  0.00    +0.000 C 
ATOM     27  C   UNL     1      -0.346  10.113  22.296  0.00  0.00    +0.000 C 
BRANCH  25  28
ATOM     28  C   UNL     1      -2.840  12.999  22.989  0.00  0.00    +0.000 C 
BRANCH  28  29
ATOM     29  C   UNL     1      -1.996  14.226  23.255  0.00  0.00    +0.000 C 
ATOM     30  O   UNL     1      -1.003  14.251  23.967  0.00  0.00    +0.000 OA
BRANCH  29  31
ATOM     31  O   UNL     1      -2.428  15.316  22.582  0.00  0.00    +0.000 OA
ATOM     32  H   UNL     1      -1.988  16.148  22.843  0.00  0.00    +0.000 HD
ENDBRANCH  29  31
ENDBRANCH  28  29
ENDBRANCH  25  28
ENDBRANCH   4  22
TORSDOF 6
ENDMDL
MODEL 8
REMARK VINA RESULT:      -8.2      2.541      2.987
REMARK  Name = 
REMARK  6 active torsions:
REMARK  status: ('A' for Active; 'I' for Inactive)
REMARK    1  A    between atoms: N_1  and  C_2
REMARK    2  A    between atoms: N_10  and  C_11
REMARK    3  A    between atoms: C_14  and  C_15
REMARK    4  A    between atoms: C_18  and  C_19
REMARK    5  A    between atoms: C_19  and  C_20
REMARK    6  A    between atoms: C_20  and  O_22
REMARK                            x       y       z     vdW  Elec       q    Type
REMARK                         _______ _______ _______ _____ _____    ______ ____
ROOT
ATOM      1  C   UNL     1       2.438   7.330  18.603  0.00  0.00    +0.000 A 
ATOM      2  C   UNL     1       2.149   8.395  17.733  0.00  0.00    +0.000 A 
ATOM      3  C   UNL     1       1.443   9.524  18.157  0.00  0.00    +0.000 A 
ATOM      4  C   UNL     1       1.018   9.634  19.480  0.00  0.00    +0.000 A 
ATOM      5  C   UNL     1       1.321   8.587  20.362  0.00  0.00    +0.000 A 
ATOM      6  C   UNL     1       2.017   7.451  19.929  0.00  0.00    +0.000 A 
ENDROOT
BRANCH   1  15
ATOM      7  C   UNL     1       2.115   3.323  19.994  0.00  0.00    +0.000 A 
ATOM      8  N   UNL     1       2.574   2.456  20.912  0.00  0.00    +0.000 NA
ATOM      9  C   UNL     1       3.885   2.180  20.872  0.00  0.00    +0.000 A 
ATOM     10  N   UNL     1       4.769   2.676  19.998  0.00  0.00    +0.000 NA
ATOM     11  C   UNL     1       4.273   3.556  19.109  0.00  0.00    +0.000 A 
ATOM     12  C   UNL     1       2.946   3.928  19.062  0.00  0.00    +0.000 A 
ATOM     13  C   UNL     1       2.409   4.935  18.135  0.00  0.00    +0.000 C 
ATOM     14  O   UNL     1       1.319   4.731  17.601  0.00  0.00    +0.000 OA
ATOM     15  N   UNL     1       3.085   6.155  18.098  0.00  0.00    +0.000 N 
ATOM     16  C   UNL     1       4.427   6.193  17.522  0.00  0.00    +0.000 C 
ATOM     17  C   UNL     1       5.430   5.392  18.348  0.00  0.00    +0.000 C 
ATOM     18  O   UNL     1       5.192   3.992  18.195  0.00  0.00    +0.000 OA
BRANCH   7  19
ATOM     19  N   UNL     1       0.770   3.665  20.135  0.00  0.00    +0.000 N 
ATOM     20  H   UNL     1       0.637   4.644  19.905  0.00  0.00    +0.000 HD
ATOM     21  H   UNL     1       0.404   3.399  21.051  0.00  0.00    +0.000 HD
ENDBRANCH   7  19
ENDBRANCH   1  15
BRANCH   4  22
ATOM     22  C   UNL     1       0.281  10.877  19.938  0.00  0.00    +0.000 C 
ATOM     23  C   UNL     1       1.252  11.983  20.383  0.00  0.00    +0.000 C 
ATOM     24  C   UNL     1       0.518  13.269  20.761  0.00  0.00    +0.000 C 
ATOM     25  C   UNL     1      -0.392  13.757  19.620  0.00  0.00    +0.000 C 
ATOM     26  C   UNL     1      -1.392  12.653  19.246  0.00  0.00    +0.000 C 
ATOM     27  C   UNL     1      -0.681  11.366  18.844  0.00  0.00    +0.000 C 
BRANCH  25  28
ATOM     28  C   UNL     1      -1.152  15.037  19.997  0.00  0.00    +0.000 C 
BRANCH  28  29
ATOM     29  C   UNL     1      -0.671  16.256  19.241  0.00  0.00    +0.000 C 
ATOM     30  O   UNL     1       0.497  16.504  18.985  0.00  0.00    +0.000 OA
BRANCH  29  31
ATOM     31  O   UNL     1      -1.684  17.050  18.827  0.00  0.00    +0.000 OA
ATOM     32  H   UNL     1      -1.394  17.895  18.432  0.00  0.00    +0.000 HD
ENDBRANCH  29  31
ENDBRANCH  28  29
ENDBRANCH  25  28
ENDBRANCH   4  22
TORSDOF 6
ENDMDL
MODEL 9
REMARK VINA RESULT:      -8.2      2.779      4.158
REMARK  Name = 
REMARK  6 active torsions:
REMARK  status: ('A' for Active; 'I' for Inactive)
REMARK    1  A    between atoms: N_1  and  C_2
REMARK    2  A    between atoms: N_10  and  C_11
REMARK    3  A    between atoms: C_14  and  C_15
REMARK    4  A    between atoms: C_18  and  C_19
REMARK    5  A    between atoms: C_19  and  C_20
REMARK    6  A    between atoms: C_20  and  O_22
REMARK                            x       y       z     vdW  Elec       q    Type
REMARK                         _______ _______ _______ _____ _____    ______ ____
ROOT
ATOM      1  C   UNL     1       3.031   6.439  18.921  0.00  0.00    +0.000 A 
ATOM      2  C   UNL     1       2.966   7.430  17.927  0.00  0.00    +0.000 A 
ATOM      3  C   UNL     1       2.237   8.609  18.105  0.00  0.00    +0.000 A 
ATOM      4  C   UNL     1       1.560   8.845  19.301  0.00  0.00    +0.000 A 
ATOM      5  C   UNL     1       1.636   7.873  20.308  0.00  0.00    +0.000 A 
ATOM      6  C   UNL     1       2.358   6.687  20.119  0.00  0.00    +0.000 A 
ENDROOT
BRANCH   1  15
ATOM      7  C   UNL     1       6.734   5.852  16.911  0.00  0.00    +0.000 A 
ATOM      8  N   UNL     1       7.301   5.736  15.699  0.00  0.00    +0.000 NA
ATOM      9  C   UNL     1       6.898   4.703  14.947  0.00  0.00    +0.000 A 
ATOM     10  N   UNL     1       5.998   3.775  15.297  0.00  0.00    +0.000 NA
ATOM     11  C   UNL     1       5.439   3.939  16.509  0.00  0.00    +0.000 A 
ATOM     12  C   UNL     1       5.763   4.970  17.366  0.00  0.00    +0.000 A 
ATOM     13  C   UNL     1       5.112   5.192  18.666  0.00  0.00    +0.000 C 
ATOM     14  O   UNL     1       5.802   5.530  19.627  0.00  0.00    +0.000 OA
ATOM     15  N   UNL     1       3.717   5.210  18.656  0.00  0.00    +0.000 N 
ATOM     16  C   UNL     1       3.004   3.961  18.397  0.00  0.00    +0.000 C 
ATOM     17  C   UNL     1       3.243   3.445  16.981  0.00  0.00    +0.000 C 
ATOM     18  O   UNL     1       4.572   2.939  16.856  0.00  0.00    +0.000 OA
BRANCH   7  19
ATOM     19  N   UNL     1       7.100   6.996  17.621  0.00  0.00    +0.000 N 
ATOM     20  H   UNL     1       8.071   7.222  17.433  0.00  0.00    +0.000 HD
ATOM     21  H   UNL     1       6.875   6.916  18.614  0.00  0.00    +0.000 HD
ENDBRANCH   7  19
ENDBRANCH   1  15
BRANCH   4  22
ATOM     22  C   UNL     1       0.798  10.141  19.497  0.00  0.00    +0.000 C 
ATOM     23  C   UNL     1       0.589  10.460  20.986  0.00  0.00    +0.000 C 
ATOM     24  C   UNL     1      -0.100  11.808  21.191  0.00  0.00    +0.000 C 
ATOM     25  C   UNL     1       0.660  12.944  20.484  0.00  0.00    +0.000 C 
ATOM     26  C   UNL     1       0.793  12.627  18.987  0.00  0.00    +0.000 C 
ATOM     27  C   UNL     1       1.497  11.294  18.758  0.00  0.00    +0.000 C 
BRANCH  25  28
ATOM     28  C   UNL     1      -0.036  14.301  20.665  0.00  0.00    +0.000 C 
BRANCH  28  29
ATOM     29  C   UNL     1       0.490  15.084  21.848  0.00  0.00    +0.000 C 
ATOM     30  O   UNL     1      -0.098  16.004  22.394  0.00  0.00    +0.000 OA
BRANCH  29  31
ATOM     31  O   UNL     1       1.688  14.633  22.284  0.00  0.00    +0.000 OA
ATOM     32  H   UNL     1       2.186  14.116  21.622  0.00  0.00    +0.000 HD
ENDBRANCH  29  31
ENDBRANCH  28  29
ENDBRANCH  25  28
ENDBRANCH   4  22
TORSDOF 6
ENDMDL
