MODEL 1
REMARK VINA RESULT:      -8.9      0.000      0.000
REMARK  Name = 
REMARK  12 active torsions:
REMARK  status: ('A' for Active; 'I' for Inactive)
REMARK    1  A    between atoms: C_1  and  C_2
REMARK    2  A    between atoms: C_5  and  C_6
REMARK    3  A    between atoms: C_7  and  C_8
REMARK    4  A    between atoms: C_10  and  O_11
REMARK    5  A    between atoms: O_11  and  C_12
REMARK    6  A    between atoms: C_12  and  C_13
REMARK    7  A    between atoms: C_13  and  C_14
REMARK    8  A    between atoms: C_14  and  C_15
REMARK    9  A    between atoms: C_15  and  C_16
REMARK   10  A    between atoms: N_18  and  O_19
REMARK   11  A    between atoms: C_21  and  C_22
REMARK   12  A    between atoms: C_22  and  C_24
REMARK                            x       y       z     vdW  Elec       q    Type
REMARK                         _______ _______ _______ _____ _____    ______ ____
ROOT
ATOM      1  C   UNL     1       4.387   5.428  17.377  0.00  0.00    +0.000 A 
ATOM      2  C   UNL     1       3.410   4.431  17.408  0.00  0.00    +0.000 A 
ATOM      3  C   UNL     1       2.067   4.739  17.610  0.00  0.00    +0.000 A 
ATOM      4  C   UNL     1       1.689   6.047  17.888  0.00  0.00    +0.000 A 
ATOM      5  C   UNL     1       2.651   7.062  17.878  0.00  0.00    +0.000 A 
ATOM      6  C   UNL     1       3.991   6.750  17.605  0.00  0.00    +0.000 A 
ENDROOT
BRANCH   1  13
ATOM      7  C   UNL     1       5.836   4.560  14.524  0.00  0.00    +0.000 C 
ATOM      8  C   UNL     1       6.417   4.720  15.879  0.00  0.00    +0.000 A 
ATOM      9  N   UNL     1       7.726   4.517  16.067  0.00  0.00    +0.000 NA
ATOM     10  O   UNL     1       7.961   4.782  17.400  0.00  0.00    +0.000 OA
ATOM     11  C   UNL     1       6.802   5.143  18.010  0.00  0.00    +0.000 A 
ATOM     12  C   UNL     1       6.906   5.453  19.453  0.00  0.00    +0.000 C 
ATOM     13  C   UNL     1       5.774   5.118  17.087  0.00  0.00    +0.000 A 
ENDBRANCH   1  13
BRANCH   5  14
ATOM     14  C   UNL     1       2.199   8.456  18.123  0.00  0.00    +0.000 C 
ATOM     15  O   UNL     1       2.471   9.330  17.296  0.00  0.00    +0.000 OA
BRANCH  14  16
ATOM     16  C   UNL     1       1.430   8.800  19.333  0.00  0.00    +0.000 A 
ATOM     17  C   UNL     1       1.669   8.115  20.531  0.00  0.00    +0.000 A 
ATOM     18  C   UNL     1       0.984   8.460  21.693  0.00  0.00    +0.000 A 
ATOM     19  C   UNL     1       0.044   9.486  21.658  0.00  0.00    +0.000 A 
ATOM     20  C   UNL     1      -0.233  10.155  20.459  0.00  0.00    +0.000 A 
ATOM     21  C   UNL     1       0.451   9.804  19.291  0.00  0.00    +0.000 A 
ENDBRANCH  14  16
ENDBRANCH   5  14
BRANCH   3  22
ATOM     22  O   UNL     1       1.201   3.688  17.506  0.00  0.00    +0.000 OA
BRANCH  22  23
ATOM     23  C   UNL     1       1.318   2.707  18.541  0.00  0.00    +0.000 C 
BRANCH  23  24
ATOM     24  C   UNL     1       0.400   3.092  19.698  0.00  0.00    +0.000 C 
BRANCH  24  25
ATOM     25  C   UNL     1       1.198   3.338  20.977  0.00  0.00    +0.000 C 
BRANCH  25  26
ATOM     26  C   UNL     1       2.654   3.688  20.691  0.00  0.00    +0.000 C 
BRANCH  26  27
ATOM     27  C   UNL     1       3.575   2.538  21.045  0.00  0.00    +0.000 C 
ATOM     28  O   UNL     1       3.473   1.846  22.055  0.00  0.00    +0.000 OA
ATOM     29  N   UNL     1       4.561   2.319  20.118  0.00  0.00    +0.000 N 
ATOM     30  H   UNL     1       4.719   2.862  19.278  0.00  0.00    +0.000 HD
BRANCH  29  31
ATOM     31  O   UNL     1       5.457   1.263  20.393  0.00  0.00    +0.000 OA
ATOM     32  H   UNL     1       6.292   1.587  19.988  0.00  0.00    +0.000 HD
ENDBRANCH  29  31
ENDBRANCH  26  27
ENDBRANCH  25  26
ENDBRANCH  24  25
ENDBRANCH  23  24
ENDBRANCH  22  23
ENDBRANCH   3  22
TORSDOF 10
ENDMDL
MODEL 2
REMARK VINA RESULT:      -8.9      0.600      1.106
REMARK  Name = 
REMARK  12 active torsions:
REMARK  status: ('A' for Active; 'I' for Inactive)
REMARK    1  A    between atoms: C_1  and  C_2
REMARK    2  A    between atoms: C_5  and  C_6
REMARK    3  A    between atoms: C_7  and  C_8
REMARK    4  A    between atoms: C_10  and  O_11
REMARK    5  A    between atoms: O_11  and  C_12
REMARK    6  A    between atoms: C_12  and  C_13
REMARK    7  A    between atoms: C_13  and  C_14
REMARK    8  A    between atoms: C_14  and  C_15
REMARK    9  A    between atoms: C_15  and  C_16
REMARK   10  A    between atoms: N_18  and  O_19
REMARK   11  A    between atoms: C_21  and  C_22
REMARK   12  A    between atoms: C_22  and  C_24
REMARK                            x       y       z     vdW  Elec       q    Type
REMARK                         _______ _______ _______ _____ _____    ______ ____
ROOT
ATOM      1  C   UNL     1       4.279   5.368  17.414  0.00  0.00    +0.000 A 
ATOM      2  C   UNL     1       3.296   4.378  17.469  0.00  0.00    +0.000 A 
ATOM      3  C   UNL     1       1.958   4.698  17.688  0.00  0.00    +0.000 A 
ATOM      4  C   UNL     1       1.593   6.011  17.956  0.00  0.00    +0.000 A 
ATOM      5  C   UNL     1       2.562   7.019  17.922  0.00  0.00    +0.000 A 
ATOM      6  C   UNL     1       3.895   6.695  17.633  0.00  0.00    +0.000 A 
ENDROOT
BRANCH   1  13
ATOM      7  C   UNL     1       5.677   4.440  14.553  0.00  0.00    +0.000 C 
ATOM      8  C   UNL     1       6.280   4.622  15.895  0.00  0.00    +0.000 A 
ATOM      9  N   UNL     1       7.592   4.415  16.065  0.00  0.00    +0.000 NA
ATOM     10  O   UNL     1       7.850   4.705  17.389  0.00  0.00    +0.000 OA
ATOM     11  C   UNL     1       6.703   5.083  18.011  0.00  0.00    +0.000 A 
ATOM     12  C   UNL     1       6.832   5.419  19.446  0.00  0.00    +0.000 C 
ATOM     13  C   UNL     1       5.659   5.046  17.106  0.00  0.00    +0.000 A 
ENDBRANCH   1  13
BRANCH   5  14
ATOM     14  C   UNL     1       2.122   8.419  18.158  0.00  0.00    +0.000 C 
ATOM     15  O   UNL     1       2.269   9.254  17.262  0.00  0.00    +0.000 OA
BRANCH  14  16
ATOM     16  C   UNL     1       1.512   8.814  19.440  0.00  0.00    +0.000 A 
ATOM     17  C   UNL     1       0.796  10.015  19.532  0.00  0.00    +0.000 A 
ATOM     18  C   UNL     1       0.174  10.380  20.722  0.00  0.00    +0.000 A 
ATOM     19  C   UNL     1       0.277   9.549  21.834  0.00  0.00    +0.000 A 
ATOM     20  C   UNL     1       1.020   8.363  21.768  0.00  0.00    +0.000 A 
ATOM     21  C   UNL     1       1.649   8.001  20.574  0.00  0.00    +0.000 A 
ENDBRANCH  14  16
ENDBRANCH   5  14
BRANCH   3  22
ATOM     22  O   UNL     1       1.084   3.652  17.608  0.00  0.00    +0.000 OA
BRANCH  22  23
ATOM     23  C   UNL     1       1.139   2.736  18.707  0.00  0.00    +0.000 C 
BRANCH  23  24
ATOM     24  C   UNL     1       1.080   3.522  20.014  0.00  0.00    +0.000 C 
BRANCH  24  25
ATOM     25  C   UNL     1       2.083   2.979  21.030  0.00  0.00    +0.000 C 
BRANCH  25  26
ATOM     26  C   UNL     1       3.521   3.325  20.664  0.00  0.00    +0.000 C 
BRANCH  26  27
ATOM     27  C   UNL     1       4.340   2.075  20.412  0.00  0.00    +0.000 C 
ATOM     28  O   UNL     1       5.165   1.610  21.194  0.00  0.00    +0.000 OA
ATOM     29  N   UNL     1       4.077   1.479  19.205  0.00  0.00    +0.000 N 
ATOM     30  H   UNL     1       3.430   1.817  18.504  0.00  0.00    +0.000 HD
BRANCH  29  31
ATOM     31  O   UNL     1       4.812   0.311  18.909  0.00  0.00    +0.000 OA
ATOM     32  H   UNL     1       4.794   0.297  17.926  0.00  0.00    +0.000 HD
ENDBRANCH  29  31
ENDBRANCH  26  27
ENDBRANCH  25  26
ENDBRANCH  24  25
ENDBRANCH  23  24
ENDBRANCH  22  23
ENDBRANCH   3  22
TORSDOF 10
ENDMDL
MODEL 3
REMARK VINA RESULT:      -8.6      0.428      1.739
REMARK  Name = 
REMARK  12 active torsions:
REMARK  status: ('A' for Active; 'I' for Inactive)
REMARK    1  A    between atoms: C_1  and  C_2
REMARK    2  A    between atoms: C_5  and  C_6
REMARK    3  A    between atoms: C_7  and  C_8
REMARK    4  A    between atoms: C_10  and  O_11
REMARK    5  A    between atoms: O_11  and  C_12
REMARK    6  A    between atoms: C_12  and  C_13
REMARK    7  A    between atoms: C_13  and  C_14
REMARK    8  A    between atoms: C_14  and  C_15
REMARK    9  A    between atoms: C_15  and  C_16
REMARK   10  A    between atoms: N_18  and  O_19
REMARK   11  A    between atoms: C_21  and  C_22
REMARK   12  A    between atoms: C_22  and  C_24
REMARK                            x       y       z     vdW  Elec       q    Type
REMARK                         _______ _______ _______ _____ _____    ______ ____
ROOT
ATOM      1  C   UNL     1       4.359   5.430  17.310  0.00  0.00    +0.000 A 
ATOM      2  C   UNL     1       3.379   4.439  17.402  0.00  0.00    +0.000 A 
ATOM      3  C   UNL     1       2.047   4.759  17.653  0.00  0.00    +0.000 A 
ATOM      4  C   UNL     1       1.686   6.074  17.917  0.00  0.00    +0.000 A 
ATOM      5  C   UNL     1       2.653   7.084  17.845  0.00  0.00    +0.000 A 
ATOM      6  C   UNL     1       3.978   6.759  17.525  0.00  0.00    +0.000 A 
ENDROOT
BRANCH   1  13
ATOM      7  C   UNL     1       7.098   5.478  19.179  0.00  0.00    +0.000 C 
ATOM      8  C   UNL     1       6.926   5.141  17.745  0.00  0.00    +0.000 A 
ATOM      9  N   UNL     1       7.990   4.774  17.019  0.00  0.00    +0.000 NA
ATOM     10  O   UNL     1       7.505   4.488  15.760  0.00  0.00    +0.000 OA
ATOM     11  C   UNL     1       6.161   4.682  15.727  0.00  0.00    +0.000 A 
ATOM     12  C   UNL     1       5.506   4.417  14.427  0.00  0.00    +0.000 C 
ATOM     13  C   UNL     1       5.731   5.106  16.970  0.00  0.00    +0.000 A 
ENDBRANCH   1  13
BRANCH   5  14
ATOM     14  C   UNL     1       2.217   8.485  18.078  0.00  0.00    +0.000 C 
ATOM     15  O   UNL     1       2.495   9.347  17.240  0.00  0.00    +0.000 OA
BRANCH  14  16
ATOM     16  C   UNL     1       1.458   8.851  19.287  0.00  0.00    +0.000 A 
ATOM     17  C   UNL     1       0.541   9.910  19.243  0.00  0.00    +0.000 A 
ATOM     18  C   UNL     1      -0.217  10.238  20.363  0.00  0.00    +0.000 A 
ATOM     19  C   UNL     1      -0.053   9.514  21.540  0.00  0.00    +0.000 A 
ATOM     20  C   UNL     1       0.886   8.477  21.611  0.00  0.00    +0.000 A 
ATOM     21  C   UNL     1       1.652   8.152  20.487  0.00  0.00    +0.000 A 
ENDBRANCH  14  16
ENDBRANCH   5  14
BRANCH   3  22
ATOM     22  O   UNL     1       1.173   3.711  17.607  0.00  0.00    +0.000 OA
BRANCH  22  23
ATOM     23  C   UNL     1       1.571   2.561  18.361  0.00  0.00    +0.000 C 
BRANCH  23  24
ATOM     24  C   UNL     1       0.681   2.442  19.595  0.00  0.00    +0.000 C 
BRANCH  24  25
ATOM     25  C   UNL     1       1.111   3.425  20.682  0.00  0.00    +0.000 C 
BRANCH  25  26
ATOM     26  C   UNL     1       2.592   3.773  20.593  0.00  0.00    +0.000 C 
BRANCH  26  27
ATOM     27  C   UNL     1       3.457   2.614  21.045  0.00  0.00    +0.000 C 
ATOM     28  O   UNL     1       3.233   1.916  22.031  0.00  0.00    +0.000 OA
ATOM     29  N   UNL     1       4.543   2.392  20.238  0.00  0.00    +0.000 N 
ATOM     30  H   UNL     1       4.802   2.939  19.426  0.00  0.00    +0.000 HD
BRANCH  29  31
ATOM     31  O   UNL     1       5.393   1.326  20.608  0.00  0.00    +0.000 OA
ATOM     32  H   UNL     1       4.968   0.559  20.165  0.00  0.00    +0.000 HD
ENDBRANCH  29  31
ENDBRANCH  26  27
ENDBRANCH  25  26
ENDBRANCH  24  25
ENDBRANCH  23  24
ENDBRANCH  22  23
ENDBRANCH   3  22
TORSDOF 10
ENDMDL
MODEL 4
REMARK VINA RESULT:      -8.6      0.869      1.741
REMARK  Name = 
REMARK  12 active torsions:
REMARK  status: ('A' for Active; 'I' for Inactive)
REMARK    1  A    between atoms: C_1  and  C_2
REMARK    2  A    between atoms: C_5  and  C_6
REMARK    3  A    between atoms: C_7  and  C_8
REMARK    4  A    between atoms: C_10  and  O_11
REMARK    5  A    between atoms: O_11  and  C_12
REMARK    6  A    between atoms: C_12  and  C_13
REMARK    7  A    between atoms: C_13  and  C_14
REMARK    8  A    between atoms: C_14  and  C_15
REMARK    9  A    between atoms: C_15  and  C_16
REMARK   10  A    between atoms: N_18  and  O_19
REMARK   11  A    between atoms: C_21  and  C_22
REMARK   12  A    between atoms: C_22  and  C_24
REMARK                            x       y       z     vdW  Elec       q    Type
REMARK                         _______ _______ _______ _____ _____    ______ ____
ROOT
ATOM      1  C   UNL     1       4.416   5.254  17.403  0.00  0.00    +0.000 A 
ATOM      2  C   UNL     1       3.479   4.233  17.576  0.00  0.00    +0.000 A 
ATOM      3  C   UNL     1       2.141   4.514  17.837  0.00  0.00    +0.000 A 
ATOM      4  C   UNL     1       1.733   5.828  18.032  0.00  0.00    +0.000 A 
ATOM      5  C   UNL     1       2.656   6.868  17.880  0.00  0.00    +0.000 A 
ATOM      6  C   UNL     1       3.987   6.577  17.548  0.00  0.00    +0.000 A 
ENDROOT
BRANCH   1  13
ATOM      7  C   UNL     1       7.167   5.361  19.251  0.00  0.00    +0.000 C 
ATOM      8  C   UNL     1       6.993   5.026  17.817  0.00  0.00    +0.000 A 
ATOM      9  N   UNL     1       8.059   4.687  17.083  0.00  0.00    +0.000 NA
ATOM     10  O   UNL     1       7.573   4.394  15.826  0.00  0.00    +0.000 OA
ATOM     11  C   UNL     1       6.224   4.556  15.804  0.00  0.00    +0.000 A 
ATOM     12  C   UNL     1       5.566   4.280  14.508  0.00  0.00    +0.000 C 
ATOM     13  C   UNL     1       5.793   4.964  17.052  0.00  0.00    +0.000 A 
ENDBRANCH   1  13
BRANCH   5  14
ATOM     14  C   UNL     1       2.169   8.263  18.039  0.00  0.00    +0.000 C 
ATOM     15  O   UNL     1       2.359   9.074  17.129  0.00  0.00    +0.000 OA
BRANCH  14  16
ATOM     16  C   UNL     1       1.461   8.682  19.263  0.00  0.00    +0.000 A 
ATOM     17  C   UNL     1       1.721   8.033  20.477  0.00  0.00    +0.000 A 
ATOM     18  C   UNL     1       1.096   8.448  21.649  0.00  0.00    +0.000 A 
ATOM     19  C   UNL     1       0.195   9.507  21.610  0.00  0.00    +0.000 A 
ATOM     20  C   UNL     1      -0.104  10.142  20.398  0.00  0.00    +0.000 A 
ATOM     21  C   UNL     1       0.520   9.721  19.219  0.00  0.00    +0.000 A 
ENDBRANCH  14  16
ENDBRANCH   5  14
BRANCH   3  22
ATOM     22  O   UNL     1       1.309   3.432  17.873  0.00  0.00    +0.000 OA
BRANCH  22  23
ATOM     23  C   UNL     1       0.334   3.457  18.921  0.00  0.00    +0.000 C 
BRANCH  23  24
ATOM     24  C   UNL     1       1.031   3.769  20.242  0.00  0.00    +0.000 C 
BRANCH  24  25
ATOM     25  C   UNL     1       1.497   2.490  20.935  0.00  0.00    +0.000 C 
BRANCH  25  26
ATOM     26  C   UNL     1       2.970   2.546  21.323  0.00  0.00    +0.000 C 
BRANCH  26  27
ATOM     27  C   UNL     1       3.856   2.080  20.185  0.00  0.00    +0.000 C 
ATOM     28  O   UNL     1       5.034   2.398  20.040  0.00  0.00    +0.000 OA
ATOM     29  N   UNL     1       3.222   1.245  19.301  0.00  0.00    +0.000 N 
ATOM     30  H   UNL     1       2.251   0.960  19.345  0.00  0.00    +0.000 HD
BRANCH  29  31
ATOM     31  O   UNL     1       3.993   0.779  18.215  0.00  0.00    +0.000 OA
ATOM     32  H   UNL     1       4.911   0.892  18.547  0.00  0.00    +0.000 HD
ENDBRANCH  29  31
ENDBRANCH  26  27
ENDBRANCH  25  26
ENDBRANCH  24  25
ENDBRANCH  23  24
ENDBRANCH  22  23
ENDBRANCH   3  22
TORSDOF 10
ENDMDL
MODEL 5
REMARK VINA RESULT:      -8.2      1.251      1.359
REMARK  Name = 
REMARK  12 active torsions:
REMARK  status: ('A' for Active; 'I' for Inactive)
REMARK    1  A    between atoms: C_1  and  C_2
REMARK    2  A    between atoms: C_5  and  C_6
REMARK    3  A    between atoms: C_7  and  C_8
REMARK    4  A    between atoms: C_10  and  O_11
REMARK    5  A    between atoms: O_11  and  C_12
REMARK    6  A    between atoms: C_12  and  C_13
REMARK    7  A    between atoms: C_13  and  C_14
REMARK    8  A    between atoms: C_14  and  C_15
REMARK    9  A    between atoms: C_15  and  C_16
REMARK   10  A    between atoms: N_18  and  O_19
REMARK   11  A    between atoms: C_21  and  C_22
REMARK   12  A    between atoms: C_22  and  C_24
REMARK                            x       y       z     vdW  Elec       q    Type
REMARK                         _______ _______ _______ _____ _____    ______ ____
ROOT
ATOM      1  C   UNL     1       4.347   6.108  17.068  0.00  0.00    +0.000 A 
ATOM      2  C   UNL     1       3.614   4.996  17.490  0.00  0.00    +0.000 A 
ATOM      3  C   UNL     1       2.366   5.138  18.090  0.00  0.00    +0.000 A 
ATOM      4  C   UNL     1       1.869   6.405  18.371  0.00  0.00    +0.000 A 
ATOM      5  C   UNL     1       2.592   7.534  17.973  0.00  0.00    +0.000 A 
ATOM      6  C   UNL     1       3.816   7.380  17.308  0.00  0.00    +0.000 A 
ENDROOT
BRANCH   1  13
ATOM      7  C   UNL     1       5.102   4.368  14.348  0.00  0.00    +0.000 C 
ATOM      8  C   UNL     1       5.966   5.202  15.218  0.00  0.00    +0.000 A 
ATOM      9  N   UNL     1       7.264   5.340  14.924  0.00  0.00    +0.000 NA
ATOM     10  O   UNL     1       7.777   6.195  15.877  0.00  0.00    +0.000 OA
ATOM     11  C   UNL     1       6.795   6.568  16.739  0.00  0.00    +0.000 A 
ATOM     12  C   UNL     1       7.208   7.485  17.824  0.00  0.00    +0.000 C 
ATOM     13  C   UNL     1       5.610   5.959  16.371  0.00  0.00    +0.000 A 
ENDBRANCH   1  13
BRANCH   5  14
ATOM     14  C   UNL     1       2.002   8.872  18.240  0.00  0.00    +0.000 C 
ATOM     15  O   UNL     1       2.149   9.771  17.408  0.00  0.00    +0.000 OA
BRANCH  14  16
ATOM     16  C   UNL     1       1.243   9.130  19.478  0.00  0.00    +0.000 A 
ATOM     17  C   UNL     1       1.593   8.468  20.662  0.00  0.00    +0.000 A 
ATOM     18  C   UNL     1       0.917   8.736  21.849  0.00  0.00    +0.000 A 
ATOM     19  C   UNL     1      -0.124   9.659  21.854  0.00  0.00    +0.000 A 
ATOM     20  C   UNL     1      -0.509  10.302  20.670  0.00  0.00    +0.000 A 
ATOM     21  C   UNL     1       0.166  10.028  19.477  0.00  0.00    +0.000 A 
ENDBRANCH  14  16
ENDBRANCH   5  14
BRANCH   3  22
ATOM     22  O   UNL     1       1.705   3.972  18.353  0.00  0.00    +0.000 OA
BRANCH  22  23
ATOM     23  C   UNL     1       0.865   4.005  19.512  0.00  0.00    +0.000 C 
BRANCH  23  24
ATOM     24  C   UNL     1       1.188   2.803  20.395  0.00  0.00    +0.000 C 
BRANCH  24  25
ATOM     25  C   UNL     1       2.364   3.101  21.324  0.00  0.00    +0.000 C 
BRANCH  25  26
ATOM     26  C   UNL     1       3.488   2.083  21.178  0.00  0.00    +0.000 C 
BRANCH  26  27
ATOM     27  C   UNL     1       4.249   2.286  19.883  0.00  0.00    +0.000 C 
ATOM     28  O   UNL     1       4.038   1.666  18.844  0.00  0.00    +0.000 OA
ATOM     29  N   UNL     1       5.220   3.250  19.962  0.00  0.00    +0.000 N 
ATOM     30  H   UNL     1       5.464   3.782  20.788  0.00  0.00    +0.000 HD
BRANCH  29  31
ATOM     31  O   UNL     1       5.969   3.484  18.788  0.00  0.00    +0.000 OA
ATOM     32  H   UNL     1       6.669   4.096  19.106  0.00  0.00    +0.000 HD
ENDBRANCH  29  31
ENDBRANCH  26  27
ENDBRANCH  25  26
ENDBRANCH  24  25
ENDBRANCH  23  24
ENDBRANCH  22  23
ENDBRANCH   3  22
TORSDOF 10
ENDMDL
MODEL 6
REMARK VINA RESULT:      -8.1      2.678      7.408
REMARK  Name = 
REMARK  12 active torsions:
REMARK  status: ('A' for Active; 'I' for Inactive)
REMARK    1  A    between atoms: C_1  and  C_2
REMARK    2  A    between atoms: C_5  and  C_6
REMARK    3  A    between atoms: C_7  and  C_8
REMARK    4  A    between atoms: C_10  and  O_11
REMARK    5  A    between atoms: O_11  and  C_12
REMARK    6  A    between atoms: C_12  and  C_13
REMARK    7  A    between atoms: C_13  and  C_14
REMARK    8  A    between atoms: C_14  and  C_15
REMARK    9  A    between atoms: C_15  and  C_16
REMARK   10  A    between atoms: N_18  and  O_19
REMARK   11  A    between atoms: C_21  and  C_22
REMARK   12  A    between atoms: C_22  and  C_24
REMARK                            x       y       z     vdW  Elec       q    Type
REMARK                         _______ _______ _______ _____ _____    ______ ____
ROOT
ATOM      1  C   UNL     1       3.538   4.851  18.310  0.00  0.00    +0.000 A 
ATOM      2  C   UNL     1       3.169   6.186  18.133  0.00  0.00    +0.000 A 
ATOM      3  C   UNL     1       3.900   7.035  17.306  0.00  0.00    +0.000 A 
ATOM      4  C   UNL     1       5.076   6.589  16.717  0.00  0.00    +0.000 A 
ATOM      5  C   UNL     1       5.476   5.259  16.892  0.00  0.00    +0.000 A 
ATOM      6  C   UNL     1       4.696   4.394  17.672  0.00  0.00    +0.000 A 
ENDROOT
BRANCH   1  13
ATOM      7  C   UNL     1       1.411   5.477  20.776  0.00  0.00    +0.000 C 
ATOM      8  C   UNL     1       1.833   4.184  20.185  0.00  0.00    +0.000 A 
ATOM      9  N   UNL     1       1.311   3.043  20.649  0.00  0.00    +0.000 NA
ATOM     10  O   UNL     1       1.859   2.038  19.879  0.00  0.00    +0.000 OA
ATOM     11  C   UNL     1       2.704   2.571  18.958  0.00  0.00    +0.000 A 
ATOM     12  C   UNL     1       3.371   1.601  18.062  0.00  0.00    +0.000 C 
ATOM     13  C   UNL     1       2.733   3.944  19.107  0.00  0.00    +0.000 A 
ENDBRANCH   1  13
BRANCH   5  14
ATOM     14  C   UNL     1       6.709   4.803  16.200  0.00  0.00    +0.000 C 
ATOM     15  O   UNL     1       7.727   4.591  16.864  0.00  0.00    +0.000 OA
BRANCH  14  16
ATOM     16  C   UNL     1       6.726   4.598  14.740  0.00  0.00    +0.000 A 
ATOM     17  C   UNL     1       7.650   5.291  13.948  0.00  0.00    +0.000 A 
ATOM     18  C   UNL     1       7.710   5.073  12.575  0.00  0.00    +0.000 A 
ATOM     19  C   UNL     1       6.833   4.169  11.984  0.00  0.00    +0.000 A 
ATOM     20  C   UNL     1       5.879   3.496  12.757  0.00  0.00    +0.000 A 
ATOM     21  C   UNL     1       5.815   3.719  14.136  0.00  0.00    +0.000 A 
ENDBRANCH  14  16
ENDBRANCH   5  14
BRANCH   3  22
ATOM     22  O   UNL     1       3.371   8.282  17.130  0.00  0.00    +0.000 OA
BRANCH  22  23
ATOM     23  C   UNL     1       2.131   8.510  17.807  0.00  0.00    +0.000 C 
BRANCH  23  24
ATOM     24  C   UNL     1       1.861  10.012  17.859  0.00  0.00    +0.000 C 
BRANCH  24  25
ATOM     25  C   UNL     1       0.968  10.371  19.044  0.00  0.00    +0.000 C 
BRANCH  25  26
ATOM     26  C   UNL     1       1.000   9.307  20.135  0.00  0.00    +0.000 C 
BRANCH  26  27
ATOM     27  C   UNL     1       0.377   9.818  21.419  0.00  0.00    +0.000 C 
ATOM     28  O   UNL     1      -0.506  10.670  21.476  0.00  0.00    +0.000 OA
ATOM     29  N   UNL     1       0.888   9.233  22.548  0.00  0.00    +0.000 N 
ATOM     30  H   UNL     1       1.629   8.544  22.578  0.00  0.00    +0.000 HD
BRANCH  29  31
ATOM     31  O   UNL     1       0.352   9.670  23.779  0.00  0.00    +0.000 OA
ATOM     32  H   UNL     1      -0.444   9.102  23.873  0.00  0.00    +0.000 HD
ENDBRANCH  29  31
ENDBRANCH  26  27
ENDBRANCH  25  26
ENDBRANCH  24  25
ENDBRANCH  23  24
ENDBRANCH  22  23
ENDBRANCH   3  22
TORSDOF 10
ENDMDL
MODEL 7
REMARK VINA RESULT:      -8.0      3.006      6.379
REMARK  Name = 
REMARK  12 active torsions:
REMARK  status: ('A' for Active; 'I' for Inactive)
REMARK    1  A    between atoms: C_1  and  C_2
REMARK    2  A    between atoms: C_5  and  C_6
REMARK    3  A    between atoms: C_7  and  C_8
REMARK    4  A    between atoms: C_10  and  O_11
REMARK    5  A    between atoms: O_11  and  C_12
REMARK    6  A    between atoms: C_12  and  C_13
REMARK    7  A    between atoms: C_13  and  C_14
REMARK    8  A    between atoms: C_14  and  C_15
REMARK    9  A    between atoms: C_15  and  C_16
REMARK   10  A    between atoms: N_18  and  O_19
REMARK   11  A    between atoms: C_21  and  C_22
REMARK   12  A    between atoms: C_22  and  C_24
REMARK                            x       y       z     vdW  Elec       q    Type
REMARK                         _______ _______ _______ _____ _____    ______ ____
ROOT
ATOM      1  C   UNL     1       4.623   6.169  16.813  0.00  0.00    +0.000 A 
ATOM      2  C   UNL     1       4.168   7.452  17.121  0.00  0.00    +0.000 A 
ATOM      3  C   UNL     1       2.982   7.651  17.823  0.00  0.00    +0.000 A 
ATOM      4  C   UNL     1       2.175   6.567  18.144  0.00  0.00    +0.000 A 
ATOM      5  C   UNL     1       2.601   5.271  17.833  0.00  0.00    +0.000 A 
ATOM      6  C   UNL     1       3.830   5.078  17.187  0.00  0.00    +0.000 A 
ENDROOT
BRANCH   1  13
ATOM      7  C   UNL     1       5.380   4.339  14.153  0.00  0.00    +0.000 C 
ATOM      8  C   UNL     1       6.253   5.159  15.027  0.00  0.00    +0.000 A 
ATOM      9  N   UNL     1       7.563   5.242  14.764  0.00  0.00    +0.000 NA
ATOM     10  O   UNL     1       8.084   6.099  15.712  0.00  0.00    +0.000 OA
ATOM     11  C   UNL     1       7.095   6.528  16.539  0.00  0.00    +0.000 A 
ATOM     12  C   UNL     1       7.515   7.454  17.613  0.00  0.00    +0.000 C 
ATOM     13  C   UNL     1       5.897   5.957  16.153  0.00  0.00    +0.000 A 
ENDBRANCH   1  13
BRANCH   5  14
ATOM     14  C   UNL     1       1.738   4.134  18.244  0.00  0.00    +0.000 C 
ATOM     15  O   UNL     1       0.838   3.758  17.487  0.00  0.00    +0.000 OA
BRANCH  14  16
ATOM     16  C   UNL     1       1.949   3.451  19.534  0.00  0.00    +0.000 A 
ATOM     17  C   UNL     1       3.184   2.853  19.813  0.00  0.00    +0.000 A 
ATOM     18  C   UNL     1       3.415   2.246  21.044  0.00  0.00    +0.000 A 
ATOM     19  C   UNL     1       2.402   2.221  21.999  0.00  0.00    +0.000 A 
ATOM     20  C   UNL     1       1.149   2.782  21.720  0.00  0.00    +0.000 A 
ATOM     21  C   UNL     1       0.917   3.387  20.481  0.00  0.00    +0.000 A 
ENDBRANCH  14  16
ENDBRANCH   5  14
BRANCH   3  22
ATOM     22  O   UNL     1       2.707   8.946  18.157  0.00  0.00    +0.000 OA
BRANCH  22  23
ATOM     23  C   UNL     1       1.410   9.406  17.764  0.00  0.00    +0.000 C 
BRANCH  23  24
ATOM     24  C   UNL     1       0.695   9.981  18.985  0.00  0.00    +0.000 C 
BRANCH  24  25
ATOM     25  C   UNL     1      -0.314  11.053  18.578  0.00  0.00    +0.000 C 
BRANCH  25  26
ATOM     26  C   UNL     1      -1.751  10.633  18.864  0.00  0.00    +0.000 C 
BRANCH  26  27
ATOM     27  C   UNL     1      -2.583  10.622  17.598  0.00  0.00    +0.000 C 
ATOM     28  O   UNL     1      -3.541   9.881  17.397  0.00  0.00    +0.000 OA
ATOM     29  N   UNL     1      -2.173  11.538  16.664  0.00  0.00    +0.000 N 
ATOM     30  H   UNL     1      -1.381  12.163  16.751  0.00  0.00    +0.000 HD
BRANCH  29  31
ATOM     31  O   UNL     1      -2.906  11.575  15.457  0.00  0.00    +0.000 OA
ATOM     32  H   UNL     1      -2.880  10.636  15.169  0.00  0.00    +0.000 HD
ENDBRANCH  29  31
ENDBRANCH  26  27
ENDBRANCH  25  26
ENDBRANCH  24  25
ENDBRANCH  23  24
ENDBRANCH  22  23
ENDBRANCH   3  22
TORSDOF 10
ENDMDL
MODEL 8
REMARK VINA RESULT:      -7.9      2.505      7.174
REMARK  Name = 
REMARK  12 active torsions:
REMARK  status: ('A' for Active; 'I' for Inactive)
REMARK    1  A    between atoms: C_1  and  C_2
REMARK    2  A    between atoms: C_5  and  C_6
REMARK    3  A    between atoms: C_7  and  C_8
REMARK    4  A    between atoms: C_10  and  O_11
REMARK    5  A    between atoms: O_11  and  C_12
REMARK    6  A    between atoms: C_12  and  C_13
REMARK    7  A    between atoms: C_13  and  C_14
REMARK    8  A    between atoms: C_14  and  C_15
REMARK    9  A    between atoms: C_15  and  C_16
REMARK   10  A    between atoms: N_18  and  O_19
REMARK   11  A    between atoms: C_21  and  C_22
REMARK   12  A    between atoms: C_22  and  C_24
REMARK                            x       y       z     vdW  Elec       q    Type
REMARK                         _______ _______ _______ _____ _____    ______ ____
ROOT
ATOM      1  C   UNL     1       3.398   5.069  18.301  0.00  0.00    +0.000 A 
ATOM      2  C   UNL     1       2.929   6.369  18.103  0.00  0.00    +0.000 A 
ATOM      3  C   UNL     1       3.604   7.264  17.278  0.00  0.00    +0.000 A 
ATOM      4  C   UNL     1       4.821   6.905  16.712  0.00  0.00    +0.000 A 
ATOM      5  C   UNL     1       5.321   5.613  16.908  0.00  0.00    +0.000 A 
ATOM      6  C   UNL     1       4.598   4.697  17.685  0.00  0.00    +0.000 A 
ENDROOT
BRANCH   1  13
ATOM      7  C   UNL     1       3.190   1.769  18.037  0.00  0.00    +0.000 C 
ATOM      8  C   UNL     1       2.529   2.694  18.989  0.00  0.00    +0.000 A 
ATOM      9  N   UNL     1       1.715   2.204  19.932  0.00  0.00    +0.000 NA
ATOM     10  O   UNL     1       1.300   3.290  20.673  0.00  0.00    +0.000 OA
ATOM     11  C   UNL     1       1.858   4.426  20.180  0.00  0.00    +0.000 A 
ATOM     12  C   UNL     1       1.492   5.677  20.880  0.00  0.00    +0.000 C 
ATOM     13  C   UNL     1       2.654   4.110  19.095  0.00  0.00    +0.000 A 
ENDBRANCH   1  13
BRANCH   5  14
ATOM     14  C   UNL     1       6.597   5.248  16.240  0.00  0.00    +0.000 C 
ATOM     15  O   UNL     1       7.646   5.285  16.888  0.00  0.00    +0.000 OA
BRANCH  14  16
ATOM     16  C   UNL     1       6.620   4.839  14.824  0.00  0.00    +0.000 A 
ATOM     17  C   UNL     1       7.606   5.345  13.966  0.00  0.00    +0.000 A 
ATOM     18  C   UNL     1       7.669   4.933  12.639  0.00  0.00    +0.000 A 
ATOM     19  C   UNL     1       6.735   4.021  12.157  0.00  0.00    +0.000 A 
ATOM     20  C   UNL     1       5.721   3.535  12.991  0.00  0.00    +0.000 A 
ATOM     21  C   UNL     1       5.654   3.953  14.324  0.00  0.00    +0.000 A 
ENDBRANCH  14  16
ENDBRANCH   5  14
BRANCH   3  22
ATOM     22  O   UNL     1       2.983   8.464  17.079  0.00  0.00    +0.000 OA
BRANCH  22  23
ATOM     23  C   UNL     1       1.862   8.709  17.935  0.00  0.00    +0.000 C 
BRANCH  23  24
ATOM     24  C   UNL     1       1.768  10.206  18.216  0.00  0.00    +0.000 C 
BRANCH  24  25
ATOM     25  C   UNL     1       0.539  10.532  19.063  0.00  0.00    +0.000 C 
BRANCH  25  26
ATOM     26  C   UNL     1       0.283   9.483  20.137  0.00  0.00    +0.000 C 
BRANCH  26  27
ATOM     27  C   UNL     1       0.859   9.911  21.472  0.00  0.00    +0.000 C 
ATOM     28  O   UNL     1       0.578  10.958  22.051  0.00  0.00    +0.000 OA
ATOM     29  N   UNL     1       1.744   9.009  22.004  0.00  0.00    +0.000 N 
ATOM     30  H   UNL     1       2.038   8.141  21.574  0.00  0.00    +0.000 HD
BRANCH  29  31
ATOM     31  O   UNL     1       2.320   9.353  23.246  0.00  0.00    +0.000 OA
ATOM     32  H   UNL     1       2.558  10.296  23.112  0.00  0.00    +0.000 HD
ENDBRANCH  29  31
ENDBRANCH  26  27
ENDBRANCH  25  26
ENDBRANCH  24  25
ENDBRANCH  23  24
ENDBRANCH  22  23
ENDBRANCH   3  22
TORSDOF 10
ENDMDL
MODEL 9
REMARK VINA RESULT:      -7.9      1.738      4.456
REMARK  Name = 
REMARK  12 active torsions:
REMARK  status: ('A' for Active; 'I' for Inactive)
REMARK    1  A    between atoms: C_1  and  C_2
REMARK    2  A    between atoms: C_5  and  C_6
REMARK    3  A    between atoms: C_7  and  C_8
REMARK    4  A    between atoms: C_10  and  O_11
REMARK    5  A    between atoms: O_11  and  C_12
REMARK    6  A    between atoms: C_12  and  C_13
REMARK    7  A    between atoms: C_13  and  C_14
REMARK    8  A    between atoms: C_14  and  C_15
REMARK    9  A    between atoms: C_15  and  C_16
REMARK   10  A    between atoms: N_18  and  O_19
REMARK   11  A    between atoms: C_21  and  C_22
REMARK   12  A    between atoms: C_22  and  C_24
REMARK                            x       y       z     vdW  Elec       q    Type
REMARK                         _______ _______ _______ _____ _____    ______ ____
ROOT
ATOM      1  C   UNL     1       2.887   5.345  18.267  0.00  0.00    +0.000 A 
ATOM      2  C   UNL     1       3.967   5.445  17.387  0.00  0.00    +0.000 A 
ATOM      3  C   UNL     1       4.366   6.673  16.867  0.00  0.00    +0.000 A 
ATOM      4  C   UNL     1       3.626   7.816  17.139  0.00  0.00    +0.000 A 
ATOM      5  C   UNL     1       2.530   7.741  18.005  0.00  0.00    +0.000 A 
ATOM      6  C   UNL     1       2.178   6.511  18.579  0.00  0.00    +0.000 A 
ENDROOT
BRANCH   1  13
ATOM      7  C   UNL     1       2.720   2.307  16.949  0.00  0.00    +0.000 C 
ATOM      8  C   UNL     1       2.417   2.768  18.325  0.00  0.00    +0.000 A 
ATOM      9  N   UNL     1       2.022   1.883  19.248  0.00  0.00    +0.000 NA
ATOM     10  O   UNL     1       1.864   2.601  20.415  0.00  0.00    +0.000 OA
ATOM     11  C   UNL     1       2.162   3.909  20.197  0.00  0.00    +0.000 A 
ATOM     12  C   UNL     1       2.030   4.801  21.369  0.00  0.00    +0.000 C 
ATOM     13  C   UNL     1       2.520   4.080  18.873  0.00  0.00    +0.000 A 
ENDBRANCH   1  13
BRANCH   5  14
ATOM     14  C   UNL     1       1.798   8.995  18.318  0.00  0.00    +0.000 C 
ATOM     15  O   UNL     1       1.715   9.874  17.455  0.00  0.00    +0.000 OA
BRANCH  14  16
ATOM     16  C   UNL     1       1.169   9.196  19.636  0.00  0.00    +0.000 A 
ATOM     17  C   UNL     1       0.116  10.111  19.775  0.00  0.00    +0.000 A 
ATOM     18  C   UNL     1      -0.519  10.277  21.002  0.00  0.00    +0.000 A 
ATOM     19  C   UNL     1      -0.094   9.538  22.102  0.00  0.00    +0.000 A 
ATOM     20  C   UNL     1       0.981   8.648  21.988  0.00  0.00    +0.000 A 
ATOM     21  C   UNL     1       1.623   8.485  20.756  0.00  0.00    +0.000 A 
ENDBRANCH  14  16
ENDBRANCH   5  14
BRANCH   3  22
ATOM     22  O   UNL     1       5.502   6.648  16.110  0.00  0.00    +0.000 OA
BRANCH  22  23
ATOM     23  C   UNL     1       5.655   5.484  15.292  0.00  0.00    +0.000 C 
BRANCH  23  24
ATOM     24  C   UNL     1       7.073   4.942  15.458  0.00  0.00    +0.000 C 
BRANCH  24  25
ATOM     25  C   UNL     1       7.345   4.546  16.908  0.00  0.00    +0.000 C 
BRANCH  25  26
ATOM     26  C   UNL     1       7.640   5.753  17.791  0.00  0.00    +0.000 C 
BRANCH  26  27
ATOM     27  C   UNL     1       7.375   5.444  19.250  0.00  0.00    +0.000 C 
ATOM     28  O   UNL     1       6.263   5.243  19.732  0.00  0.00    +0.000 OA
ATOM     29  N   UNL     1       8.510   5.399  20.018  0.00  0.00    +0.000 N 
ATOM     30  H   UNL     1       9.453   5.576  19.695  0.00  0.00    +0.000 HD
BRANCH  29  31
ATOM     31  O   UNL     1       8.330   5.120  21.390  0.00  0.00    +0.000 OA
ATOM     32  H   UNL     1       7.802   5.892  21.692  0.00  0.00    +0.000 HD
ENDBRANCH  29  31
ENDBRANCH  26  27
ENDBRANCH  25  26
ENDBRANCH  24  25
ENDBRANCH  23  24
ENDBRANCH  22  23
ENDBRANCH   3  22
TORSDOF 10
ENDMDL
