MODEL 1
REMARK VINA RESULT:      -8.4      0.000      0.000
REMARK  Name = 
REMARK  4 active torsions:
REMARK  status: ('A' for Active; 'I' for Inactive)
REMARK    1  A    between atoms: C_1  and  C_2
REMARK    2  A    between atoms: C_8  and  C_9
REMARK    3  A    between atoms: C_28  and  C_29
REMARK    4  A    between atoms: C_29  and  O_31
REMARK                            x       y       z     vdW  Elec       q    Type
REMARK                         _______ _______ _______ _____ _____    ______ ____
ROOT
ATOM      1  C   UNL     1      -0.593   9.804  17.101  0.00  0.00    +0.000 C 
ATOM      2  C   UNL     1      -0.425   9.975  18.590  0.00  0.00    +0.000 A 
ATOM      3  C   UNL     1       0.433   9.147  19.329  0.00  0.00    +0.000 A 
ATOM      4  N   UNL     1       1.318   8.249  18.701  0.00  0.00    +0.000 N 
ATOM      5  C   UNL     1       2.272   8.815  17.729  0.00  0.00    +0.000 C 
ATOM      6  C   UNL     1       3.412   7.814  17.516  0.00  0.00    +0.000 C 
ATOM      7  C   UNL     1       3.188   6.803  18.592  0.00  0.00    +0.000 A 
ATOM      8  C   UNL     1       3.945   5.656  18.896  0.00  0.00    +0.000 A 
ATOM      9  C   UNL     1       3.470   4.891  19.979  0.00  0.00    +0.000 A 
ATOM     10  C   UNL     1       2.309   5.248  20.677  0.00  0.00    +0.000 A 
ATOM     11  F   UNL     1       1.894   4.467  21.685  0.00  0.00    +0.000 F 
ATOM     12  C   UNL     1       1.562   6.363  20.329  0.00  0.00    +0.000 A 
ATOM     13  C   UNL     1       2.001   7.142  19.273  0.00  0.00    +0.000 A 
ATOM     14  N   UNL     1       0.429   9.199  20.679  0.00  0.00    +0.000 NA
ATOM     15  C   UNL     1      -0.306  10.100  21.346  0.00  0.00    +0.000 A 
ATOM     16  C   UNL     1      -0.255  10.077  22.737  0.00  0.00    +0.000 A 
ATOM     17  C   UNL     1      -0.950  11.005  23.515  0.00  0.00    +0.000 A 
ATOM     18  C   UNL     1      -1.688  11.988  22.881  0.00  0.00    +0.000 A 
ATOM     19  F   UNL     1      -2.347  12.896  23.614  0.00  0.00    +0.000 F 
ATOM     20  C   UNL     1      -1.762  12.035  21.498  0.00  0.00    +0.000 A 
ATOM     21  C   UNL     1      -1.100  11.065  20.697  0.00  0.00    +0.000 A 
ATOM     22  C   UNL     1      -1.152  10.963  19.287  0.00  0.00    +0.000 A 
ENDROOT
BRANCH   8  23
ATOM     23  C   UNL     1       5.124   5.201  18.107  0.00  0.00    +0.000 A 
ATOM     24  C   UNL     1       6.443   5.348  18.567  0.00  0.00    +0.000 A 
ATOM     25  C   UNL     1       7.548   4.998  17.781  0.00  0.00    +0.000 A 
ATOM     26  C   UNL     1       7.359   4.433  16.528  0.00  0.00    +0.000 A 
ATOM     27  C   UNL     1       6.067   4.220  16.062  0.00  0.00    +0.000 A 
ATOM     28  C   UNL     1       4.967   4.613  16.836  0.00  0.00    +0.000 A 
ENDBRANCH   8  23
BRANCH  22  29
ATOM     29  C   UNL     1      -1.943  11.938  18.489  0.00  0.00    +0.000 C 
ATOM     30  O   UNL     1      -3.139  11.810  18.295  0.00  0.00    +0.000 OA
BRANCH  29  31
ATOM     31  O   UNL     1      -1.235  13.003  18.062  0.00  0.00    +0.000 OA
ATOM     32  H   UNL     1      -1.036  13.021  17.106  0.00  0.00    +0.000 HD
ENDBRANCH  29  31
ENDBRANCH  22  29
TORSDOF 3
ENDMDL
MODEL 2
REMARK VINA RESULT:      -8.1      3.574      8.345
REMARK  Name = 
REMARK  4 active torsions:
REMARK  status: ('A' for Active; 'I' for Inactive)
REMARK    1  A    between atoms: C_1  and  C_2
REMARK    2  A    between atoms: C_8  and  C_9
REMARK    3  A    between atoms: C_28  and  C_29
REMARK    4  A    between atoms: C_29  and  O_31
REMARK                            x       y       z     vdW  Elec       q    Type
REMARK                         _______ _______ _______ _____ _____    ______ ____
ROOT
ATOM      1  C   UNL     1       4.608   7.249  17.590  0.00  0.00    +0.000 C 
ATOM      2  C   UNL     1       3.572   6.346  18.212  0.00  0.00    +0.000 A 
ATOM      3  C   UNL     1       2.536   6.860  19.006  0.00  0.00    +0.000 A 
ATOM      4  N   UNL     1       2.296   8.244  19.106  0.00  0.00    +0.000 N 
ATOM      5  C   UNL     1       2.052   8.976  17.848  0.00  0.00    +0.000 C 
ATOM      6  C   UNL     1       1.374  10.309  18.177  0.00  0.00    +0.000 C 
ATOM      7  C   UNL     1       1.019  10.168  19.621  0.00  0.00    +0.000 A 
ATOM      8  C   UNL     1       0.355  11.084  20.460  0.00  0.00    +0.000 A 
ATOM      9  C   UNL     1       0.172  10.657  21.790  0.00  0.00    +0.000 A 
ATOM     10  C   UNL     1       0.646   9.417  22.236  0.00  0.00    +0.000 A 
ATOM     11  F   UNL     1       0.462   9.077  23.519  0.00  0.00    +0.000 F 
ATOM     12  C   UNL     1       1.332   8.554  21.395  0.00  0.00    +0.000 A 
ATOM     13  C   UNL     1       1.527   8.936  20.080  0.00  0.00    +0.000 A 
ATOM     14  N   UNL     1       1.733   6.022  19.698  0.00  0.00    +0.000 NA
ATOM     15  C   UNL     1       1.829   4.691  19.573  0.00  0.00    +0.000 A 
ATOM     16  C   UNL     1       0.965   3.904  20.328  0.00  0.00    +0.000 A 
ATOM     17  C   UNL     1       0.962   2.511  20.229  0.00  0.00    +0.000 A 
ATOM     18  C   UNL     1       1.825   1.903  19.336  0.00  0.00    +0.000 A 
ATOM     19  F   UNL     1       1.820   0.568  19.217  0.00  0.00    +0.000 F 
ATOM     20  C   UNL     1       2.699   2.659  18.572  0.00  0.00    +0.000 A 
ATOM     21  C   UNL     1       2.747   4.074  18.701  0.00  0.00    +0.000 A 
ATOM     22  C   UNL     1       3.636   4.948  18.033  0.00  0.00    +0.000 A 
ENDROOT
BRANCH   8  23
ATOM     23  C   UNL     1      -0.071  12.447  20.036  0.00  0.00    +0.000 A 
ATOM     24  C   UNL     1       0.733  13.276  19.237  0.00  0.00    +0.000 A 
ATOM     25  C   UNL     1       0.362  14.588  18.917  0.00  0.00    +0.000 A 
ATOM     26  C   UNL     1      -0.861  15.088  19.342  0.00  0.00    +0.000 A 
ATOM     27  C   UNL     1      -1.709  14.277  20.088  0.00  0.00    +0.000 A 
ATOM     28  C   UNL     1      -1.311  12.980  20.440  0.00  0.00    +0.000 A 
ENDBRANCH   8  23
BRANCH  22  29
ATOM     29  C   UNL     1       4.638   4.415  17.072  0.00  0.00    +0.000 C 
ATOM     30  O   UNL     1       4.442   4.384  15.869  0.00  0.00    +0.000 OA
BRANCH  29  31
ATOM     31  O   UNL     1       5.800   4.038  17.640  0.00  0.00    +0.000 OA
ATOM     32  H   UNL     1       6.609   4.285  17.152  0.00  0.00    +0.000 HD
ENDBRANCH  29  31
ENDBRANCH  22  29
TORSDOF 3
ENDMDL
MODEL 3
REMARK VINA RESULT:      -8.1      3.894      9.035
REMARK  Name = 
REMARK  4 active torsions:
REMARK  status: ('A' for Active; 'I' for Inactive)
REMARK    1  A    between atoms: C_1  and  C_2
REMARK    2  A    between atoms: C_8  and  C_9
REMARK    3  A    between atoms: C_28  and  C_29
REMARK    4  A    between atoms: C_29  and  O_31
REMARK                            x       y       z     vdW  Elec       q    Type
REMARK                         _______ _______ _______ _____ _____    ______ ____
ROOT
ATOM      1  C   UNL     1       1.228   4.548  19.262  0.00  0.00    +0.000 C 
ATOM      2  C   UNL     1       2.559   5.147  18.879  0.00  0.00    +0.000 A 
ATOM      3  C   UNL     1       2.771   6.533  18.906  0.00  0.00    +0.000 A 
ATOM      4  N   UNL     1       1.830   7.416  19.469  0.00  0.00    +0.000 N 
ATOM      5  C   UNL     1       1.444   7.182  20.874  0.00  0.00    +0.000 C 
ATOM      6  C   UNL     1       0.807   8.459  21.430  0.00  0.00    +0.000 C 
ATOM      7  C   UNL     1       1.092   9.475  20.374  0.00  0.00    +0.000 A 
ATOM      8  C   UNL     1       0.758  10.842  20.352  0.00  0.00    +0.000 A 
ATOM      9  C   UNL     1       1.166  11.543  19.200  0.00  0.00    +0.000 A 
ATOM     10  C   UNL     1       1.833  10.902  18.148  0.00  0.00    +0.000 A 
ATOM     11  F   UNL     1       2.175  11.617  17.067  0.00  0.00    +0.000 F 
ATOM     12  C   UNL     1       2.113   9.544  18.181  0.00  0.00    +0.000 A 
ATOM     13  C   UNL     1       1.732   8.824  19.300  0.00  0.00    +0.000 A 
ATOM     14  N   UNL     1       3.905   7.055  18.388  0.00  0.00    +0.000 NA
ATOM     15  C   UNL     1       4.894   6.275  17.932  0.00  0.00    +0.000 A 
ATOM     16  C   UNL     1       6.024   6.898  17.409  0.00  0.00    +0.000 A 
ATOM     17  C   UNL     1       7.123   6.168  16.952  0.00  0.00    +0.000 A 
ATOM     18  C   UNL     1       7.094   4.789  17.047  0.00  0.00    +0.000 A 
ATOM     19  F   UNL     1       8.149   4.076  16.629  0.00  0.00    +0.000 F 
ATOM     20  C   UNL     1       5.983   4.138  17.560  0.00  0.00    +0.000 A 
ATOM     21  C   UNL     1       4.838   4.869  17.981  0.00  0.00    +0.000 A 
ATOM     22  C   UNL     1       3.623   4.323  18.455  0.00  0.00    +0.000 A 
ENDROOT
BRANCH   8  23
ATOM     23  C   UNL     1      -0.036  11.524  21.411  0.00  0.00    +0.000 A 
ATOM     24  C   UNL     1      -0.917  10.833  22.259  0.00  0.00    +0.000 A 
ATOM     25  C   UNL     1      -1.724  11.495  23.192  0.00  0.00    +0.000 A 
ATOM     26  C   UNL     1      -1.626  12.871  23.345  0.00  0.00    +0.000 A 
ATOM     27  C   UNL     1      -0.724  13.583  22.562  0.00  0.00    +0.000 A 
ATOM     28  C   UNL     1       0.049  12.919  21.600  0.00  0.00    +0.000 A 
ENDBRANCH   8  23
BRANCH  22  29
ATOM     29  C   UNL     1       3.451   2.850  18.571  0.00  0.00    +0.000 C 
ATOM     30  O   UNL     1       3.015   2.167  17.660  0.00  0.00    +0.000 OA
BRANCH  29  31
ATOM     31  O   UNL     1       3.883   2.335  19.739  0.00  0.00    +0.000 OA
ATOM     32  H   UNL     1       3.731   1.378  19.859  0.00  0.00    +0.000 HD
ENDBRANCH  29  31
ENDBRANCH  22  29
TORSDOF 3
ENDMDL
MODEL 4
REMARK VINA RESULT:      -7.7      4.712      9.996
REMARK  Name = 
REMARK  4 active torsions:
REMARK  status: ('A' for Active; 'I' for Inactive)
REMARK    1  A    between atoms: C_1  and  C_2
REMARK    2  A    between atoms: C_8  and  C_9
REMARK    3  A    between atoms: C_28  and  C_29
REMARK    4  A    between atoms: C_29  and  O_31
REMARK                            x       y       z     vdW  Elec       q    Type
REMARK                         _______ _______ _______ _____ _____    ______ ____
ROOT
ATOM      1  C   UNL     1       1.170  10.875  20.900  0.00  0.00    +0.000 C 
ATOM      2  C   UNL     1      -0.086  11.077  20.089  0.00  0.00    +0.000 A 
ATOM      3  C   UNL     1      -1.150  11.853  20.572  0.00  0.00    +0.000 A 
ATOM      4  N   UNL     1      -1.030  12.632  21.738  0.00  0.00    +0.000 N 
ATOM      5  C   UNL     1       0.058  13.629  21.771  0.00  0.00    +0.000 C 
ATOM      6  C   UNL     1      -0.248  14.656  22.866  0.00  0.00    +0.000 C 
ATOM      7  C   UNL     1      -1.655  14.341  23.251  0.00  0.00    +0.000 A 
ATOM      8  C   UNL     1      -2.473  14.978  24.204  0.00  0.00    +0.000 A 
ATOM      9  C   UNL     1      -3.766  14.439  24.344  0.00  0.00    +0.000 A 
ATOM     10  C   UNL     1      -4.185  13.330  23.597  0.00  0.00    +0.000 A 
ATOM     11  F   UNL     1      -5.420  12.847  23.791  0.00  0.00    +0.000 F 
ATOM     12  C   UNL     1      -3.342  12.699  22.694  0.00  0.00    +0.000 A 
ATOM     13  C   UNL     1      -2.065  13.204  22.526  0.00  0.00    +0.000 A 
ATOM     14  N   UNL     1      -2.330  11.870  19.913  0.00  0.00    +0.000 NA
ATOM     15  C   UNL     1      -2.490  11.240  18.740  0.00  0.00    +0.000 A 
ATOM     16  C   UNL     1      -3.742  11.305  18.134  0.00  0.00    +0.000 A 
ATOM     17  C   UNL     1      -3.989  10.719  16.892  0.00  0.00    +0.000 A 
ATOM     18  C   UNL     1      -2.953  10.079  16.237  0.00  0.00    +0.000 A 
ATOM     19  F   UNL     1      -3.171   9.528  15.035  0.00  0.00    +0.000 F 
ATOM     20  C   UNL     1      -1.696   9.994  16.815  0.00  0.00    +0.000 A 
ATOM     21  C   UNL     1      -1.446  10.543  18.102  0.00  0.00    +0.000 A 
ATOM     22  C   UNL     1      -0.234  10.465  18.827  0.00  0.00    +0.000 A 
ENDROOT
BRANCH   8  23
ATOM     23  C   UNL     1      -2.019  16.094  25.079  0.00  0.00    +0.000 A 
ATOM     24  C   UNL     1      -2.394  17.429  24.858  0.00  0.00    +0.000 A 
ATOM     25  C   UNL     1      -1.892  18.482  25.633  0.00  0.00    +0.000 A 
ATOM     26  C   UNL     1      -1.041  18.218  26.697  0.00  0.00    +0.000 A 
ATOM     27  C   UNL     1      -0.691  16.902  26.982  0.00  0.00    +0.000 A 
ATOM     28  C   UNL     1      -1.164  15.859  26.175  0.00  0.00    +0.000 A 
ENDBRANCH   8  23
BRANCH  22  29
ATOM     29  C   UNL     1       0.948   9.770  18.248  0.00  0.00    +0.000 C 
ATOM     30  O   UNL     1       1.130   8.571  18.372  0.00  0.00    +0.000 OA
BRANCH  29  31
ATOM     31  O   UNL     1       1.755  10.569  17.522  0.00  0.00    +0.000 OA
ATOM     32  H   UNL     1       1.958  10.254  16.620  0.00  0.00    +0.000 HD
ENDBRANCH  29  31
ENDBRANCH  22  29
TORSDOF 3
ENDMDL
MODEL 5
REMARK VINA RESULT:      -7.6      3.515      8.360
REMARK  Name = 
REMARK  4 active torsions:
REMARK  status: ('A' for Active; 'I' for Inactive)
REMARK    1  A    between atoms: C_1  and  C_2
REMARK    2  A    between atoms: C_8  and  C_9
REMARK    3  A    between atoms: C_28  and  C_29
REMARK    4  A    between atoms: C_29  and  O_31
REMARK                            x       y       z     vdW  Elec       q    Type
REMARK                         _______ _______ _______ _____ _____    ______ ____
ROOT
ATOM      1  C   UNL     1       4.545   7.398  17.683  0.00  0.00    +0.000 C 
ATOM      2  C   UNL     1       3.524   6.468  18.292  0.00  0.00    +0.000 A 
ATOM      3  C   UNL     1       2.487   6.952  19.103  0.00  0.00    +0.000 A 
ATOM      4  N   UNL     1       2.231   8.330  19.235  0.00  0.00    +0.000 N 
ATOM      5  C   UNL     1       1.970   9.087  17.996  0.00  0.00    +0.000 C 
ATOM      6  C   UNL     1       1.277  10.404  18.359  0.00  0.00    +0.000 C 
ATOM      7  C   UNL     1       0.934  10.227  19.801  0.00  0.00    +0.000 A 
ATOM      8  C   UNL     1       0.265  11.115  20.665  0.00  0.00    +0.000 A 
ATOM      9  C   UNL     1       0.095  10.657  21.986  0.00  0.00    +0.000 A 
ATOM     10  C   UNL     1       0.587   9.413  22.401  0.00  0.00    +0.000 A 
ATOM     11  F   UNL     1       0.416   9.042  23.677  0.00  0.00    +0.000 F 
ATOM     12  C   UNL     1       1.279   8.577  21.537  0.00  0.00    +0.000 A 
ATOM     13  C   UNL     1       1.460   8.991  20.229  0.00  0.00    +0.000 A 
ATOM     14  N   UNL     1       1.699   6.089  19.781  0.00  0.00    +0.000 NA
ATOM     15  C   UNL     1       1.811   4.762  19.625  0.00  0.00    +0.000 A 
ATOM     16  C   UNL     1       0.961   3.948  20.369  0.00  0.00    +0.000 A 
ATOM     17  C   UNL     1       0.974   2.558  20.239  0.00  0.00    +0.000 A 
ATOM     18  C   UNL     1       1.838   1.980  19.326  0.00  0.00    +0.000 A 
ATOM     19  F   UNL     1       1.849   0.648  19.178  0.00  0.00    +0.000 F 
ATOM     20  C   UNL     1       2.699   2.764  18.574  0.00  0.00    +0.000 A 
ATOM     21  C   UNL     1       2.730   4.176  18.734  0.00  0.00    +0.000 A 
ATOM     22  C   UNL     1       3.604   5.076  18.080  0.00  0.00    +0.000 A 
ENDROOT
BRANCH   8  23
ATOM     23  C   UNL     1      -0.181  12.481  20.274  0.00  0.00    +0.000 A 
ATOM     24  C   UNL     1      -1.483  12.949  20.512  0.00  0.00    +0.000 A 
ATOM     25  C   UNL     1      -1.917  14.202  20.062  0.00  0.00    +0.000 A 
ATOM     26  C   UNL     1      -1.034  15.051  19.410  0.00  0.00    +0.000 A 
ATOM     27  C   UNL     1       0.280  14.646  19.206  0.00  0.00    +0.000 A 
ATOM     28  C   UNL     1       0.694  13.373  19.621  0.00  0.00    +0.000 A 
ENDBRANCH   8  23
BRANCH  22  29
ATOM     29  C   UNL     1       4.606   4.577  17.101  0.00  0.00    +0.000 C 
ATOM     30  O   UNL     1       5.751   4.301  17.417  0.00  0.00    +0.000 OA
BRANCH  29  31
ATOM     31  O   UNL     1       4.118   4.392  15.859  0.00  0.00    +0.000 OA
ATOM     32  H   UNL     1       4.780   4.395  15.141  0.00  0.00    +0.000 HD
ENDBRANCH  29  31
ENDBRANCH  22  29
TORSDOF 3
ENDMDL
MODEL 6
REMARK VINA RESULT:      -7.4      3.745      9.049
REMARK  Name = 
REMARK  4 active torsions:
REMARK  status: ('A' for Active; 'I' for Inactive)
REMARK    1  A    between atoms: C_1  and  C_2
REMARK    2  A    between atoms: C_8  and  C_9
REMARK    3  A    between atoms: C_28  and  C_29
REMARK    4  A    between atoms: C_29  and  O_31
REMARK                            x       y       z     vdW  Elec       q    Type
REMARK                         _______ _______ _______ _____ _____    ______ ____
ROOT
ATOM      1  C   UNL     1       1.877   4.860  20.966  0.00  0.00    +0.000 C 
ATOM      2  C   UNL     1       2.633   5.472  19.813  0.00  0.00    +0.000 A 
ATOM      3  C   UNL     1       2.367   6.777  19.375  0.00  0.00    +0.000 A 
ATOM      4  N   UNL     1       1.528   7.646  20.100  0.00  0.00    +0.000 N 
ATOM      5  C   UNL     1       1.887   7.908  21.507  0.00  0.00    +0.000 C 
ATOM      6  C   UNL     1       1.171   9.180  21.970  0.00  0.00    +0.000 C 
ATOM      7  C   UNL     1       0.621   9.747  20.702  0.00  0.00    +0.000 A 
ATOM      8  C   UNL     1      -0.119  10.929  20.512  0.00  0.00    +0.000 A 
ATOM      9  C   UNL     1      -0.504  11.191  19.183  0.00  0.00    +0.000 A 
ATOM     10  C   UNL     1      -0.186  10.313  18.139  0.00  0.00    +0.000 A 
ATOM     11  F   UNL     1      -0.600  10.605  16.898  0.00  0.00    +0.000 F 
ATOM     12  C   UNL     1       0.510   9.134  18.364  0.00  0.00    +0.000 A 
ATOM     13  C   UNL     1       0.910   8.846  19.657  0.00  0.00    +0.000 A 
ATOM     14  N   UNL     1       2.924   7.236  18.232  0.00  0.00    +0.000 NA
ATOM     15  C   UNL     1       3.815   6.510  17.543  0.00  0.00    +0.000 A 
ATOM     16  C   UNL     1       4.334   7.058  16.373  0.00  0.00    +0.000 A 
ATOM     17  C   UNL     1       5.300   6.395  15.615  0.00  0.00    +0.000 A 
ATOM     18  C   UNL     1       5.771   5.171  16.055  0.00  0.00    +0.000 A 
ATOM     19  F   UNL     1       6.712   4.532  15.347  0.00  0.00    +0.000 F 
ATOM     20  C   UNL     1       5.272   4.597  17.214  0.00  0.00    +0.000 A 
ATOM     21  C   UNL     1       4.252   5.240  17.967  0.00  0.00    +0.000 A 
ATOM     22  C   UNL     1       3.615   4.730  19.122  0.00  0.00    +0.000 A 
ENDROOT
BRANCH   8  23
ATOM     23  C   UNL     1      -0.553  11.828  21.618  0.00  0.00    +0.000 A 
ATOM     24  C   UNL     1      -1.465  11.424  22.606  0.00  0.00    +0.000 A 
ATOM     25  C   UNL     1      -1.934  12.304  23.590  0.00  0.00    +0.000 A 
ATOM     26  C   UNL     1      -1.454  13.605  23.646  0.00  0.00    +0.000 A 
ATOM     27  C   UNL     1      -0.508  14.025  22.717  0.00  0.00    +0.000 A 
ATOM     28  C   UNL     1      -0.076  13.151  21.710  0.00  0.00    +0.000 A 
ENDBRANCH   8  23
BRANCH  22  29
ATOM     29  C   UNL     1       4.005   3.407  19.678  0.00  0.00    +0.000 C 
ATOM     30  O   UNL     1       4.979   3.257  20.396  0.00  0.00    +0.000 OA
BRANCH  29  31
ATOM     31  O   UNL     1       3.152   2.409  19.373  0.00  0.00    +0.000 OA
ATOM     32  H   UNL     1       3.405   1.524  19.698  0.00  0.00    +0.000 HD
ENDBRANCH  29  31
ENDBRANCH  22  29
TORSDOF 3
ENDMDL
MODEL 7
REMARK VINA RESULT:      -7.3      3.160      5.239
REMARK  Name = 
REMARK  4 active torsions:
REMARK  status: ('A' for Active; 'I' for Inactive)
REMARK    1  A    between atoms: C_1  and  C_2
REMARK    2  A    between atoms: C_8  and  C_9
REMARK    3  A    between atoms: C_28  and  C_29
REMARK    4  A    between atoms: C_29  and  O_31
REMARK                            x       y       z     vdW  Elec       q    Type
REMARK                         _______ _______ _______ _____ _____    ______ ____
ROOT
ATOM      1  C   UNL     1      -4.435  12.631  19.738  0.00  0.00    +0.000 C 
ATOM      2  C   UNL     1      -3.691  13.327  20.850  0.00  0.00    +0.000 A 
ATOM      3  C   UNL     1      -2.519  12.783  21.397  0.00  0.00    +0.000 A 
ATOM      4  N   UNL     1      -1.877  11.672  20.817  0.00  0.00    +0.000 N 
ATOM      5  C   UNL     1      -1.476  11.791  19.401  0.00  0.00    +0.000 C 
ATOM      6  C   UNL     1      -0.421  10.723  19.097  0.00  0.00    +0.000 C 
ATOM      7  C   UNL     1      -0.069  10.191  20.446  0.00  0.00    +0.000 A 
ATOM      8  C   UNL     1       0.868   9.196  20.786  0.00  0.00    +0.000 A 
ATOM      9  C   UNL     1       0.968   8.907  22.160  0.00  0.00    +0.000 A 
ATOM     10  C   UNL     1       0.165   9.556  23.108  0.00  0.00    +0.000 A 
ATOM     11  F   UNL     1       0.289   9.222  24.400  0.00  0.00    +0.000 F 
ATOM     12  C   UNL     1      -0.778  10.504  22.738  0.00  0.00    +0.000 A 
ATOM     13  C   UNL     1      -0.901  10.817  21.396  0.00  0.00    +0.000 A 
ATOM     14  N   UNL     1      -1.974  13.326  22.508  0.00  0.00    +0.000 NA
ATOM     15  C   UNL     1      -2.464  14.446  23.057  0.00  0.00    +0.000 A 
ATOM     16  C   UNL     1      -1.844  14.932  24.204  0.00  0.00    +0.000 A 
ATOM     17  C   UNL     1      -2.256  16.115  24.819  0.00  0.00    +0.000 A 
ATOM     18  C   UNL     1      -3.294  16.835  24.254  0.00  0.00    +0.000 A 
ATOM     19  F   UNL     1      -3.689  17.982  24.823  0.00  0.00    +0.000 F 
ATOM     20  C   UNL     1      -3.935  16.375  23.114  0.00  0.00    +0.000 A 
ATOM     21  C   UNL     1      -3.556  15.146  22.509  0.00  0.00    +0.000 A 
ATOM     22  C   UNL     1      -4.172  14.538  21.390  0.00  0.00    +0.000 A 
ENDROOT
BRANCH   8  23
ATOM     23  C   UNL     1       1.661   8.423  19.790  0.00  0.00    +0.000 A 
ATOM     24  C   UNL     1       1.987   8.933  18.523  0.00  0.00    +0.000 A 
ATOM     25  C   UNL     1       2.657   8.165  17.562  0.00  0.00    +0.000 A 
ATOM     26  C   UNL     1       3.075   6.877  17.868  0.00  0.00    +0.000 A 
ATOM     27  C   UNL     1       2.820   6.359  19.132  0.00  0.00    +0.000 A 
ATOM     28  C   UNL     1       2.111   7.117  20.073  0.00  0.00    +0.000 A 
ENDBRANCH   8  23
BRANCH  22  29
ATOM     29  C   UNL     1      -5.323  15.193  20.713  0.00  0.00    +0.000 C 
ATOM     30  O   UNL     1      -6.476  15.031  21.076  0.00  0.00    +0.000 OA
BRANCH  29  31
ATOM     31  O   UNL     1      -4.973  16.028  19.715  0.00  0.00    +0.000 OA
ATOM     32  H   UNL     1      -4.834  15.609  18.844  0.00  0.00    +0.000 HD
ENDBRANCH  29  31
ENDBRANCH  22  29
TORSDOF 3
ENDMDL
MODEL 8
REMARK VINA RESULT:      -7.3      3.309      5.543
REMARK  Name = 
REMARK  4 active torsions:
REMARK  status: ('A' for Active; 'I' for Inactive)
REMARK    1  A    between atoms: C_1  and  C_2
REMARK    2  A    between atoms: C_8  and  C_9
REMARK    3  A    between atoms: C_28  and  C_29
REMARK    4  A    between atoms: C_29  and  O_31
REMARK                            x       y       z     vdW  Elec       q    Type
REMARK                         _______ _______ _______ _____ _____    ______ ____
ROOT
ATOM      1  C   UNL     1      -4.647  12.803  20.265  0.00  0.00    +0.000 C 
ATOM      2  C   UNL     1      -3.858  13.444  21.379  0.00  0.00    +0.000 A 
ATOM      3  C   UNL     1      -2.660  12.881  21.843  0.00  0.00    +0.000 A 
ATOM      4  N   UNL     1      -2.037  11.808  21.175  0.00  0.00    +0.000 N 
ATOM      5  C   UNL     1      -1.700  12.008  19.752  0.00  0.00    +0.000 C 
ATOM      6  C   UNL     1      -0.654  10.967  19.343  0.00  0.00    +0.000 C 
ATOM      7  C   UNL     1      -0.239  10.365  20.645  0.00  0.00    +0.000 A 
ATOM      8  C   UNL     1       0.718   9.361  20.887  0.00  0.00    +0.000 A 
ATOM      9  C   UNL     1       0.880   8.999  22.238  0.00  0.00    +0.000 A 
ATOM     10  C   UNL     1       0.117   9.588  23.254  0.00  0.00    +0.000 A 
ATOM     11  F   UNL     1       0.301   9.185  24.519  0.00  0.00    +0.000 F 
ATOM     12  C   UNL     1      -0.847  10.547  22.979  0.00  0.00    +0.000 A 
ATOM     13  C   UNL     1      -1.031  10.932  21.663  0.00  0.00    +0.000 A 
ATOM     14  N   UNL     1      -2.069  13.367  22.957  0.00  0.00    +0.000 NA
ATOM     15  C   UNL     1      -2.541  14.451  23.588  0.00  0.00    +0.000 A 
ATOM     16  C   UNL     1      -1.873  14.879  24.732  0.00  0.00    +0.000 A 
ATOM     17  C   UNL     1      -2.264  16.024  25.428  0.00  0.00    +0.000 A 
ATOM     18  C   UNL     1      -3.330  16.764  24.950  0.00  0.00    +0.000 A 
ATOM     19  F   UNL     1      -3.706  17.876  25.598  0.00  0.00    +0.000 F 
ATOM     20  C   UNL     1      -4.018  16.363  23.816  0.00  0.00    +0.000 A 
ATOM     21  C   UNL     1      -3.660  15.171  23.128  0.00  0.00    +0.000 A 
ATOM     22  C   UNL     1      -4.321  14.620  22.006  0.00  0.00    +0.000 A 
ENDROOT
BRANCH   8  23
ATOM     23  C   UNL     1       1.471   8.650  19.816  0.00  0.00    +0.000 A 
ATOM     24  C   UNL     1       1.993   7.358  19.990  0.00  0.00    +0.000 A 
ATOM     25  C   UNL     1       2.775   6.734  19.009  0.00  0.00    +0.000 A 
ATOM     26  C   UNL     1       3.005   7.367  17.796  0.00  0.00    +0.000 A 
ATOM     27  C   UNL     1       2.456   8.624  17.566  0.00  0.00    +0.000 A 
ATOM     28  C   UNL     1       1.712   9.260  18.569  0.00  0.00    +0.000 A 
ENDBRANCH   8  23
BRANCH  22  29
ATOM     29  C   UNL     1      -5.506  15.301  21.418  0.00  0.00    +0.000 C 
ATOM     30  O   UNL     1      -5.419  16.072  20.477  0.00  0.00    +0.000 OA
BRANCH  29  31
ATOM     31  O   UNL     1      -6.680  14.937  21.969  0.00  0.00    +0.000 OA
ATOM     32  H   UNL     1      -7.276  15.671  22.214  0.00  0.00    +0.000 HD
ENDBRANCH  29  31
ENDBRANCH  22  29
TORSDOF 3
ENDMDL
