MODEL 1
REMARK VINA RESULT:      -7.8      0.000      0.000
REMARK  Name = 
REMARK  4 active torsions:
REMARK  status: ('A' for Active; 'I' for Inactive)
REMARK    1  A    between atoms: C_1  and  C_2
REMARK    2  A    between atoms: C_2  and  N_3
REMARK    3  A    between atoms: C_11  and  N_12
REMARK    4  A    between atoms: C_13  and  C_14
REMARK                            x       y       z     vdW  Elec       q    Type
REMARK                         _______ _______ _______ _____ _____    ______ ____
ROOT
ATOM      1  N   UNL     1       5.796   4.696  15.281  0.00  0.00    +0.000 N 
ATOM      2  C   UNL     1       7.180   5.151  15.257  0.00  0.00    +0.000 C 
ATOM      3  N   UNL     1       7.466   6.013  16.371  0.00  0.00    +0.000 NA
ATOM      4  S   UNL     1       7.413   5.173  17.815  0.00  0.00    +0.000 S 
ATOM      5  O   UNL     1       7.453   6.178  18.852  0.00  0.00    +0.000 OA
ATOM      6  O   UNL     1       8.355   4.081  17.753  0.00  0.00    +0.000 OA
ATOM      7  C   UNL     1       5.790   4.509  17.740  0.00  0.00    +0.000 A 
ATOM      8  C   UNL     1       5.139   4.257  18.961  0.00  0.00    +0.000 A 
ATOM      9  C   UNL     1       3.806   3.869  18.972  0.00  0.00    +0.000 A 
ATOM     10  C   UNL     1       3.165   3.694  17.746  0.00  0.00    +0.000 A 
ATOM     11  C   UNL     1       3.836   3.937  16.535  0.00  0.00    +0.000 A 
ATOM     12  C   UNL     1       5.173   4.366  16.488  0.00  0.00    +0.000 A 
ATOM     13  H   UNL     1       6.888   6.847  16.414  0.00  0.00    +0.000 HD
ENDROOT
BRANCH   9  14
ATOM     14  N   UNL     1       3.040   3.687  20.142  0.00  0.00    +0.000 N 
ATOM     15  C   UNL     1       2.087   2.709  20.378  0.00  0.00    +0.000 C 
ATOM     16  C   UNL     1       1.546   2.737  21.783  0.00  0.00    +0.000 C 
ATOM     17  O   UNL     1       1.699   1.862  19.581  0.00  0.00    +0.000 OA
ATOM     18  H   UNL     1       3.246   4.313  20.910  0.00  0.00    +0.000 HD
ENDBRANCH   9  14
BRANCH   1  20
ATOM     19  C   UNL     1       6.500   3.896  13.029  0.00  0.00    +0.000 C 
ATOM     20  C   UNL     1       5.360   4.045  14.029  0.00  0.00    +0.000 C 
ENDBRANCH   1  20
TORSDOF 2
ENDMDL
MODEL 2
REMARK VINA RESULT:      -7.0      2.663      6.069
REMARK  Name = 
REMARK  4 active torsions:
REMARK  status: ('A' for Active; 'I' for Inactive)
REMARK    1  A    between atoms: C_1  and  C_2
REMARK    2  A    between atoms: C_2  and  N_3
REMARK    3  A    between atoms: C_11  and  N_12
REMARK    4  A    between atoms: C_13  and  C_14
REMARK                            x       y       z     vdW  Elec       q    Type
REMARK                         _______ _______ _______ _____ _____    ______ ____
ROOT
ATOM      1  N   UNL     1       2.707   5.745  18.985  0.00  0.00    +0.000 N 
ATOM      2  C   UNL     1       2.304   4.592  19.780  0.00  0.00    +0.000 C 
ATOM      3  N   UNL     1       2.371   3.379  19.013  0.00  0.00    +0.000 NA
ATOM      4  S   UNL     1       3.952   2.990  18.633  0.00  0.00    +0.000 S 
ATOM      5  O   UNL     1       3.868   1.925  17.660  0.00  0.00    +0.000 OA
ATOM      6  O   UNL     1       4.708   2.868  19.856  0.00  0.00    +0.000 OA
ATOM      7  C   UNL     1       4.454   4.459  17.814  0.00  0.00    +0.000 A 
ATOM      8  C   UNL     1       5.463   4.341  16.840  0.00  0.00    +0.000 A 
ATOM      9  C   UNL     1       5.805   5.435  16.057  0.00  0.00    +0.000 A 
ATOM     10  C   UNL     1       5.156   6.645  16.302  0.00  0.00    +0.000 A 
ATOM     11  C   UNL     1       4.161   6.746  17.290  0.00  0.00    +0.000 A 
ATOM     12  C   UNL     1       3.764   5.652  18.076  0.00  0.00    +0.000 A 
ATOM     13  H   UNL     1       1.786   3.375  18.182  0.00  0.00    +0.000 HD
ENDROOT
BRANCH   9  14
ATOM     14  N   UNL     1       6.731   5.395  14.994  0.00  0.00    +0.000 N 
ATOM     15  C   UNL     1       6.635   4.657  13.825  0.00  0.00    +0.000 C 
ATOM     16  C   UNL     1       7.748   4.944  12.852  0.00  0.00    +0.000 C 
ATOM     17  O   UNL     1       5.750   3.859  13.537  0.00  0.00    +0.000 OA
ATOM     18  H   UNL     1       7.529   6.011  15.077  0.00  0.00    +0.000 HD
ENDBRANCH   9  14
BRANCH   1  20
ATOM     19  C   UNL     1       1.470   6.893  20.818  0.00  0.00    +0.000 C 
ATOM     20  C   UNL     1       2.394   7.043  19.615  0.00  0.00    +0.000 C 
ENDBRANCH   1  20
TORSDOF 2
ENDMDL
MODEL 3
REMARK VINA RESULT:      -7.0      3.887      5.358
REMARK  Name = 
REMARK  4 active torsions:
REMARK  status: ('A' for Active; 'I' for Inactive)
REMARK    1  A    between atoms: C_1  and  C_2
REMARK    2  A    between atoms: C_2  and  N_3
REMARK    3  A    between atoms: C_11  and  N_12
REMARK    4  A    between atoms: C_13  and  C_14
REMARK                            x       y       z     vdW  Elec       q    Type
REMARK                         _______ _______ _______ _____ _____    ______ ____
ROOT
ATOM      1  N   UNL     1       3.550   3.853  18.247  0.00  0.00    +0.000 N 
ATOM      2  C   UNL     1       3.408   2.484  18.724  0.00  0.00    +0.000 C 
ATOM      3  N   UNL     1       3.467   2.421  20.158  0.00  0.00    +0.000 NA
ATOM      4  S   UNL     1       2.137   3.159  20.852  0.00  0.00    +0.000 S 
ATOM      5  O   UNL     1       2.440   3.262  22.261  0.00  0.00    +0.000 OA
ATOM      6  O   UNL     1       0.941   2.522  20.358  0.00  0.00    +0.000 OA
ATOM      7  C   UNL     1       2.250   4.758  20.136  0.00  0.00    +0.000 A 
ATOM      8  C   UNL     1       1.719   5.833  20.873  0.00  0.00    +0.000 A 
ATOM      9  C   UNL     1       1.903   7.136  20.432  0.00  0.00    +0.000 A 
ATOM     10  C   UNL     1       2.578   7.331  19.228  0.00  0.00    +0.000 A 
ATOM     11  C   UNL     1       3.088   6.243  18.498  0.00  0.00    +0.000 A 
ATOM     12  C   UNL     1       2.953   4.914  18.933  0.00  0.00    +0.000 A 
ATOM     13  H   UNL     1       4.331   2.777  20.558  0.00  0.00    +0.000 HD
ENDROOT
BRANCH   9  14
ATOM     14  N   UNL     1       1.495   8.283  21.146  0.00  0.00    +0.000 N 
ATOM     15  C   UNL     1       0.227   8.565  21.627  0.00  0.00    +0.000 C 
ATOM     16  C   UNL     1       0.174   9.826  22.449  0.00  0.00    +0.000 C 
ATOM     17  O   UNL     1      -0.783   7.889  21.463  0.00  0.00    +0.000 OA
ATOM     18  H   UNL     1       2.224   8.948  21.370  0.00  0.00    +0.000 HD
ENDBRANCH   9  14
BRANCH   1  20
ATOM     19  C   UNL     1       5.263   4.015  16.445  0.00  0.00    +0.000 C 
ATOM     20  C   UNL     1       3.780   3.957  16.793  0.00  0.00    +0.000 C 
ENDBRANCH   1  20
TORSDOF 2
ENDMDL
MODEL 4
REMARK VINA RESULT:      -6.9      2.572      6.299
REMARK  Name = 
REMARK  4 active torsions:
REMARK  status: ('A' for Active; 'I' for Inactive)
REMARK    1  A    between atoms: C_1  and  C_2
REMARK    2  A    between atoms: C_2  and  N_3
REMARK    3  A    between atoms: C_11  and  N_12
REMARK    4  A    between atoms: C_13  and  C_14
REMARK                            x       y       z     vdW  Elec       q    Type
REMARK                         _______ _______ _______ _____ _____    ______ ____
ROOT
ATOM      1  N   UNL     1       2.186   6.001  19.607  0.00  0.00    +0.000 N 
ATOM      2  C   UNL     1       1.662   4.871  20.364  0.00  0.00    +0.000 C 
ATOM      3  N   UNL     1       1.419   3.739  19.512  0.00  0.00    +0.000 NA
ATOM      4  S   UNL     1       2.849   3.112  18.916  0.00  0.00    +0.000 S 
ATOM      5  O   UNL     1       2.464   2.171  17.889  0.00  0.00    +0.000 OA
ATOM      6  O   UNL     1       3.697   2.748  20.026  0.00  0.00    +0.000 OA
ATOM      7  C   UNL     1       3.526   4.537  18.145  0.00  0.00    +0.000 A 
ATOM      8  C   UNL     1       4.385   4.330  17.050  0.00  0.00    +0.000 A 
ATOM      9  C   UNL     1       4.839   5.413  16.309  0.00  0.00    +0.000 A 
ATOM     10  C   UNL     1       4.457   6.691  16.715  0.00  0.00    +0.000 A 
ATOM     11  C   UNL     1       3.610   6.878  17.821  0.00  0.00    +0.000 A 
ATOM     12  C   UNL     1       3.103   5.804  18.572  0.00  0.00    +0.000 A 
ATOM     13  H   UNL     1       0.758   3.915  18.761  0.00  0.00    +0.000 HD
ENDROOT
BRANCH   9  14
ATOM     14  N   UNL     1       5.621   5.305  15.140  0.00  0.00    +0.000 N 
ATOM     15  C   UNL     1       6.942   4.896  15.048  0.00  0.00    +0.000 C 
ATOM     16  C   UNL     1       7.429   4.785  13.628  0.00  0.00    +0.000 C 
ATOM     17  O   UNL     1       7.683   4.611  15.983  0.00  0.00    +0.000 OA
ATOM     18  H   UNL     1       5.147   5.504  14.268  0.00  0.00    +0.000 HD
ENDBRANCH   9  14
BRANCH   1  20
ATOM     19  C   UNL     1       0.874   7.516  21.088  0.00  0.00    +0.000 C 
ATOM     20  C   UNL     1       2.190   7.271  20.359  0.00  0.00    +0.000 C 
ENDBRANCH   1  20
TORSDOF 2
ENDMDL
MODEL 5
REMARK VINA RESULT:      -6.6      3.853      4.611
REMARK  Name = 
REMARK  4 active torsions:
REMARK  status: ('A' for Active; 'I' for Inactive)
REMARK    1  A    between atoms: C_1  and  C_2
REMARK    2  A    between atoms: C_2  and  N_3
REMARK    3  A    between atoms: C_11  and  N_12
REMARK    4  A    between atoms: C_13  and  C_14
REMARK                            x       y       z     vdW  Elec       q    Type
REMARK                         _______ _______ _______ _____ _____    ______ ____
ROOT
ATOM      1  N   UNL     1       5.106   4.814  16.444  0.00  0.00    +0.000 N 
ATOM      2  C   UNL     1       4.981   3.365  16.525  0.00  0.00    +0.000 C 
ATOM      3  N   UNL     1       4.615   2.945  17.849  0.00  0.00    +0.000 NA
ATOM      4  S   UNL     1       3.065   3.438  18.234  0.00  0.00    +0.000 S 
ATOM      5  O   UNL     1       2.918   3.193  19.650  0.00  0.00    +0.000 OA
ATOM      6  O   UNL     1       2.150   2.905  17.253  0.00  0.00    +0.000 OA
ATOM      7  C   UNL     1       3.207   5.169  17.976  0.00  0.00    +0.000 A 
ATOM      8  C   UNL     1       2.363   6.004  18.731  0.00  0.00    +0.000 A 
ATOM      9  C   UNL     1       2.524   7.382  18.681  0.00  0.00    +0.000 A 
ATOM     10  C   UNL     1       3.503   7.898  17.832  0.00  0.00    +0.000 A 
ATOM     11  C   UNL     1       4.327   7.047  17.074  0.00  0.00    +0.000 A 
ATOM     12  C   UNL     1       4.217   5.647  17.128  0.00  0.00    +0.000 A 
ATOM     13  H   UNL     1       5.274   3.218  18.573  0.00  0.00    +0.000 HD
ENDROOT
BRANCH   9  14
ATOM     14  N   UNL     1       1.796   8.298  19.470  0.00  0.00    +0.000 N 
ATOM     15  C   UNL     1       0.957   9.307  19.026  0.00  0.00    +0.000 C 
ATOM     16  C   UNL     1       0.247  10.020  20.146  0.00  0.00    +0.000 C 
ATOM     17  O   UNL     1       0.746   9.619  17.859  0.00  0.00    +0.000 OA
ATOM     18  H   UNL     1       1.860   8.169  20.472  0.00  0.00    +0.000 HD
ENDBRANCH   9  14
BRANCH   1  20
ATOM     19  C   UNL     1       5.913   4.175  14.175  0.00  0.00    +0.000 C 
ATOM     20  C   UNL     1       5.748   5.289  15.202  0.00  0.00    +0.000 C 
ENDBRANCH   1  20
TORSDOF 2
ENDMDL
MODEL 6
REMARK VINA RESULT:      -6.5      4.099      5.517
REMARK  Name = 
REMARK  4 active torsions:
REMARK  status: ('A' for Active; 'I' for Inactive)
REMARK    1  A    between atoms: C_1  and  C_2
REMARK    2  A    between atoms: C_2  and  N_3
REMARK    3  A    between atoms: C_11  and  N_12
REMARK    4  A    between atoms: C_13  and  C_14
REMARK                            x       y       z     vdW  Elec       q    Type
REMARK                         _______ _______ _______ _____ _____    ______ ____
ROOT
ATOM      1  N   UNL     1       3.964   4.698  18.518  0.00  0.00    +0.000 N 
ATOM      2  C   UNL     1       4.044   3.272  18.807  0.00  0.00    +0.000 C 
ATOM      3  N   UNL     1       3.854   3.011  20.207  0.00  0.00    +0.000 NA
ATOM      4  S   UNL     1       2.290   3.364  20.681  0.00  0.00    +0.000 S 
ATOM      5  O   UNL     1       2.301   3.315  22.126  0.00  0.00    +0.000 OA
ATOM      6  O   UNL     1       1.374   2.585  19.884  0.00  0.00    +0.000 OA
ATOM      7  C   UNL     1       2.175   5.042  20.178  0.00  0.00    +0.000 A 
ATOM      8  C   UNL     1       1.294   5.871  20.897  0.00  0.00    +0.000 A 
ATOM      9  C   UNL     1       1.263   7.236  20.644  0.00  0.00    +0.000 A 
ATOM     10  C   UNL     1       2.086   7.735  19.635  0.00  0.00    +0.000 A 
ATOM     11  C   UNL     1       2.948   6.888  18.918  0.00  0.00    +0.000 A 
ATOM     12  C   UNL     1       3.034   5.509  19.172  0.00  0.00    +0.000 A 
ATOM     13  H   UNL     1       4.530   3.467  20.813  0.00  0.00    +0.000 HD
ENDROOT
BRANCH   9  14
ATOM     14  N   UNL     1       0.489   8.163  21.374  0.00  0.00    +0.000 N 
ATOM     15  C   UNL     1       0.945   9.116  22.270  0.00  0.00    +0.000 C 
ATOM     16  C   UNL     1      -0.147  10.019  22.780  0.00  0.00    +0.000 C 
ATOM     17  O   UNL     1       2.105   9.280  22.632  0.00  0.00    +0.000 OA
ATOM     18  H   UNL     1      -0.505   8.159  21.182  0.00  0.00    +0.000 HD
ENDBRANCH   9  14
BRANCH   1  20
ATOM     19  C   UNL     1       5.757   4.402  16.813  0.00  0.00    +0.000 C 
ATOM     20  C   UNL     1       4.427   5.058  17.163  0.00  0.00    +0.000 C 
ENDBRANCH   1  20
TORSDOF 2
ENDMDL
MODEL 7
REMARK VINA RESULT:      -6.5      2.459      3.437
REMARK  Name = 
REMARK  4 active torsions:
REMARK  status: ('A' for Active; 'I' for Inactive)
REMARK    1  A    between atoms: C_1  and  C_2
REMARK    2  A    between atoms: C_2  and  N_3
REMARK    3  A    between atoms: C_11  and  N_12
REMARK    4  A    between atoms: C_13  and  C_14
REMARK                            x       y       z     vdW  Elec       q    Type
REMARK                         _______ _______ _______ _____ _____    ______ ____
ROOT
ATOM      1  N   UNL     1       7.324   6.015  17.689  0.00  0.00    +0.000 N 
ATOM      2  C   UNL     1       7.672   6.543  16.376  0.00  0.00    +0.000 C 
ATOM      3  N   UNL     1       7.297   5.631  15.330  0.00  0.00    +0.000 NA
ATOM      4  S   UNL     1       5.635   5.499  15.211  0.00  0.00    +0.000 S 
ATOM      5  O   UNL     1       5.396   4.381  14.327  0.00  0.00    +0.000 OA
ATOM      6  O   UNL     1       5.079   6.809  14.975  0.00  0.00    +0.000 OA
ATOM      7  C   UNL     1       5.234   5.013  16.850  0.00  0.00    +0.000 A 
ATOM      8  C   UNL     1       4.073   4.238  17.026  0.00  0.00    +0.000 A 
ATOM      9  C   UNL     1       3.779   3.702  18.273  0.00  0.00    +0.000 A 
ATOM     10  C   UNL     1       4.635   3.998  19.333  0.00  0.00    +0.000 A 
ATOM     11  C   UNL     1       5.782   4.787  19.139  0.00  0.00    +0.000 A 
ATOM     12  C   UNL     1       6.131   5.315  17.885  0.00  0.00    +0.000 A 
ATOM     13  H   UNL     1       7.731   4.715  15.398  0.00  0.00    +0.000 HD
ENDROOT
BRANCH   9  14
ATOM     14  N   UNL     1       2.696   2.835  18.531  0.00  0.00    +0.000 N 
ATOM     15  C   UNL     1       1.485   3.157  19.123  0.00  0.00    +0.000 C 
ATOM     16  C   UNL     1       0.510   2.010  19.134  0.00  0.00    +0.000 C 
ATOM     17  O   UNL     1       1.166   4.248  19.582  0.00  0.00    +0.000 OA
ATOM     18  H   UNL     1       2.801   1.884  18.202  0.00  0.00    +0.000 HD
ENDBRANCH   9  14
BRANCH   1  20
ATOM     19  C   UNL     1       8.362   8.165  18.404  0.00  0.00    +0.000 C 
ATOM     20  C   UNL     1       7.929   6.761  18.810  0.00  0.00    +0.000 C 
ENDBRANCH   1  20
TORSDOF 2
ENDMDL
MODEL 8
REMARK VINA RESULT:      -6.5      3.685      4.500
REMARK  Name = 
REMARK  4 active torsions:
REMARK  status: ('A' for Active; 'I' for Inactive)
REMARK    1  A    between atoms: C_1  and  C_2
REMARK    2  A    between atoms: C_2  and  N_3
REMARK    3  A    between atoms: C_11  and  N_12
REMARK    4  A    between atoms: C_13  and  C_14
REMARK                            x       y       z     vdW  Elec       q    Type
REMARK                         _______ _______ _______ _____ _____    ______ ____
ROOT
ATOM      1  N   UNL     1       5.282   4.664  16.730  0.00  0.00    +0.000 N 
ATOM      2  C   UNL     1       5.033   3.235  16.861  0.00  0.00    +0.000 C 
ATOM      3  N   UNL     1       4.368   2.932  18.099  0.00  0.00    +0.000 NA
ATOM      4  S   UNL     1       2.815   3.548  18.118  0.00  0.00    +0.000 S 
ATOM      5  O   UNL     1       2.358   3.412  19.483  0.00  0.00    +0.000 OA
ATOM      6  O   UNL     1       2.085   3.008  16.997  0.00  0.00    +0.000 OA
ATOM      7  C   UNL     1       3.140   5.244  17.803  0.00  0.00    +0.000 A 
ATOM      8  C   UNL     1       2.224   6.182  18.315  0.00  0.00    +0.000 A 
ATOM      9  C   UNL     1       2.497   7.540  18.225  0.00  0.00    +0.000 A 
ATOM     10  C   UNL     1       3.667   7.932  17.576  0.00  0.00    +0.000 A 
ATOM     11  C   UNL     1       4.563   6.980  17.058  0.00  0.00    +0.000 A 
ATOM     12  C   UNL     1       4.337   5.597  17.163  0.00  0.00    +0.000 A 
ATOM     13  H   UNL     1       4.881   3.213  18.929  0.00  0.00    +0.000 HD
ENDROOT
BRANCH   9  14
ATOM     14  N   UNL     1       1.694   8.553  18.790  0.00  0.00    +0.000 N 
ATOM     15  C   UNL     1       1.312   8.678  20.116  0.00  0.00    +0.000 C 
ATOM     16  C   UNL     1       0.550   9.947  20.394  0.00  0.00    +0.000 C 
ATOM     17  O   UNL     1       1.559   7.892  21.024  0.00  0.00    +0.000 OA
ATOM     18  H   UNL     1       1.406   9.293  18.163  0.00  0.00    +0.000 HD
ENDBRANCH   9  14
BRANCH   1  20
ATOM     19  C   UNL     1       5.959   4.163  14.385  0.00  0.00    +0.000 C 
ATOM     20  C   UNL     1       6.203   5.010  15.628  0.00  0.00    +0.000 C 
ENDBRANCH   1  20
TORSDOF 2
ENDMDL
MODEL 9
REMARK VINA RESULT:      -6.4      4.056      5.321
REMARK  Name = 
REMARK  4 active torsions:
REMARK  status: ('A' for Active; 'I' for Inactive)
REMARK    1  A    between atoms: C_1  and  C_2
REMARK    2  A    between atoms: C_2  and  N_3
REMARK    3  A    between atoms: C_11  and  N_12
REMARK    4  A    between atoms: C_13  and  C_14
REMARK                            x       y       z     vdW  Elec       q    Type
REMARK                         _______ _______ _______ _____ _____    ______ ____
ROOT
ATOM      1  N   UNL     1       3.995   3.986  17.885  0.00  0.00    +0.000 N 
ATOM      2  C   UNL     1       3.777   2.647  18.414  0.00  0.00    +0.000 C 
ATOM      3  N   UNL     1       3.639   2.666  19.845  0.00  0.00    +0.000 NA
ATOM      4  S   UNL     1       2.234   3.444  20.307  0.00  0.00    +0.000 S 
ATOM      5  O   UNL     1       2.343   3.628  21.736  0.00  0.00    +0.000 OA
ATOM      6  O   UNL     1       1.110   2.782  19.691  0.00  0.00    +0.000 OA
ATOM      7  C   UNL     1       2.458   5.000  19.524  0.00  0.00    +0.000 A 
ATOM      8  C   UNL     1       1.841   6.116  20.120  0.00  0.00    +0.000 A 
ATOM      9  C   UNL     1       2.095   7.391  19.634  0.00  0.00    +0.000 A 
ATOM     10  C   UNL     1       2.930   7.516  18.524  0.00  0.00    +0.000 A 
ATOM     11  C   UNL     1       3.526   6.387  17.934  0.00  0.00    +0.000 A 
ATOM     12  C   UNL     1       3.320   5.086  18.421  0.00  0.00    +0.000 A 
ATOM     13  H   UNL     1       4.443   3.044  20.337  0.00  0.00    +0.000 HD
ENDROOT
BRANCH   9  14
ATOM     14  N   UNL     1       1.605   8.578  20.219  0.00  0.00    +0.000 N 
ATOM     15  C   UNL     1       0.868   9.575  19.602  0.00  0.00    +0.000 C 
ATOM     16  C   UNL     1       0.407  10.646  20.556  0.00  0.00    +0.000 C 
ATOM     17  O   UNL     1       0.562   9.628  18.416  0.00  0.00    +0.000 OA
ATOM     18  H   UNL     1       1.772   8.685  21.212  0.00  0.00    +0.000 HD
ENDBRANCH   9  14
BRANCH   1  20
ATOM     19  C   UNL     1       5.939   4.041  16.327  0.00  0.00    +0.000 C 
ATOM     20  C   UNL     1       4.422   4.006  16.472  0.00  0.00    +0.000 C 
ENDBRANCH   1  20
TORSDOF 2
ENDMDL
