MODEL 1
REMARK VINA RESULT:      -7.9      0.000      0.000
REMARK  Name = 
REMARK  6 active torsions:
REMARK  status: ('A' for Active; 'I' for Inactive)
REMARK    1  A    between atoms: C_1  and  C_2
REMARK    2  A    between atoms: C_2  and  C_3
REMARK    3  A    between atoms: C_3  and  C_4
REMARK    4  A    between atoms: C_4  and  N_5
REMARK    5  A    between atoms: C_9  and  S_10
REMARK    6  A    between atoms: S_10  and  C_13
REMARK                            x       y       z     vdW  Elec       q    Type
REMARK                         _______ _______ _______ _____ _____    ______ ____
ROOT
ATOM      1  N   UNL     1       3.010   4.760  20.506  0.00  0.00    +0.000 N 
ATOM      2  C   UNL     1       2.998   5.827  19.637  0.00  0.00    +0.000 A 
ATOM      3  N   UNL     1       2.189   6.843  19.863  0.00  0.00    +0.000 NA
ATOM      4  C   UNL     1       2.193   7.914  18.999  0.00  0.00    +0.000 A 
ATOM      5  C   UNL     1       1.552   9.137  18.957  0.00  0.00    +0.000 A 
ATOM      6  N   UNL     1       1.895   9.814  17.809  0.00  0.00    +0.000 NA
ATOM      7  N   UNL     1       2.767   9.074  17.137  0.00  0.00    +0.000 NA
ATOM      8  N   UNL     1       2.980   7.953  17.849  0.00  0.00    +0.000 N 
ATOM      9  C   UNL     1       3.841   6.887  17.546  0.00  0.00    +0.000 A 
ATOM     10  C   UNL     1       4.703   6.692  16.443  0.00  0.00    +0.000 A 
ATOM     11  C   UNL     1       5.350   5.476  16.549  0.00  0.00    +0.000 A 
ATOM     12  S   UNL     1       4.911   4.616  17.978  0.00  0.00    +0.000 S 
ATOM     13  C   UNL     1       3.848   5.852  18.448  0.00  0.00    +0.000 A 
ATOM     14  H   UNL     1       3.549   3.960  20.192  0.00  0.00    +0.000 HD
ENDROOT
BRANCH   5  15
ATOM     15  S   UNL     1       0.437   9.775  20.101  0.00  0.00    +0.000 S 
ATOM     16  O   UNL     1       0.020   8.656  20.921  0.00  0.00    +0.000 OA
ATOM     17  O   UNL     1       1.081  10.937  20.677  0.00  0.00    +0.000 OA
BRANCH  15  18
ATOM     18  C   UNL     1      -0.955  10.351  19.165  0.00  0.00    +0.000 A 
ATOM     19  C   UNL     1      -1.379   9.640  18.038  0.00  0.00    +0.000 A 
ATOM     20  C   UNL     1      -2.494  10.084  17.322  0.00  0.00    +0.000 A 
ATOM     21  C   UNL     1      -3.175  11.228  17.737  0.00  0.00    +0.000 A 
ATOM     22 CL   UNL     1      -4.540  11.778  16.844  0.00  0.00    +0.000 Cl
ATOM     23  C   UNL     1      -2.763  11.928  18.871  0.00  0.00    +0.000 A 
ATOM     24  C   UNL     1      -1.651  11.488  19.595  0.00  0.00    +0.000 A 
ENDBRANCH  15  18
ENDBRANCH   5  15
BRANCH   1  25
ATOM     25  C   UNL     1       1.872   4.446  21.347  0.00  0.00    +0.000 C 
BRANCH  25  26
ATOM     26  C   UNL     1       1.314   3.070  20.997  0.00  0.00    +0.000 C 
BRANCH  26  28
ATOM     27  C   UNL     1       1.306   2.468  18.550  0.00  0.00    +0.000 C 
ATOM     28  C   UNL     1       2.083   2.404  19.854  0.00  0.00    +0.000 C 
ENDBRANCH  26  28
ENDBRANCH  25  26
ENDBRANCH   1  25
TORSDOF 5
ENDMDL
MODEL 2
REMARK VINA RESULT:      -7.8      1.594      3.838
REMARK  Name = 
REMARK  6 active torsions:
REMARK  status: ('A' for Active; 'I' for Inactive)
REMARK    1  A    between atoms: C_1  and  C_2
REMARK    2  A    between atoms: C_2  and  C_3
REMARK    3  A    between atoms: C_3  and  C_4
REMARK    4  A    between atoms: C_4  and  N_5
REMARK    5  A    between atoms: C_9  and  S_10
REMARK    6  A    between atoms: S_10  and  C_13
REMARK                            x       y       z     vdW  Elec       q    Type
REMARK                         _______ _______ _______ _____ _____    ______ ____
ROOT
ATOM      1  N   UNL     1       4.202   5.674  17.108  0.00  0.00    +0.000 N 
ATOM      2  C   UNL     1       3.398   6.051  18.160  0.00  0.00    +0.000 A 
ATOM      3  N   UNL     1       2.930   7.282  18.215  0.00  0.00    +0.000 NA
ATOM      4  C   UNL     1       2.114   7.647  19.260  0.00  0.00    +0.000 A 
ATOM      5  C   UNL     1       1.412   8.788  19.598  0.00  0.00    +0.000 A 
ATOM      6  N   UNL     1       0.785   8.619  20.811  0.00  0.00    +0.000 NA
ATOM      7  N   UNL     1       1.034   7.387  21.237  0.00  0.00    +0.000 NA
ATOM      8  N   UNL     1       1.797   6.785  20.308  0.00  0.00    +0.000 N 
ATOM      9  C   UNL     1       2.289   5.470  20.313  0.00  0.00    +0.000 A 
ATOM     10  C   UNL     1       2.127   4.436  21.263  0.00  0.00    +0.000 A 
ATOM     11  C   UNL     1       2.812   3.305  20.863  0.00  0.00    +0.000 A 
ATOM     12  S   UNL     1       3.614   3.519  19.351  0.00  0.00    +0.000 S 
ATOM     13  C   UNL     1       3.065   5.120  19.237  0.00  0.00    +0.000 A 
ATOM     14  H   UNL     1       4.636   4.763  17.208  0.00  0.00    +0.000 HD
ENDROOT
BRANCH   5  15
ATOM     15  S   UNL     1       1.324  10.264  18.718  0.00  0.00    +0.000 S 
ATOM     16  O   UNL     1       1.813  11.293  19.612  0.00  0.00    +0.000 OA
ATOM     17  O   UNL     1       1.959  10.003  17.443  0.00  0.00    +0.000 OA
BRANCH  15  18
ATOM     18  C   UNL     1      -0.398  10.549  18.403  0.00  0.00    +0.000 A 
ATOM     19  C   UNL     1      -1.084   9.734  17.496  0.00  0.00    +0.000 A 
ATOM     20  C   UNL     1      -2.447   9.947  17.274  0.00  0.00    +0.000 A 
ATOM     21  C   UNL     1      -3.112  10.965  17.958  0.00  0.00    +0.000 A 
ATOM     22 CL   UNL     1      -4.788  11.231  17.671  0.00  0.00    +0.000 Cl
ATOM     23  C   UNL     1      -2.432  11.767  18.875  0.00  0.00    +0.000 A 
ATOM     24  C   UNL     1      -1.069  11.557  19.106  0.00  0.00    +0.000 A 
ENDBRANCH  15  18
ENDBRANCH   5  15
BRANCH   1  25
ATOM     25  C   UNL     1       4.967   6.642  16.346  0.00  0.00    +0.000 C 
BRANCH  25  26
ATOM     26  C   UNL     1       6.455   6.307  16.399  0.00  0.00    +0.000 C 
BRANCH  26  28
ATOM     27  C   UNL     1       7.814   8.071  17.580  0.00  0.00    +0.000 C 
ATOM     28  C   UNL     1       7.102   6.736  17.719  0.00  0.00    +0.000 C 
ENDBRANCH  26  28
ENDBRANCH  25  26
ENDBRANCH   1  25
TORSDOF 5
ENDMDL
MODEL 3
REMARK VINA RESULT:      -7.8      1.548      3.791
REMARK  Name = 
REMARK  6 active torsions:
REMARK  status: ('A' for Active; 'I' for Inactive)
REMARK    1  A    between atoms: C_1  and  C_2
REMARK    2  A    between atoms: C_2  and  C_3
REMARK    3  A    between atoms: C_3  and  C_4
REMARK    4  A    between atoms: C_4  and  N_5
REMARK    5  A    between atoms: C_9  and  S_10
REMARK    6  A    between atoms: S_10  and  C_13
REMARK                            x       y       z     vdW  Elec       q    Type
REMARK                         _______ _______ _______ _____ _____    ______ ____
ROOT
ATOM      1  N   UNL     1       4.282   5.733  17.106  0.00  0.00    +0.000 N 
ATOM      2  C   UNL     1       3.460   6.088  18.151  0.00  0.00    +0.000 A 
ATOM      3  N   UNL     1       2.966   7.309  18.206  0.00  0.00    +0.000 NA
ATOM      4  C   UNL     1       2.132   7.652  19.245  0.00  0.00    +0.000 A 
ATOM      5  C   UNL     1       1.403   8.777  19.581  0.00  0.00    +0.000 A 
ATOM      6  N   UNL     1       0.769   8.589  20.788  0.00  0.00    +0.000 NA
ATOM      7  N   UNL     1       1.041   7.361  21.212  0.00  0.00    +0.000 NA
ATOM      8  N   UNL     1       1.826   6.779  20.287  0.00  0.00    +0.000 N 
ATOM      9  C   UNL     1       2.345   5.476  20.292  0.00  0.00    +0.000 A 
ATOM     10  C   UNL     1       2.198   4.434  21.237  0.00  0.00    +0.000 A 
ATOM     11  C   UNL     1       2.911   3.320  20.839  0.00  0.00    +0.000 A 
ATOM     12  S   UNL     1       3.721   3.557  19.335  0.00  0.00    +0.000 S 
ATOM     13  C   UNL     1       3.139   5.146  19.222  0.00  0.00    +0.000 A 
ATOM     14  H   UNL     1       4.735   4.831  17.206  0.00  0.00    +0.000 HD
ENDROOT
BRANCH   5  15
ATOM     15  S   UNL     1       1.291  10.253  18.706  0.00  0.00    +0.000 S 
ATOM     16  O   UNL     1       1.761  11.288  19.603  0.00  0.00    +0.000 OA
ATOM     17  O   UNL     1       1.932  10.007  17.431  0.00  0.00    +0.000 OA
BRANCH  15  18
ATOM     18  C   UNL     1      -0.436  10.510  18.389  0.00  0.00    +0.000 A 
ATOM     19  C   UNL     1      -1.116  11.544  19.040  0.00  0.00    +0.000 A 
ATOM     20  C   UNL     1      -2.469  11.758  18.765  0.00  0.00    +0.000 A 
ATOM     21  C   UNL     1      -3.128  10.943  17.844  0.00  0.00    +0.000 A 
ATOM     22 CL   UNL     1      -4.798  11.203  17.518  0.00  0.00    +0.000 Cl
ATOM     23  C   UNL     1      -2.445   9.922  17.182  0.00  0.00    +0.000 A 
ATOM     24  C   UNL     1      -1.090   9.704  17.449  0.00  0.00    +0.000 A 
ENDBRANCH  15  18
ENDBRANCH   5  15
BRANCH   1  25
ATOM     25  C   UNL     1       5.032   6.720  16.354  0.00  0.00    +0.000 C 
BRANCH  25  26
ATOM     26  C   UNL     1       6.348   7.039  17.058  0.00  0.00    +0.000 C 
BRANCH  26  28
ATOM     27  C   UNL     1       7.580   5.819  18.887  0.00  0.00    +0.000 C 
ATOM     28  C   UNL     1       7.126   5.777  17.438  0.00  0.00    +0.000 C 
ENDBRANCH  26  28
ENDBRANCH  25  26
ENDBRANCH   1  25
TORSDOF 5
ENDMDL
MODEL 4
REMARK VINA RESULT:      -7.7      1.509      3.654
REMARK  Name = 
REMARK  6 active torsions:
REMARK  status: ('A' for Active; 'I' for Inactive)
REMARK    1  A    between atoms: C_1  and  C_2
REMARK    2  A    between atoms: C_2  and  C_3
REMARK    3  A    between atoms: C_3  and  C_4
REMARK    4  A    between atoms: C_4  and  N_5
REMARK    5  A    between atoms: C_9  and  S_10
REMARK    6  A    between atoms: S_10  and  C_13
REMARK                            x       y       z     vdW  Elec       q    Type
REMARK                         _______ _______ _______ _____ _____    ______ ____
ROOT
ATOM      1  N   UNL     1       4.146   5.708  17.153  0.00  0.00    +0.000 N 
ATOM      2  C   UNL     1       3.345   6.083  18.208  0.00  0.00    +0.000 A 
ATOM      3  N   UNL     1       2.878   7.314  18.267  0.00  0.00    +0.000 NA
ATOM      4  C   UNL     1       2.065   7.676  19.316  0.00  0.00    +0.000 A 
ATOM      5  C   UNL     1       1.364   8.817  19.659  0.00  0.00    +0.000 A 
ATOM      6  N   UNL     1       0.741   8.644  20.874  0.00  0.00    +0.000 NA
ATOM      7  N   UNL     1       0.992   7.411  21.297  0.00  0.00    +0.000 NA
ATOM      8  N   UNL     1       1.752   6.812  20.363  0.00  0.00    +0.000 N 
ATOM      9  C   UNL     1       2.244   5.497  20.364  0.00  0.00    +0.000 A 
ATOM     10  C   UNL     1       2.085   4.461  21.312  0.00  0.00    +0.000 A 
ATOM     11  C   UNL     1       2.770   3.331  20.908  0.00  0.00    +0.000 A 
ATOM     12  S   UNL     1       3.566   3.548  19.393  0.00  0.00    +0.000 S 
ATOM     13  C   UNL     1       3.017   5.149  19.284  0.00  0.00    +0.000 A 
ATOM     14  H   UNL     1       4.581   4.797  17.249  0.00  0.00    +0.000 HD
ENDROOT
BRANCH   5  15
ATOM     15  S   UNL     1       1.273  10.294  18.782  0.00  0.00    +0.000 S 
ATOM     16  O   UNL     1       1.716  11.329  19.694  0.00  0.00    +0.000 OA
ATOM     17  O   UNL     1       1.949  10.051  17.526  0.00  0.00    +0.000 OA
BRANCH  15  18
ATOM     18  C   UNL     1      -0.445  10.547  18.419  0.00  0.00    +0.000 A 
ATOM     19  C   UNL     1      -1.088   9.725  17.488  0.00  0.00    +0.000 A 
ATOM     20  C   UNL     1      -2.448   9.912  17.228  0.00  0.00    +0.000 A 
ATOM     21  C   UNL     1      -3.153  10.912  17.897  0.00  0.00    +0.000 A 
ATOM     22 CL   UNL     1      -4.825  11.147  17.564  0.00  0.00    +0.000 Cl
ATOM     23  C   UNL     1      -2.515  11.722  18.839  0.00  0.00    +0.000 A 
ATOM     24  C   UNL     1      -1.156  11.538  19.108  0.00  0.00    +0.000 A 
ENDBRANCH  15  18
ENDBRANCH   5  15
BRANCH   1  25
ATOM     25  C   UNL     1       4.908   6.678  16.390  0.00  0.00    +0.000 C 
BRANCH  25  26
ATOM     26  C   UNL     1       5.501   6.028  15.144  0.00  0.00    +0.000 C 
BRANCH  26  28
ATOM     27  C   UNL     1       6.046   3.853  13.993  0.00  0.00    +0.000 C 
ATOM     28  C   UNL     1       5.705   4.521  15.314  0.00  0.00    +0.000 C 
ENDBRANCH  26  28
ENDBRANCH  25  26
ENDBRANCH   1  25
TORSDOF 5
ENDMDL
MODEL 5
REMARK VINA RESULT:      -7.4      3.655      5.967
REMARK  Name = 
REMARK  6 active torsions:
REMARK  status: ('A' for Active; 'I' for Inactive)
REMARK    1  A    between atoms: C_1  and  C_2
REMARK    2  A    between atoms: C_2  and  C_3
REMARK    3  A    between atoms: C_3  and  C_4
REMARK    4  A    between atoms: C_4  and  N_5
REMARK    5  A    between atoms: C_9  and  S_10
REMARK    6  A    between atoms: S_10  and  C_13
REMARK                            x       y       z     vdW  Elec       q    Type
REMARK                         _______ _______ _______ _____ _____    ______ ____
ROOT
ATOM      1  N   UNL     1       7.476   7.046  16.659  0.00  0.00    +0.000 N 
ATOM      2  C   UNL     1       6.474   6.110  16.541  0.00  0.00    +0.000 A 
ATOM      3  N   UNL     1       5.607   5.955  17.522  0.00  0.00    +0.000 NA
ATOM      4  C   UNL     1       4.598   5.029  17.390  0.00  0.00    +0.000 A 
ATOM      5  C   UNL     1       3.511   4.654  18.156  0.00  0.00    +0.000 A 
ATOM      6  N   UNL     1       2.844   3.611  17.555  0.00  0.00    +0.000 NA
ATOM      7  N   UNL     1       3.451   3.337  16.408  0.00  0.00    +0.000 NA
ATOM      8  N   UNL     1       4.479   4.195  16.280  0.00  0.00    +0.000 N 
ATOM      9  C   UNL     1       5.390   4.300  15.217  0.00  0.00    +0.000 A 
ATOM     10  C   UNL     1       5.485   3.559  14.017  0.00  0.00    +0.000 A 
ATOM     11  C   UNL     1       6.561   3.995  13.268  0.00  0.00    +0.000 A 
ATOM     12  S   UNL     1       7.411   5.291  14.024  0.00  0.00    +0.000 S 
ATOM     13  C   UNL     1       6.360   5.261  15.356  0.00  0.00    +0.000 A 
ATOM     14  H   UNL     1       8.183   7.008  15.933  0.00  0.00    +0.000 HD
ENDROOT
BRANCH   5  15
ATOM     15  S   UNL     1       3.023   5.305  19.672  0.00  0.00    +0.000 S 
ATOM     16  O   UNL     1       1.962   4.444  20.154  0.00  0.00    +0.000 OA
ATOM     17  O   UNL     1       4.241   5.504  20.428  0.00  0.00    +0.000 OA
BRANCH  15  18
ATOM     18  C   UNL     1       2.346   6.908  19.326  0.00  0.00    +0.000 A 
ATOM     19  C   UNL     1       1.761   7.654  20.354  0.00  0.00    +0.000 A 
ATOM     20  C   UNL     1       1.256   8.927  20.080  0.00  0.00    +0.000 A 
ATOM     21  C   UNL     1       1.341   9.445  18.788  0.00  0.00    +0.000 A 
ATOM     22 CL   UNL     1       0.706  11.009  18.453  0.00  0.00    +0.000 Cl
ATOM     23  C   UNL     1       1.940   8.708  17.765  0.00  0.00    +0.000 A 
ATOM     24  C   UNL     1       2.452   7.435  18.033  0.00  0.00    +0.000 A 
ENDBRANCH  15  18
ENDBRANCH   5  15
BRANCH   1  25
ATOM     25  C   UNL     1       7.943   7.506  17.953  0.00  0.00    +0.000 C 
BRANCH  25  26
ATOM     26  C   UNL     1       8.144   9.019  17.938  0.00  0.00    +0.000 C 
BRANCH  26  28
ATOM     27  C   UNL     1       9.377  10.974  18.943  0.00  0.00    +0.000 C 
ATOM     28  C   UNL     1       9.050   9.497  19.076  0.00  0.00    +0.000 C 
ENDBRANCH  26  28
ENDBRANCH  25  26
ENDBRANCH   1  25
TORSDOF 5
ENDMDL
MODEL 6
REMARK VINA RESULT:      -7.3      1.690      2.052
REMARK  Name = 
REMARK  6 active torsions:
REMARK  status: ('A' for Active; 'I' for Inactive)
REMARK    1  A    between atoms: C_1  and  C_2
REMARK    2  A    between atoms: C_2  and  C_3
REMARK    3  A    between atoms: C_3  and  C_4
REMARK    4  A    between atoms: C_4  and  N_5
REMARK    5  A    between atoms: C_9  and  S_10
REMARK    6  A    between atoms: S_10  and  C_13
REMARK                            x       y       z     vdW  Elec       q    Type
REMARK                         _______ _______ _______ _____ _____    ______ ____
ROOT
ATOM      1  N   UNL     1       3.188   4.473  20.508  0.00  0.00    +0.000 N 
ATOM      2  C   UNL     1       3.090   5.589  19.709  0.00  0.00    +0.000 A 
ATOM      3  N   UNL     1       2.302   6.583  20.070  0.00  0.00    +0.000 NA
ATOM      4  C   UNL     1       2.221   7.702  19.275  0.00  0.00    +0.000 A 
ATOM      5  C   UNL     1       1.575   8.920  19.366  0.00  0.00    +0.000 A 
ATOM      6  N   UNL     1       1.805   9.667  18.233  0.00  0.00    +0.000 NA
ATOM      7  N   UNL     1       2.613   8.975  17.439  0.00  0.00    +0.000 NA
ATOM      8  N   UNL     1       2.895   7.816  18.061  0.00  0.00    +0.000 N 
ATOM      9  C   UNL     1       3.727   6.778  17.615  0.00  0.00    +0.000 A 
ATOM     10  C   UNL     1       4.483   6.656  16.426  0.00  0.00    +0.000 A 
ATOM     11  C   UNL     1       5.141   5.442  16.398  0.00  0.00    +0.000 A 
ATOM     12  S   UNL     1       4.842   4.495  17.808  0.00  0.00    +0.000 S 
ATOM     13  C   UNL     1       3.824   5.692  18.448  0.00  0.00    +0.000 A 
ATOM     14  H   UNL     1       3.697   3.698  20.097  0.00  0.00    +0.000 HD
ENDROOT
BRANCH   5  15
ATOM     15  S   UNL     1       0.571   9.480  20.646  0.00  0.00    +0.000 S 
ATOM     16  O   UNL     1      -0.659   8.719  20.552  0.00  0.00    +0.000 OA
ATOM     17  O   UNL     1       1.392   9.448  21.838  0.00  0.00    +0.000 OA
BRANCH  15  18
ATOM     18  C   UNL     1       0.220  11.182  20.291  0.00  0.00    +0.000 A 
ATOM     19  C   UNL     1      -0.953  11.524  19.611  0.00  0.00    +0.000 A 
ATOM     20  C   UNL     1      -1.236  12.869  19.359  0.00  0.00    +0.000 A 
ATOM     21  C   UNL     1      -0.351  13.858  19.789  0.00  0.00    +0.000 A 
ATOM     22 CL   UNL     1      -0.698  15.512  19.465  0.00  0.00    +0.000 Cl
ATOM     23  C   UNL     1       0.812  13.518  20.482  0.00  0.00    +0.000 A 
ATOM     24  C   UNL     1       1.100  12.175  20.741  0.00  0.00    +0.000 A 
ENDBRANCH  15  18
ENDBRANCH   5  15
BRANCH   1  25
ATOM     25  C   UNL     1       2.135   4.100  21.433  0.00  0.00    +0.000 C 
BRANCH  25  26
ATOM     26  C   UNL     1       1.460   2.808  20.979  0.00  0.00    +0.000 C 
BRANCH  26  28
ATOM     27  C   UNL     1       1.322   2.289  18.517  0.00  0.00    +0.000 C 
ATOM     28  C   UNL     1       0.659   2.992  19.688  0.00  0.00    +0.000 C 
ENDBRANCH  26  28
ENDBRANCH  25  26
ENDBRANCH   1  25
TORSDOF 5
ENDMDL
MODEL 7
REMARK VINA RESULT:      -7.0      5.753      8.644
REMARK  Name = 
REMARK  6 active torsions:
REMARK  status: ('A' for Active; 'I' for Inactive)
REMARK    1  A    between atoms: C_1  and  C_2
REMARK    2  A    between atoms: C_2  and  C_3
REMARK    3  A    between atoms: C_3  and  C_4
REMARK    4  A    between atoms: C_4  and  N_5
REMARK    5  A    between atoms: C_9  and  S_10
REMARK    6  A    between atoms: S_10  and  C_13
REMARK                            x       y       z     vdW  Elec       q    Type
REMARK                         _______ _______ _______ _____ _____    ______ ____
ROOT
ATOM      1  N   UNL     1      -3.670  11.829  17.375  0.00  0.00    +0.000 N 
ATOM      2  C   UNL     1      -3.943  12.056  18.704  0.00  0.00    +0.000 A 
ATOM      3  N   UNL     1      -2.957  12.328  19.536  0.00  0.00    +0.000 NA
ATOM      4  C   UNL     1      -3.238  12.571  20.860  0.00  0.00    +0.000 A 
ATOM      5  C   UNL     1      -2.495  12.939  21.965  0.00  0.00    +0.000 A 
ATOM      6  N   UNL     1      -3.297  12.992  23.082  0.00  0.00    +0.000 NA
ATOM      7  N   UNL     1      -4.540  12.707  22.712  0.00  0.00    +0.000 NA
ATOM      8  N   UNL     1      -4.526  12.486  21.386  0.00  0.00    +0.000 N 
ATOM      9  C   UNL     1      -5.610  12.175  20.551  0.00  0.00    +0.000 A 
ATOM     10  C   UNL     1      -6.982  12.012  20.853  0.00  0.00    +0.000 A 
ATOM     11  C   UNL     1      -7.689  11.684  19.713  0.00  0.00    +0.000 A 
ATOM     12  S   UNL     1      -6.685  11.599  18.314  0.00  0.00    +0.000 S 
ATOM     13  C   UNL     1      -5.306  11.981  19.226  0.00  0.00    +0.000 A 
ATOM     14  H   UNL     1      -4.455  11.488  16.830  0.00  0.00    +0.000 HD
ENDROOT
BRANCH   5  15
ATOM     15  S   UNL     1      -0.805  13.252  22.034  0.00  0.00    +0.000 S 
ATOM     16  O   UNL     1      -0.627  14.603  21.543  0.00  0.00    +0.000 OA
ATOM     17  O   UNL     1      -0.384  12.867  23.364  0.00  0.00    +0.000 OA
BRANCH  15  18
ATOM     18  C   UNL     1      -0.047  12.124  20.893  0.00  0.00    +0.000 A 
ATOM     19  C   UNL     1      -0.085  10.748  21.145  0.00  0.00    +0.000 A 
ATOM     20  C   UNL     1       0.489   9.864  20.228  0.00  0.00    +0.000 A 
ATOM     21  C   UNL     1       1.092  10.358  19.071  0.00  0.00    +0.000 A 
ATOM     22 CL   UNL     1       1.808   9.265  17.950  0.00  0.00    +0.000 Cl
ATOM     23  C   UNL     1       1.115  11.729  18.811  0.00  0.00    +0.000 A 
ATOM     24  C   UNL     1       0.539  12.619  19.721  0.00  0.00    +0.000 A 
ENDBRANCH  15  18
ENDBRANCH   5  15
BRANCH   1  25
ATOM     25  C   UNL     1      -2.366  11.377  16.929  0.00  0.00    +0.000 C 
BRANCH  25  26
ATOM     26  C   UNL     1      -2.505  10.149  16.033  0.00  0.00    +0.000 C 
BRANCH  26  28
ATOM     27  C   UNL     1      -3.395   9.978  13.681  0.00  0.00    +0.000 C 
ATOM     28  C   UNL     1      -3.746  10.218  15.139  0.00  0.00    +0.000 C 
ENDBRANCH  26  28
ENDBRANCH  25  26
ENDBRANCH   1  25
TORSDOF 5
ENDMDL
MODEL 8
REMARK VINA RESULT:      -6.9      1.701      2.222
REMARK  Name = 
REMARK  6 active torsions:
REMARK  status: ('A' for Active; 'I' for Inactive)
REMARK    1  A    between atoms: C_1  and  C_2
REMARK    2  A    between atoms: C_2  and  C_3
REMARK    3  A    between atoms: C_3  and  C_4
REMARK    4  A    between atoms: C_4  and  N_5
REMARK    5  A    between atoms: C_9  and  S_10
REMARK    6  A    between atoms: S_10  and  C_13
REMARK                            x       y       z     vdW  Elec       q    Type
REMARK                         _______ _______ _______ _____ _____    ______ ____
ROOT
ATOM      1  N   UNL     1       3.132   4.452  20.639  0.00  0.00    +0.000 N 
ATOM      2  C   UNL     1       2.905   5.653  20.006  0.00  0.00    +0.000 A 
ATOM      3  N   UNL     1       2.091   6.534  20.552  0.00  0.00    +0.000 NA
ATOM      4  C   UNL     1       1.881   7.739  19.922  0.00  0.00    +0.000 A 
ATOM      5  C   UNL     1       1.173   8.887  20.221  0.00  0.00    +0.000 A 
ATOM      6  N   UNL     1       1.268   9.788  19.185  0.00  0.00    +0.000 NA
ATOM      7  N   UNL     1       2.050   9.262  18.250  0.00  0.00    +0.000 NA
ATOM      8  N   UNL     1       2.449   8.055  18.689  0.00  0.00    +0.000 N 
ATOM      9  C   UNL     1       3.304   7.143  18.051  0.00  0.00    +0.000 A 
ATOM     10  C   UNL     1       3.969   7.229  16.806  0.00  0.00    +0.000 A 
ATOM     11  C   UNL     1       4.693   6.077  16.569  0.00  0.00    +0.000 A 
ATOM     12  S   UNL     1       4.563   4.937  17.857  0.00  0.00    +0.000 S 
ATOM     13  C   UNL     1       3.530   5.968  18.722  0.00  0.00    +0.000 A 
ATOM     14  H   UNL     1       3.652   3.773  20.094  0.00  0.00    +0.000 HD
ENDROOT
BRANCH   5  15
ATOM     15  S   UNL     1       0.241   9.206  21.632  0.00  0.00    +0.000 S 
ATOM     16  O   UNL     1      -0.768   8.168  21.688  0.00  0.00    +0.000 OA
ATOM     17  O   UNL     1       1.196   9.393  22.704  0.00  0.00    +0.000 OA
BRANCH  15  18
ATOM     18  C   UNL     1      -0.556  10.766  21.355  0.00  0.00    +0.000 A 
ATOM     19  C   UNL     1      -0.542  11.742  22.357  0.00  0.00    +0.000 A 
ATOM     20  C   UNL     1      -1.148  12.979  22.121  0.00  0.00    +0.000 A 
ATOM     21  C   UNL     1      -1.757  13.232  20.892  0.00  0.00    +0.000 A 
ATOM     22 CL   UNL     1      -2.513  14.752  20.612  0.00  0.00    +0.000 Cl
ATOM     23  C   UNL     1      -1.756  12.264  19.887  0.00  0.00    +0.000 A 
ATOM     24  C   UNL     1      -1.149  11.026  20.113  0.00  0.00    +0.000 A 
ENDBRANCH  15  18
ENDBRANCH   5  15
BRANCH   1  25
ATOM     25  C   UNL     1       2.179   3.890  21.577  0.00  0.00    +0.000 C 
BRANCH  25  26
ATOM     26  C   UNL     1       1.556   2.619  21.007  0.00  0.00    +0.000 C 
BRANCH  26  28
ATOM     27  C   UNL     1       1.349   2.350  18.510  0.00  0.00    +0.000 C 
ATOM     28  C   UNL     1       0.699   2.896  19.769  0.00  0.00    +0.000 C 
ENDBRANCH  26  28
ENDBRANCH  25  26
ENDBRANCH   1  25
TORSDOF 5
ENDMDL
MODEL 9
REMARK VINA RESULT:      -6.9      3.953      8.452
REMARK  Name = 
REMARK  6 active torsions:
REMARK  status: ('A' for Active; 'I' for Inactive)
REMARK    1  A    between atoms: C_1  and  C_2
REMARK    2  A    between atoms: C_2  and  C_3
REMARK    3  A    between atoms: C_3  and  C_4
REMARK    4  A    between atoms: C_4  and  N_5
REMARK    5  A    between atoms: C_9  and  S_10
REMARK    6  A    between atoms: S_10  and  C_13
REMARK                            x       y       z     vdW  Elec       q    Type
REMARK                         _______ _______ _______ _____ _____    ______ ____
ROOT
ATOM      1  N   UNL     1      -3.801  13.437  21.382  0.00  0.00    +0.000 N 
ATOM      2  C   UNL     1      -3.431  12.636  20.326  0.00  0.00    +0.000 A 
ATOM      3  N   UNL     1      -2.185  12.218  20.230  0.00  0.00    +0.000 NA
ATOM      4  C   UNL     1      -1.826  11.404  19.181  0.00  0.00    +0.000 A 
ATOM      5  C   UNL     1      -0.670  10.745  18.808  0.00  0.00    +0.000 A 
ATOM      6  N   UNL     1      -0.859  10.096  17.609  0.00  0.00    +0.000 NA
ATOM      7  N   UNL     1      -2.115  10.289  17.227  0.00  0.00    +0.000 NA
ATOM      8  N   UNL     1      -2.713  11.039  18.170  0.00  0.00    +0.000 N 
ATOM      9  C   UNL     1      -4.046  11.477  18.209  0.00  0.00    +0.000 A 
ATOM     10  C   UNL     1      -5.108  11.261  17.301  0.00  0.00    +0.000 A 
ATOM     11  C   UNL     1      -6.250  11.905  17.735  0.00  0.00    +0.000 A 
ATOM     12  S   UNL     1      -6.013  12.734  19.229  0.00  0.00    +0.000 S 
ATOM     13  C   UNL     1      -4.387  12.252  19.289  0.00  0.00    +0.000 A 
ATOM     14  H   UNL     1      -4.733  13.833  21.312  0.00  0.00    +0.000 HD
ENDROOT
BRANCH   5  15
ATOM     15  S   UNL     1       0.840  10.728  19.632  0.00  0.00    +0.000 S 
ATOM     16  O   UNL     1       1.646  11.759  19.012  0.00  0.00    +0.000 OA
ATOM     17  O   UNL     1       0.520  10.762  21.044  0.00  0.00    +0.000 OA
BRANCH  15  18
ATOM     18  C   UNL     1       1.570   9.147  19.293  0.00  0.00    +0.000 A 
ATOM     19  C   UNL     1       1.528   8.139  20.262  0.00  0.00    +0.000 A 
ATOM     20  C   UNL     1       2.081   6.888  19.977  0.00  0.00    +0.000 A 
ATOM     21  C   UNL     1       2.665   6.653  18.733  0.00  0.00    +0.000 A 
ATOM     22 CL   UNL     1       3.356   5.114  18.392  0.00  0.00    +0.000 Cl
ATOM     23  C   UNL     1       2.692   7.653  17.760  0.00  0.00    +0.000 A 
ATOM     24  C   UNL     1       2.137   8.906  18.036  0.00  0.00    +0.000 A 
ENDBRANCH  15  18
ENDBRANCH   5  15
BRANCH   1  25
ATOM     25  C   UNL     1      -2.837  14.251  22.099  0.00  0.00    +0.000 C 
BRANCH  25  26
ATOM     26  C   UNL     1      -2.590  13.679  23.492  0.00  0.00    +0.000 C 
BRANCH  26  28
ATOM     27  C   UNL     1      -4.376  12.457  24.783  0.00  0.00    +0.000 C 
ATOM     28  C   UNL     1      -3.307  12.345  23.710  0.00  0.00    +0.000 C 
ENDBRANCH  26  28
ENDBRANCH  25  26
ENDBRANCH   1  25
TORSDOF 5
ENDMDL
