MODEL 1
REMARK VINA RESULT:      -9.6      0.000      0.000
REMARK  Name = 
REMARK  5 active torsions:
REMARK  status: ('A' for Active; 'I' for Inactive)
REMARK    1  A    between atoms: C_2  and  C_23
REMARK    2  A    between atoms: N_3  and  C_4
REMARK    3  A    between atoms: C_8  and  C_9
REMARK    4  A    between atoms: C_18  and  O_19
REMARK    5  A    between atoms: O_19  and  C_20
REMARK                            x       y       z     vdW  Elec       q    Type
REMARK                         _______ _______ _______ _____ _____    ______ ____
ROOT
ATOM      1  C   UNL     1       2.762   3.930  17.993  0.00  0.00    +0.000 A 
ATOM      2  C   UNL     1       2.034   2.936  18.599  0.00  0.00    +0.000 A 
ATOM      3  N   UNL     1       2.739   1.791  18.423  0.00  0.00    +0.000 N 
ATOM      4  N   UNL     1       3.874   1.953  17.726  0.00  0.00    +0.000 NA
ATOM      5  C   UNL     1       3.907   3.265  17.423  0.00  0.00    +0.000 A 
ATOM      6  H   UNL     1       2.513   0.862  18.763  0.00  0.00    +0.000 HD
ENDROOT
BRANCH   5   7
ATOM      7  C   UNL     1       4.990   3.825  16.597  0.00  0.00    +0.000 A 
ATOM      8  C   UNL     1       5.013   3.466  15.232  0.00  0.00    +0.000 A 
ATOM      9  C   UNL     1       5.956   3.967  14.324  0.00  0.00    +0.000 A 
ATOM     10  C   UNL     1       5.953   3.561  12.980  0.00  0.00    +0.000 A 
ATOM     11  C   UNL     1       6.854   4.113  12.071  0.00  0.00    +0.000 A 
ATOM     12  C   UNL     1       7.765   5.073  12.499  0.00  0.00    +0.000 A 
ATOM     13  C   UNL     1       7.791   5.465  13.840  0.00  0.00    +0.000 A 
ATOM     14  C   UNL     1       6.893   4.911  14.769  0.00  0.00    +0.000 A 
ATOM     15  C   UNL     1       6.885   5.281  16.122  0.00  0.00    +0.000 A 
ATOM     16  C   UNL     1       5.966   4.737  17.045  0.00  0.00    +0.000 A 
BRANCH  16  17
ATOM     17  O   UNL     1       6.127   5.285  18.288  0.00  0.00    +0.000 OA
BRANCH  17  18
ATOM     18  C   UNL     1       7.421   5.681  18.716  0.00  0.00    +0.000 C 
ATOM     19  F   UNL     1       7.642   6.996  18.485  0.00  0.00    +0.000 F 
ATOM     20  F   UNL     1       7.443   5.531  20.071  0.00  0.00    +0.000 F 
ENDBRANCH  17  18
ENDBRANCH  16  17
ENDBRANCH   5   7
BRANCH   1  23
ATOM     21  O   UNL     1       3.371   5.844  20.052  0.00  0.00    +0.000 OA
ATOM     22  C   UNL     1       2.797   6.153  19.012  0.00  0.00    +0.000 C 
ATOM     23  N   UNL     1       2.433   5.275  18.015  0.00  0.00    +0.000 N 
ATOM     24  H   UNL     1       1.766   5.633  17.343  0.00  0.00    +0.000 HD
BRANCH  22  25
ATOM     25  C   UNL     1       2.390   7.527  18.761  0.00  0.00    +0.000 A 
ATOM     26  C   UNL     1       2.616   8.272  17.585  0.00  0.00    +0.000 A 
ATOM     27  N   UNL     1       2.060   9.483  17.612  0.00  0.00    +0.000 NA
ATOM     28  N   UNL     1       1.452   9.545  18.817  0.00  0.00    +0.000 N 
ATOM     29  C   UNL     1       0.655  10.571  19.311  0.00  0.00    +0.000 A 
ATOM     30  C   UNL     1       0.126  10.485  20.540  0.00  0.00    +0.000 A 
ATOM     31  C   UNL     1       0.491   9.260  21.305  0.00  0.00    +0.000 A 
ATOM     32  N   UNL     1       1.220   8.273  20.866  0.00  0.00    +0.000 NA
ATOM     33  C   UNL     1       1.689   8.397  19.579  0.00  0.00    +0.000 A 
ENDBRANCH  22  25
ENDBRANCH   1  23
TORSDOF 5
ENDMDL
MODEL 2
REMARK VINA RESULT:      -9.1      1.391      1.588
REMARK  Name = 
REMARK  5 active torsions:
REMARK  status: ('A' for Active; 'I' for Inactive)
REMARK    1  A    between atoms: C_2  and  C_23
REMARK    2  A    between atoms: N_3  and  C_4
REMARK    3  A    between atoms: C_8  and  C_9
REMARK    4  A    between atoms: C_18  and  O_19
REMARK    5  A    between atoms: O_19  and  C_20
REMARK                            x       y       z     vdW  Elec       q    Type
REMARK                         _______ _______ _______ _____ _____    ______ ____
ROOT
ATOM      1  C   UNL     1       3.113   4.586  20.067  0.00  0.00    +0.000 A 
ATOM      2  C   UNL     1       2.472   3.777  20.973  0.00  0.00    +0.000 A 
ATOM      3  N   UNL     1       3.097   2.574  20.912  0.00  0.00    +0.000 N 
ATOM      4  N   UNL     1       4.094   2.525  20.016  0.00  0.00    +0.000 NA
ATOM      5  C   UNL     1       4.115   3.749  19.457  0.00  0.00    +0.000 A 
ATOM      6  H   UNL     1       2.905   1.745  21.463  0.00  0.00    +0.000 HD
ENDROOT
BRANCH   5   7
ATOM      7  C   UNL     1       5.052   4.068  18.365  0.00  0.00    +0.000 A 
ATOM      8  C   UNL     1       4.672   3.693  17.059  0.00  0.00    +0.000 A 
ATOM      9  C   UNL     1       5.444   3.981  15.925  0.00  0.00    +0.000 A 
ATOM     10  C   UNL     1       5.037   3.567  14.647  0.00  0.00    +0.000 A 
ATOM     11  C   UNL     1       5.778   3.913  13.518  0.00  0.00    +0.000 A 
ATOM     12  C   UNL     1       6.933   4.674  13.660  0.00  0.00    +0.000 A 
ATOM     13  C   UNL     1       7.360   5.071  14.930  0.00  0.00    +0.000 A 
ATOM     14  C   UNL     1       6.625   4.722  16.076  0.00  0.00    +0.000 A 
ATOM     15  C   UNL     1       7.018   5.105  17.368  0.00  0.00    +0.000 A 
ATOM     16  C   UNL     1       6.265   4.770  18.513  0.00  0.00    +0.000 A 
BRANCH  16  17
ATOM     17  O   UNL     1       6.826   5.291  19.646  0.00  0.00    +0.000 OA
BRANCH  17  18
ATOM     18  C   UNL     1       8.224   5.531  19.688  0.00  0.00    +0.000 C 
ATOM     19  F   UNL     1       8.516   6.823  19.406  0.00  0.00    +0.000 F 
ATOM     20  F   UNL     1       8.612   5.335  20.981  0.00  0.00    +0.000 F 
ENDBRANCH  17  18
ENDBRANCH  16  17
ENDBRANCH   5   7
BRANCH   1  23
ATOM     21  O   UNL     1       2.042   5.828  17.704  0.00  0.00    +0.000 OA
ATOM     22  C   UNL     1       2.277   6.457  18.732  0.00  0.00    +0.000 C 
ATOM     23  N   UNL     1       2.837   5.929  19.875  0.00  0.00    +0.000 N 
ATOM     24  H   UNL     1       3.185   6.607  20.541  0.00  0.00    +0.000 HD
BRANCH  22  25
ATOM     25  C   UNL     1       2.019   7.886  18.811  0.00  0.00    +0.000 A 
ATOM     26  C   UNL     1       2.184   8.832  17.778  0.00  0.00    +0.000 A 
ATOM     27  N   UNL     1       1.794  10.060  18.119  0.00  0.00    +0.000 NA
ATOM     28  N   UNL     1       1.359   9.931  19.392  0.00  0.00    +0.000 N 
ATOM     29  C   UNL     1       0.768  10.906  20.187  0.00  0.00    +0.000 A 
ATOM     30  C   UNL     1       0.396  10.621  21.443  0.00  0.00    +0.000 A 
ATOM     31  C   UNL     1       0.698   9.235  21.896  0.00  0.00    +0.000 A 
ATOM     32  N   UNL     1       1.234   8.293  21.172  0.00  0.00    +0.000 NA
ATOM     33  C   UNL     1       1.545   8.634  19.877  0.00  0.00    +0.000 A 
ENDBRANCH  22  25
ENDBRANCH   1  23
TORSDOF 5
ENDMDL
MODEL 3
REMARK VINA RESULT:      -8.4      1.151      1.227
REMARK  Name = 
REMARK  5 active torsions:
REMARK  status: ('A' for Active; 'I' for Inactive)
REMARK    1  A    between atoms: C_2  and  C_23
REMARK    2  A    between atoms: N_3  and  C_4
REMARK    3  A    between atoms: C_8  and  C_9
REMARK    4  A    between atoms: C_18  and  O_19
REMARK    5  A    between atoms: O_19  and  C_20
REMARK                            x       y       z     vdW  Elec       q    Type
REMARK                         _______ _______ _______ _____ _____    ______ ____
ROOT
ATOM      1  C   UNL     1       3.588   4.602  19.189  0.00  0.00    +0.000 A 
ATOM      2  C   UNL     1       3.042   3.702  20.072  0.00  0.00    +0.000 A 
ATOM      3  N   UNL     1       3.695   2.531  19.868  0.00  0.00    +0.000 N 
ATOM      4  N   UNL     1       4.620   2.586  18.898  0.00  0.00    +0.000 NA
ATOM      5  C   UNL     1       4.563   3.850  18.439  0.00  0.00    +0.000 A 
ATOM      6  H   UNL     1       3.570   1.654  20.363  0.00  0.00    +0.000 HD
ENDROOT
BRANCH   5   7
ATOM      7  C   UNL     1       5.402   4.285  17.309  0.00  0.00    +0.000 A 
ATOM      8  C   UNL     1       5.233   3.610  16.081  0.00  0.00    +0.000 A 
ATOM      9  C   UNL     1       5.929   3.956  14.915  0.00  0.00    +0.000 A 
ATOM     10  C   UNL     1       5.745   3.239  13.723  0.00  0.00    +0.000 A 
ATOM     11  C   UNL     1       6.393   3.630  12.552  0.00  0.00    +0.000 A 
ATOM     12  C   UNL     1       7.231   4.741  12.566  0.00  0.00    +0.000 A 
ATOM     13  C   UNL     1       7.439   5.447  13.754  0.00  0.00    +0.000 A 
ATOM     14  C   UNL     1       6.798   5.057  14.943  0.00  0.00    +0.000 A 
ATOM     15  C   UNL     1       6.977   5.742  16.154  0.00  0.00    +0.000 A 
ATOM     16  C   UNL     1       6.313   5.360  17.340  0.00  0.00    +0.000 A 
BRANCH  16  17
ATOM     17  O   UNL     1       6.616   6.205  18.372  0.00  0.00    +0.000 OA
BRANCH  17  18
ATOM     18  C   UNL     1       7.738   5.929  19.197  0.00  0.00    +0.000 C 
ATOM     19  F   UNL     1       8.487   4.917  18.697  0.00  0.00    +0.000 F 
ATOM     20  F   UNL     1       8.531   7.037  19.153  0.00  0.00    +0.000 F 
ENDBRANCH  17  18
ENDBRANCH  16  17
ENDBRANCH   5   7
BRANCH   1  23
ATOM     21  O   UNL     1       1.628   5.844  17.490  0.00  0.00    +0.000 OA
ATOM     22  C   UNL     1       2.274   6.473  18.323  0.00  0.00    +0.000 C 
ATOM     23  N   UNL     1       3.260   5.946  19.128  0.00  0.00    +0.000 N 
ATOM     24  H   UNL     1       3.856   6.623  19.585  0.00  0.00    +0.000 HD
BRANCH  22  25
ATOM     25  C   UNL     1       2.075   7.904  18.500  0.00  0.00    +0.000 A 
ATOM     26  C   UNL     1       2.224   8.904  17.517  0.00  0.00    +0.000 A 
ATOM     27  N   UNL     1       1.900  10.123  17.950  0.00  0.00    +0.000 NA
ATOM     28  N   UNL     1       1.526   9.932  19.235  0.00  0.00    +0.000 N 
ATOM     29  C   UNL     1       1.015  10.877  20.116  0.00  0.00    +0.000 A 
ATOM     30  C   UNL     1       0.696  10.530  21.371  0.00  0.00    +0.000 A 
ATOM     31  C   UNL     1       0.967   9.108  21.725  0.00  0.00    +0.000 A 
ATOM     32  N   UNL     1       1.429   8.194  20.919  0.00  0.00    +0.000 NA
ATOM     33  C   UNL     1       1.686   8.601  19.631  0.00  0.00    +0.000 A 
ENDBRANCH  22  25
ENDBRANCH   1  23
TORSDOF 5
ENDMDL
MODEL 4
REMARK VINA RESULT:      -8.4      2.367      7.420
REMARK  Name = 
REMARK  5 active torsions:
REMARK  status: ('A' for Active; 'I' for Inactive)
REMARK    1  A    between atoms: C_2  and  C_23
REMARK    2  A    between atoms: N_3  and  C_4
REMARK    3  A    between atoms: C_8  and  C_9
REMARK    4  A    between atoms: C_18  and  O_19
REMARK    5  A    between atoms: O_19  and  C_20
REMARK                            x       y       z     vdW  Elec       q    Type
REMARK                         _______ _______ _______ _____ _____    ______ ____
ROOT
ATOM      1  C   UNL     1       3.457   4.350  19.753  0.00  0.00    +0.000 A 
ATOM      2  C   UNL     1       3.502   3.114  20.351  0.00  0.00    +0.000 A 
ATOM      3  N   UNL     1       2.480   3.090  21.243  0.00  0.00    +0.000 N 
ATOM      4  N   UNL     1       1.774   4.230  21.291  0.00  0.00    +0.000 NA
ATOM      5  C   UNL     1       2.368   5.041  20.397  0.00  0.00    +0.000 A 
ATOM      6  H   UNL     1       2.197   2.324  21.844  0.00  0.00    +0.000 HD
ENDROOT
BRANCH   5   7
ATOM      7  C   UNL     1       1.906   6.427  20.206  0.00  0.00    +0.000 A 
ATOM      8  C   UNL     1       1.272   7.053  21.300  0.00  0.00    +0.000 A 
ATOM      9  C   UNL     1       0.831   8.383  21.272  0.00  0.00    +0.000 A 
ATOM     10  C   UNL     1       0.184   8.955  22.378  0.00  0.00    +0.000 A 
ATOM     11  C   UNL     1      -0.193  10.297  22.364  0.00  0.00    +0.000 A 
ATOM     12  C   UNL     1       0.073  11.076  21.243  0.00  0.00    +0.000 A 
ATOM     13  C   UNL     1       0.695  10.509  20.128  0.00  0.00    +0.000 A 
ATOM     14  C   UNL     1       1.074   9.156  20.127  0.00  0.00    +0.000 A 
ATOM     15  C   UNL     1       1.704   8.551  19.029  0.00  0.00    +0.000 A 
ATOM     16  C   UNL     1       2.102   7.197  19.042  0.00  0.00    +0.000 A 
BRANCH  16  17
ATOM     17  O   UNL     1       2.732   6.853  17.878  0.00  0.00    +0.000 OA
BRANCH  17  18
ATOM     18  C   UNL     1       3.555   7.805  17.220  0.00  0.00    +0.000 C 
ATOM     19  F   UNL     1       4.650   8.110  17.955  0.00  0.00    +0.000 F 
ATOM     20  F   UNL     1       4.020   7.199  16.091  0.00  0.00    +0.000 F 
ENDBRANCH  17  18
ENDBRANCH  16  17
ENDBRANCH   5   7
BRANCH   1  23
ATOM     21  O   UNL     1       6.236   5.073  19.914  0.00  0.00    +0.000 OA
ATOM     22  C   UNL     1       5.622   5.043  18.852  0.00  0.00    +0.000 C 
ATOM     23  N   UNL     1       4.281   4.755  18.717  0.00  0.00    +0.000 N 
ATOM     24  H   UNL     1       3.872   5.000  17.825  0.00  0.00    +0.000 HD
BRANCH  22  25
ATOM     25  C   UNL     1       6.280   5.374  17.597  0.00  0.00    +0.000 A 
ATOM     26  C   UNL     1       7.302   6.326  17.405  0.00  0.00    +0.000 A 
ATOM     27  N   UNL     1       7.767   6.358  16.156  0.00  0.00    +0.000 NA
ATOM     28  N   UNL     1       7.051   5.412  15.509  0.00  0.00    +0.000 N 
ATOM     29  C   UNL     1       7.205   4.986  14.195  0.00  0.00    +0.000 A 
ATOM     30  C   UNL     1       6.404   4.036  13.693  0.00  0.00    +0.000 A 
ATOM     31  C   UNL     1       5.355   3.532  14.624  0.00  0.00    +0.000 A 
ATOM     32  N   UNL     1       5.195   3.897  15.865  0.00  0.00    +0.000 NA
ATOM     33  C   UNL     1       6.082   4.836  16.335  0.00  0.00    +0.000 A 
ENDBRANCH  22  25
ENDBRANCH   1  23
TORSDOF 5
ENDMDL
MODEL 5
REMARK VINA RESULT:      -8.3      5.586      8.562
REMARK  Name = 
REMARK  5 active torsions:
REMARK  status: ('A' for Active; 'I' for Inactive)
REMARK    1  A    between atoms: C_2  and  C_23
REMARK    2  A    between atoms: N_3  and  C_4
REMARK    3  A    between atoms: C_8  and  C_9
REMARK    4  A    between atoms: C_18  and  O_19
REMARK    5  A    between atoms: O_19  and  C_20
REMARK                            x       y       z     vdW  Elec       q    Type
REMARK                         _______ _______ _______ _____ _____    ______ ____
ROOT
ATOM      1  C   UNL     1       0.025  12.414  18.872  0.00  0.00    +0.000 A 
ATOM      2  C   UNL     1       0.519  13.574  18.328  0.00  0.00    +0.000 A 
ATOM      3  N   UNL     1       1.808  13.314  17.995  0.00  0.00    +0.000 N 
ATOM      4  N   UNL     1       2.208  12.069  18.298  0.00  0.00    +0.000 NA
ATOM      5  C   UNL     1       1.132  11.492  18.865  0.00  0.00    +0.000 A 
ATOM      6  H   UNL     1       2.472  13.935  17.545  0.00  0.00    +0.000 HD
ENDROOT
BRANCH   5   7
ATOM      7  C   UNL     1       1.201  10.118  19.395  0.00  0.00    +0.000 A 
ATOM      8  C   UNL     1       1.786   9.136  18.569  0.00  0.00    +0.000 A 
ATOM      9  C   UNL     1       1.960   7.804  18.969  0.00  0.00    +0.000 A 
ATOM     10  C   UNL     1       2.525   6.855  18.102  0.00  0.00    +0.000 A 
ATOM     11  C   UNL     1       2.753   5.549  18.530  0.00  0.00    +0.000 A 
ATOM     12  C   UNL     1       2.416   5.181  19.829  0.00  0.00    +0.000 A 
ATOM     13  C   UNL     1       1.830   6.111  20.691  0.00  0.00    +0.000 A 
ATOM     14  C   UNL     1       1.588   7.430  20.268  0.00  0.00    +0.000 A 
ATOM     15  C   UNL     1       1.007   8.394  21.105  0.00  0.00    +0.000 A 
ATOM     16  C   UNL     1       0.786   9.722  20.682  0.00  0.00    +0.000 A 
BRANCH  16  17
ATOM     17  O   UNL     1       0.250  10.480  21.687  0.00  0.00    +0.000 OA
BRANCH  17  18
ATOM     18  C   UNL     1      -0.562   9.863  22.673  0.00  0.00    +0.000 C 
ATOM     19  F   UNL     1       0.132   9.618  23.809  0.00  0.00    +0.000 F 
ATOM     20  F   UNL     1      -1.520  10.773  23.011  0.00  0.00    +0.000 F 
ENDBRANCH  17  18
ENDBRANCH  16  17
ENDBRANCH   5   7
BRANCH   1  23
ATOM     21  O   UNL     1      -1.311  13.622  21.114  0.00  0.00    +0.000 OA
ATOM     22  C   UNL     1      -1.885  12.874  20.329  0.00  0.00    +0.000 C 
ATOM     23  N   UNL     1      -1.289  12.226  19.269  0.00  0.00    +0.000 N 
ATOM     24  H   UNL     1      -1.826  11.471  18.864  0.00  0.00    +0.000 HD
BRANCH  22  25
ATOM     25  C   UNL     1      -3.295  12.556  20.491  0.00  0.00    +0.000 A 
ATOM     26  C   UNL     1      -4.063  12.703  21.665  0.00  0.00    +0.000 A 
ATOM     27  N   UNL     1      -5.351  12.404  21.494  0.00  0.00    +0.000 NA
ATOM     28  N   UNL     1      -5.445  12.059  20.191  0.00  0.00    +0.000 N 
ATOM     29  C   UNL     1      -6.595  11.740  19.480  0.00  0.00    +0.000 A 
ATOM     30  C   UNL     1      -6.520  11.408  18.184  0.00  0.00    +0.000 A 
ATOM     31  C   UNL     1      -5.144  11.378  17.614  0.00  0.00    +0.000 A 
ATOM     32  N   UNL     1      -4.047  11.689  18.247  0.00  0.00    +0.000 NA
ATOM     33  C   UNL     1      -4.198  12.071  19.559  0.00  0.00    +0.000 A 
ENDBRANCH  22  25
ENDBRANCH   1  23
TORSDOF 5
ENDMDL
MODEL 6
REMARK VINA RESULT:      -8.2      6.218      9.011
REMARK  Name = 
REMARK  5 active torsions:
REMARK  status: ('A' for Active; 'I' for Inactive)
REMARK    1  A    between atoms: C_2  and  C_23
REMARK    2  A    between atoms: N_3  and  C_4
REMARK    3  A    between atoms: C_8  and  C_9
REMARK    4  A    between atoms: C_18  and  O_19
REMARK    5  A    between atoms: O_19  and  C_20
REMARK                            x       y       z     vdW  Elec       q    Type
REMARK                         _______ _______ _______ _____ _____    ______ ____
ROOT
ATOM      1  C   UNL     1      -0.409  13.371  19.120  0.00  0.00    +0.000 A 
ATOM      2  C   UNL     1       0.014  14.648  18.844  0.00  0.00    +0.000 A 
ATOM      3  N   UNL     1       1.369  14.601  18.831  0.00  0.00    +0.000 N 
ATOM      4  N   UNL     1       1.874  13.387  19.099  0.00  0.00    +0.000 NA
ATOM      5  C   UNL     1       0.798  12.606  19.307  0.00  0.00    +0.000 A 
ATOM      6  H   UNL     1       2.016  15.357  18.634  0.00  0.00    +0.000 HD
ENDROOT
BRANCH   5   7
ATOM      7  C   UNL     1       0.950  11.192  19.694  0.00  0.00    +0.000 A 
ATOM      8  C   UNL     1       1.442  10.304  18.714  0.00  0.00    +0.000 A 
ATOM      9  C   UNL     1       1.684   8.946  18.963  0.00  0.00    +0.000 A 
ATOM     10  C   UNL     1       2.151   8.096  17.949  0.00  0.00    +0.000 A 
ATOM     11  C   UNL     1       2.449   6.762  18.222  0.00  0.00    +0.000 A 
ATOM     12  C   UNL     1       2.280   6.268  19.512  0.00  0.00    +0.000 A 
ATOM     13  C   UNL     1       1.792   7.101  20.523  0.00  0.00    +0.000 A 
ATOM     14  C   UNL     1       1.481   8.446  20.257  0.00  0.00    +0.000 A 
ATOM     15  C   UNL     1       0.994   9.314  21.246  0.00  0.00    +0.000 A 
ATOM     16  C   UNL     1       0.703  10.669  20.979  0.00  0.00    +0.000 A 
BRANCH  16  17
ATOM     17  O   UNL     1       0.285  11.319  22.108  0.00  0.00    +0.000 OA
BRANCH  17  18
ATOM     18  C   UNL     1      -1.027  11.095  22.599  0.00  0.00    +0.000 C 
ATOM     19  F   UNL     1      -1.042  10.149  23.568  0.00  0.00    +0.000 F 
ATOM     20  F   UNL     1      -1.418  12.253  23.203  0.00  0.00    +0.000 F 
ENDBRANCH  17  18
ENDBRANCH  16  17
ENDBRANCH   5   7
BRANCH   1  23
ATOM     21  O   UNL     1      -1.710  11.552  17.311  0.00  0.00    +0.000 OA
ATOM     22  C   UNL     1      -2.286  12.052  18.273  0.00  0.00    +0.000 C 
ATOM     23  N   UNL     1      -1.734  12.966  19.143  0.00  0.00    +0.000 N 
ATOM     24  H   UNL     1      -2.393  13.459  19.732  0.00  0.00    +0.000 HD
BRANCH  22  25
ATOM     25  C   UNL     1      -3.679  11.741  18.555  0.00  0.00    +0.000 A 
ATOM     26  C   UNL     1      -4.512  10.864  17.831  0.00  0.00    +0.000 A 
ATOM     27  N   UNL     1      -5.722  10.718  18.370  0.00  0.00    +0.000 NA
ATOM     28  N   UNL     1      -5.695  11.503  19.470  0.00  0.00    +0.000 N 
ATOM     29  C   UNL     1      -6.686  11.643  20.434  0.00  0.00    +0.000 A 
ATOM     30  C   UNL     1      -6.509  12.475  21.470  0.00  0.00    +0.000 A 
ATOM     31  C   UNL     1      -5.225  13.230  21.467  0.00  0.00    +0.000 A 
ATOM     32  N   UNL     1      -4.269  13.109  20.589  0.00  0.00    +0.000 NA
ATOM     33  C   UNL     1      -4.489  12.201  19.581  0.00  0.00    +0.000 A 
ENDBRANCH  22  25
ENDBRANCH   1  23
TORSDOF 5
ENDMDL
MODEL 7
REMARK VINA RESULT:      -8.2      5.958      8.976
REMARK  Name = 
REMARK  5 active torsions:
REMARK  status: ('A' for Active; 'I' for Inactive)
REMARK    1  A    between atoms: C_2  and  C_23
REMARK    2  A    between atoms: N_3  and  C_4
REMARK    3  A    between atoms: C_8  and  C_9
REMARK    4  A    between atoms: C_18  and  O_19
REMARK    5  A    between atoms: O_19  and  C_20
REMARK                            x       y       z     vdW  Elec       q    Type
REMARK                         _______ _______ _______ _____ _____    ______ ____
ROOT
ATOM      1  C   UNL     1      -0.451  13.046  18.994  0.00  0.00    +0.000 A 
ATOM      2  C   UNL     1      -0.067  14.351  18.812  0.00  0.00    +0.000 A 
ATOM      3  N   UNL     1       1.282  14.370  18.950  0.00  0.00    +0.000 N 
ATOM      4  N   UNL     1       1.816  13.172  19.232  0.00  0.00    +0.000 NA
ATOM      5  C   UNL     1       0.766  12.332  19.290  0.00  0.00    +0.000 A 
ATOM      6  H   UNL     1       1.907  15.164  18.853  0.00  0.00    +0.000 HD
ENDROOT
BRANCH   5   7
ATOM      7  C   UNL     1       0.949  10.913  19.643  0.00  0.00    +0.000 A 
ATOM      8  C   UNL     1       1.506  10.070  18.659  0.00  0.00    +0.000 A 
ATOM      9  C   UNL     1       1.781   8.713  18.879  0.00  0.00    +0.000 A 
ATOM     10  C   UNL     1       2.314   7.907  17.861  0.00  0.00    +0.000 A 
ATOM     11  C   UNL     1       2.644   6.576  18.109  0.00  0.00    +0.000 A 
ATOM     12  C   UNL     1       2.440   6.040  19.376  0.00  0.00    +0.000 A 
ATOM     13  C   UNL     1       1.888   6.828  20.390  0.00  0.00    +0.000 A 
ATOM     14  C   UNL     1       1.545   8.169  20.150  0.00  0.00    +0.000 A 
ATOM     15  C   UNL     1       0.992   8.994  21.142  0.00  0.00    +0.000 A 
ATOM     16  C   UNL     1       0.669  10.346  20.902  0.00  0.00    +0.000 A 
BRANCH  16  17
ATOM     17  O   UNL     1       0.187  10.950  22.031  0.00  0.00    +0.000 OA
BRANCH  17  18
ATOM     18  C   UNL     1      -0.695  10.236  22.884  0.00  0.00    +0.000 C 
ATOM     19  F   UNL     1      -0.032   9.648  23.907  0.00  0.00    +0.000 F 
ATOM     20  F   UNL     1      -1.515  11.164  23.455  0.00  0.00    +0.000 F 
ENDBRANCH  17  18
ENDBRANCH  16  17
ENDBRANCH   5   7
BRANCH   1  23
ATOM     21  O   UNL     1      -2.462  12.830  21.040  0.00  0.00    +0.000 OA
ATOM     22  C   UNL     1      -2.680  12.544  19.866  0.00  0.00    +0.000 C 
ATOM     23  N   UNL     1      -1.746  12.577  18.853  0.00  0.00    +0.000 N 
ATOM     24  H   UNL     1      -2.009  12.093  18.005  0.00  0.00    +0.000 HD
BRANCH  22  25
ATOM     25  C   UNL     1      -3.990  12.076  19.441  0.00  0.00    +0.000 A 
ATOM     26  C   UNL     1      -4.322  11.522  18.187  0.00  0.00    +0.000 A 
ATOM     27  N   UNL     1      -5.587  11.110  18.110  0.00  0.00    +0.000 NA
ATOM     28  N   UNL     1      -6.104  11.387  19.327  0.00  0.00    +0.000 N 
ATOM     29  C   UNL     1      -7.375  11.078  19.798  0.00  0.00    +0.000 A 
ATOM     30  C   UNL     1      -7.742  11.431  21.037  0.00  0.00    +0.000 A 
ATOM     31  C   UNL     1      -6.719  12.188  21.812  0.00  0.00    +0.000 A 
ATOM     32  N   UNL     1      -5.515  12.479  21.407  0.00  0.00    +0.000 NA
ATOM     33  C   UNL     1      -5.181  12.043  20.147  0.00  0.00    +0.000 A 
ENDBRANCH  22  25
ENDBRANCH   1  23
TORSDOF 5
ENDMDL
MODEL 8
REMARK VINA RESULT:      -8.1      2.365      7.356
REMARK  Name = 
REMARK  5 active torsions:
REMARK  status: ('A' for Active; 'I' for Inactive)
REMARK    1  A    between atoms: C_2  and  C_23
REMARK    2  A    between atoms: N_3  and  C_4
REMARK    3  A    between atoms: C_8  and  C_9
REMARK    4  A    between atoms: C_18  and  O_19
REMARK    5  A    between atoms: O_19  and  C_20
REMARK                            x       y       z     vdW  Elec       q    Type
REMARK                         _______ _______ _______ _____ _____    ______ ____
ROOT
ATOM      1  C   UNL     1       3.466   3.902  19.940  0.00  0.00    +0.000 A 
ATOM      2  C   UNL     1       3.315   2.705  20.596  0.00  0.00    +0.000 A 
ATOM      3  N   UNL     1       2.170   2.811  21.314  0.00  0.00    +0.000 N 
ATOM      4  N   UNL     1       1.562   4.001  21.195  0.00  0.00    +0.000 NA
ATOM      5  C   UNL     1       2.352   4.710  20.368  0.00  0.00    +0.000 A 
ATOM      6  H   UNL     1       1.734   2.106  21.899  0.00  0.00    +0.000 HD
ENDROOT
BRANCH   5   7
ATOM      7  C   UNL     1       2.041   6.113  20.040  0.00  0.00    +0.000 A 
ATOM      8  C   UNL     1       1.278   6.841  20.978  0.00  0.00    +0.000 A 
ATOM      9  C   UNL     1       0.956   8.196  20.815  0.00  0.00    +0.000 A 
ATOM     10  C   UNL     1       0.173   8.872  21.764  0.00  0.00    +0.000 A 
ATOM     11  C   UNL     1      -0.089  10.234  21.626  0.00  0.00    +0.000 A 
ATOM     12  C   UNL     1       0.429  10.929  20.538  0.00  0.00    +0.000 A 
ATOM     13  C   UNL     1       1.190  10.259  19.576  0.00  0.00    +0.000 A 
ATOM     14  C   UNL     1       1.454   8.884  19.700  0.00  0.00    +0.000 A 
ATOM     15  C   UNL     1       2.216   8.177  18.758  0.00  0.00    +0.000 A 
ATOM     16  C   UNL     1       2.497   6.801  18.898  0.00  0.00    +0.000 A 
BRANCH  16  17
ATOM     17  O   UNL     1       3.291   6.350  17.880  0.00  0.00    +0.000 OA
BRANCH  17  18
ATOM     18  C   UNL     1       4.160   7.254  17.217  0.00  0.00    +0.000 C 
ATOM     19  F   UNL     1       5.410   7.216  17.737  0.00  0.00    +0.000 F 
ATOM     20  F   UNL     1       4.277   6.808  15.934  0.00  0.00    +0.000 F 
ENDBRANCH  17  18
ENDBRANCH  16  17
ENDBRANCH   5   7
BRANCH   1  23
ATOM     21  O   UNL     1       4.025   2.523  17.478  0.00  0.00    +0.000 OA
ATOM     22  C   UNL     1       4.657   3.511  17.840  0.00  0.00    +0.000 C 
ATOM     23  N   UNL     1       4.471   4.182  19.029  0.00  0.00    +0.000 N 
ATOM     24  H   UNL     1       5.213   4.818  19.290  0.00  0.00    +0.000 HD
BRANCH  22  25
ATOM     25  C   UNL     1       5.738   4.047  17.027  0.00  0.00    +0.000 A 
ATOM     26  C   UNL     1       6.970   4.553  17.490  0.00  0.00    +0.000 A 
ATOM     27  N   UNL     1       7.800   4.905  16.507  0.00  0.00    +0.000 NA
ATOM     28  N   UNL     1       7.115   4.627  15.376  0.00  0.00    +0.000 N 
ATOM     29  C   UNL     1       7.565   4.733  14.066  0.00  0.00    +0.000 A 
ATOM     30  C   UNL     1       6.755   4.424  13.044  0.00  0.00    +0.000 A 
ATOM     31  C   UNL     1       5.376   4.013  13.429  0.00  0.00    +0.000 A 
ATOM     32  N   UNL     1       4.927   3.886  14.646  0.00  0.00    +0.000 NA
ATOM     33  C   UNL     1       5.823   4.167  15.650  0.00  0.00    +0.000 A 
ENDBRANCH  22  25
ENDBRANCH   1  23
TORSDOF 5
ENDMDL
MODEL 9
REMARK VINA RESULT:      -8.0      5.160      7.897
REMARK  Name = 
REMARK  5 active torsions:
REMARK  status: ('A' for Active; 'I' for Inactive)
REMARK    1  A    between atoms: C_2  and  C_23
REMARK    2  A    between atoms: N_3  and  C_4
REMARK    3  A    between atoms: C_8  and  C_9
REMARK    4  A    between atoms: C_18  and  O_19
REMARK    5  A    between atoms: O_19  and  C_20
REMARK                            x       y       z     vdW  Elec       q    Type
REMARK                         _______ _______ _______ _____ _____    ______ ____
ROOT
ATOM      1  C   UNL     1      -0.269  11.068  21.734  0.00  0.00    +0.000 A 
ATOM      2  C   UNL     1      -1.035  11.047  22.873  0.00  0.00    +0.000 A 
ATOM      3  N   UNL     1      -1.043   9.758  23.297  0.00  0.00    +0.000 N 
ATOM      4  N   UNL     1      -0.353   8.922  22.508  0.00  0.00    +0.000 NA
ATOM      5  C   UNL     1       0.121   9.698  21.515  0.00  0.00    +0.000 A 
ATOM      6  H   UNL     1      -1.489   9.378  24.125  0.00  0.00    +0.000 HD
ENDROOT
BRANCH   5   7
ATOM      7  C   UNL     1       0.891   9.118  20.401  0.00  0.00    +0.000 A 
ATOM      8  C   UNL     1       1.614   7.934  20.662  0.00  0.00    +0.000 A 
ATOM      9  C   UNL     1       2.345   7.251  19.681  0.00  0.00    +0.000 A 
ATOM     10  C   UNL     1       3.068   6.089  19.995  0.00  0.00    +0.000 A 
ATOM     11  C   UNL     1       3.740   5.381  19.000  0.00  0.00    +0.000 A 
ATOM     12  C   UNL     1       3.695   5.831  17.684  0.00  0.00    +0.000 A 
ATOM     13  C   UNL     1       2.998   6.999  17.366  0.00  0.00    +0.000 A 
ATOM     14  C   UNL     1       2.323   7.726  18.362  0.00  0.00    +0.000 A 
ATOM     15  C   UNL     1       1.609   8.901  18.083  0.00  0.00    +0.000 A 
ATOM     16  C   UNL     1       0.914   9.615  19.083  0.00  0.00    +0.000 A 
BRANCH  16  17
ATOM     17  O   UNL     1       0.262  10.697  18.558  0.00  0.00    +0.000 OA
BRANCH  17  18
ATOM     18  C   UNL     1      -0.989  10.514  17.913  0.00  0.00    +0.000 C 
ATOM     19  F   UNL     1      -1.917  10.008  18.760  0.00  0.00    +0.000 F 
ATOM     20  F   UNL     1      -1.434  11.758  17.573  0.00  0.00    +0.000 F 
ENDBRANCH  17  18
ENDBRANCH  16  17
ENDBRANCH   5   7
BRANCH   1  23
ATOM     21  O   UNL     1      -2.067  12.931  20.481  0.00  0.00    +0.000 OA
ATOM     22  C   UNL     1      -0.851  13.092  20.490  0.00  0.00    +0.000 C 
ATOM     23  N   UNL     1       0.064  12.212  21.028  0.00  0.00    +0.000 N 
ATOM     24  H   UNL     1       1.025  12.363  20.752  0.00  0.00    +0.000 HD
BRANCH  22  25
ATOM     25  C   UNL     1      -0.245  14.256  19.861  0.00  0.00    +0.000 A 
ATOM     26  C   UNL     1      -0.764  15.566  19.834  0.00  0.00    +0.000 A 
ATOM     27  N   UNL     1       0.051  16.445  19.249  0.00  0.00    +0.000 NA
ATOM     28  N   UNL     1       1.128  15.714  18.887  0.00  0.00    +0.000 N 
ATOM     29  C   UNL     1       2.307  16.171  18.312  0.00  0.00    +0.000 A 
ATOM     30  C   UNL     1       3.287  15.311  18.001  0.00  0.00    +0.000 A 
ATOM     31  C   UNL     1       2.988  13.879  18.283  0.00  0.00    +0.000 A 
ATOM     32  N   UNL     1       1.901  13.419  18.836  0.00  0.00    +0.000 NA
ATOM     33  C   UNL     1       0.957  14.357  19.180  0.00  0.00    +0.000 A 
ENDBRANCH  22  25
ENDBRANCH   1  23
TORSDOF 5
ENDMDL
