MODEL 1
REMARK VINA RESULT:      -7.7      0.000      0.000
REMARK  Name = 
REMARK  4 active torsions:
REMARK  status: ('A' for Active; 'I' for Inactive)
REMARK    1  A    between atoms: O_1  and  C_2
REMARK    2  A    between atoms: C_2  and  C_3
REMARK    3  A    between atoms: C_6  and  C_7
REMARK    4  A    between atoms: C_12  and  C_13
REMARK                            x       y       z     vdW  Elec       q    Type
REMARK                         _______ _______ _______ _____ _____    ______ ____
ROOT
ATOM      1  C   UNK     1       3.353   4.154  19.681  0.00  0.00    +0.000 A 
ATOM      2  C   UNK     1       3.294   2.806  20.128  0.00  0.00    +0.000 A 
ATOM      3  C   UNK     1       2.161   2.281  20.745  0.00  0.00    +0.000 A 
ATOM      4  C   UNK     1       1.055   3.091  20.937  0.00  0.00    +0.000 A 
ATOM      5  C   UNK     1       1.090   4.423  20.516  0.00  0.00    +0.000 A 
ATOM      6  C   UNK     1       2.219   4.995  19.874  0.00  0.00    +0.000 A 
ENDROOT
BRANCH   6   7
ATOM      7  C   UNK     1       2.125   6.425  19.442  0.00  0.00    +0.000 A 
ATOM      8  C   UNK     1       2.423   6.848  18.134  0.00  0.00    +0.000 A 
ATOM      9  C   UNK     1       2.251   8.179  17.731  0.00  0.00    +0.000 A 
ATOM     10  C   UNK     1       1.846   9.142  18.647  0.00  0.00    +0.000 A 
ATOM     11  C   UNK     1       1.612   8.773  19.967  0.00  0.00    +0.000 A 
ATOM     12  C   UNK     1       1.736   7.433  20.352  0.00  0.00    +0.000 A 
ENDBRANCH   6   7
BRANCH   1  16
ATOM     13  C   UNK     1       6.671   5.359  18.721  0.00  0.00    +0.000 A 
ATOM     14  C   UNK     1       6.418   4.938  17.431  0.00  0.00    +0.000 A 
ATOM     15  S   UNK     1       4.855   4.251  17.331  0.00  0.00    +0.000 S 
ATOM     16  C   UNK     1       4.593   4.601  19.007  0.00  0.00    +0.000 A 
ATOM     17  N   UNK     1       5.592   5.233  19.588  0.00  0.00    +0.000 NA
BRANCH  13  18
ATOM     18  C   UNK     1       7.952   5.898  19.259  0.00  0.00    +0.000 C 
BRANCH  18  19
ATOM     19  O   UNK     1       8.189   5.488  20.606  0.00  0.00    +0.000 OA
ATOM     20  H   UNK     1       8.665   4.644  20.550  0.00  0.00    +0.000 HD
ENDBRANCH  18  19
ENDBRANCH  13  18
ENDBRANCH   1  16
TORSDOF 4
ENDMDL
MODEL 2
REMARK VINA RESULT:      -7.6      1.236      1.315
REMARK  Name = 
REMARK  4 active torsions:
REMARK  status: ('A' for Active; 'I' for Inactive)
REMARK    1  A    between atoms: O_1  and  C_2
REMARK    2  A    between atoms: C_2  and  C_3
REMARK    3  A    between atoms: C_6  and  C_7
REMARK    4  A    between atoms: C_12  and  C_13
REMARK                            x       y       z     vdW  Elec       q    Type
REMARK                         _______ _______ _______ _____ _____    ______ ____
ROOT
ATOM      1  C   UNK     1       3.709   3.997  18.275  0.00  0.00    +0.000 A 
ATOM      2  C   UNK     1       3.766   2.590  18.087  0.00  0.00    +0.000 A 
ATOM      3  C   UNK     1       2.648   1.776  18.248  0.00  0.00    +0.000 A 
ATOM      4  C   UNK     1       1.439   2.346  18.607  0.00  0.00    +0.000 A 
ATOM      5  C   UNK     1       1.356   3.726  18.809  0.00  0.00    +0.000 A 
ATOM      6  C   UNK     1       2.468   4.593  18.645  0.00  0.00    +0.000 A 
ENDROOT
BRANCH   6   7
ATOM      7  C   UNK     1       2.247   6.058  18.860  0.00  0.00    +0.000 A 
ATOM      8  C   UNK     1       2.298   6.998  17.815  0.00  0.00    +0.000 A 
ATOM      9  C   UNK     1       2.010   8.353  18.026  0.00  0.00    +0.000 A 
ATOM     10  C   UNK     1       1.734   8.820  19.305  0.00  0.00    +0.000 A 
ATOM     11  C   UNK     1       1.746   7.931  20.374  0.00  0.00    +0.000 A 
ATOM     12  C   UNK     1       1.984   6.569  20.149  0.00  0.00    +0.000 A 
ENDBRANCH   6   7
BRANCH   1  16
ATOM     13  C   UNK     1       6.936   5.714  18.419  0.00  0.00    +0.000 A 
ATOM     14  C   UNK     1       6.873   5.881  17.050  0.00  0.00    +0.000 A 
ATOM     15  S   UNK     1       5.426   5.206  16.439  0.00  0.00    +0.000 S 
ATOM     16  C   UNK     1       4.948   4.773  18.046  0.00  0.00    +0.000 A 
ATOM     17  N   UNK     1       5.795   5.153  18.981  0.00  0.00    +0.000 NA
BRANCH  13  18
ATOM     18  C   UNK     1       8.077   6.046  19.317  0.00  0.00    +0.000 C 
BRANCH  18  19
ATOM     19  O   UNK     1       7.994   5.371  20.571  0.00  0.00    +0.000 OA
ATOM     20  H   UNK     1       7.262   5.789  21.054  0.00  0.00    +0.000 HD
ENDBRANCH  18  19
ENDBRANCH  13  18
ENDBRANCH   1  16
TORSDOF 4
ENDMDL
MODEL 3
REMARK VINA RESULT:      -7.5      1.284      1.722
REMARK  Name = 
REMARK  4 active torsions:
REMARK  status: ('A' for Active; 'I' for Inactive)
REMARK    1  A    between atoms: O_1  and  C_2
REMARK    2  A    between atoms: C_2  and  C_3
REMARK    3  A    between atoms: C_6  and  C_7
REMARK    4  A    between atoms: C_12  and  C_13
REMARK                            x       y       z     vdW  Elec       q    Type
REMARK                         _______ _______ _______ _____ _____    ______ ____
ROOT
ATOM      1  C   UNK     1       3.698   4.029  18.218  0.00  0.00    +0.000 A 
ATOM      2  C   UNK     1       3.778   2.629  17.989  0.00  0.00    +0.000 A 
ATOM      3  C   UNK     1       2.673   1.793  18.129  0.00  0.00    +0.000 A 
ATOM      4  C   UNK     1       1.457   2.332  18.509  0.00  0.00    +0.000 A 
ATOM      5  C   UNK     1       1.352   3.704  18.751  0.00  0.00    +0.000 A 
ATOM      6  C   UNK     1       2.449   4.594  18.610  0.00  0.00    +0.000 A 
ENDROOT
BRANCH   6   7
ATOM      7  C   UNK     1       2.205   6.048  18.869  0.00  0.00    +0.000 A 
ATOM      8  C   UNK     1       1.923   6.557  20.149  0.00  0.00    +0.000 A 
ATOM      9  C   UNK     1       1.777   7.931  20.382  0.00  0.00    +0.000 A 
ATOM     10  C   UNK     1       1.834   8.831  19.324  0.00  0.00    +0.000 A 
ATOM     11  C   UNK     1       2.040   8.355  18.034  0.00  0.00    +0.000 A 
ATOM     12  C   UNK     1       2.236   6.986  17.815  0.00  0.00    +0.000 A 
ENDBRANCH   6   7
BRANCH   1  16
ATOM     13  C   UNK     1       6.926   5.743  18.376  0.00  0.00    +0.000 A 
ATOM     14  C   UNK     1       6.796   6.047  17.035  0.00  0.00    +0.000 A 
ATOM     15  S   UNK     1       5.320   5.428  16.431  0.00  0.00    +0.000 S 
ATOM     16  C   UNK     1       4.923   4.832  18.008  0.00  0.00    +0.000 A 
ATOM     17  N   UNK     1       5.815   5.121  18.933  0.00  0.00    +0.000 NA
BRANCH  13  18
ATOM     18  C   UNK     1       8.110   5.990  19.245  0.00  0.00    +0.000 C 
BRANCH  18  19
ATOM     19  O   UNK     1       7.944   5.446  20.554  0.00  0.00    +0.000 OA
ATOM     20  H   UNK     1       8.815   5.499  20.980  0.00  0.00    +0.000 HD
ENDBRANCH  18  19
ENDBRANCH  13  18
ENDBRANCH   1  16
TORSDOF 4
ENDMDL
MODEL 4
REMARK VINA RESULT:      -7.5      0.094      1.103
REMARK  Name = 
REMARK  4 active torsions:
REMARK  status: ('A' for Active; 'I' for Inactive)
REMARK    1  A    between atoms: O_1  and  C_2
REMARK    2  A    between atoms: C_2  and  C_3
REMARK    3  A    between atoms: C_6  and  C_7
REMARK    4  A    between atoms: C_12  and  C_13
REMARK                            x       y       z     vdW  Elec       q    Type
REMARK                         _______ _______ _______ _____ _____    ______ ____
ROOT
ATOM      1  C   UNK     1       3.365   4.113  19.703  0.00  0.00    +0.000 A 
ATOM      2  C   UNK     1       3.315   2.771  20.166  0.00  0.00    +0.000 A 
ATOM      3  C   UNK     1       2.186   2.246  20.791  0.00  0.00    +0.000 A 
ATOM      4  C   UNK     1       1.075   3.051  20.975  0.00  0.00    +0.000 A 
ATOM      5  C   UNK     1       1.101   4.378  20.539  0.00  0.00    +0.000 A 
ATOM      6  C   UNK     1       2.226   4.950  19.888  0.00  0.00    +0.000 A 
ENDROOT
BRANCH   6   7
ATOM      7  C   UNK     1       2.122   6.374  19.440  0.00  0.00    +0.000 A 
ATOM      8  C   UNK     1       1.677   7.408  20.283  0.00  0.00    +0.000 A 
ATOM      9  C   UNK     1       1.663   8.746  19.866  0.00  0.00    +0.000 A 
ATOM     10  C   UNK     1       2.025   9.079  18.567  0.00  0.00    +0.000 A 
ATOM     11  C   UNK     1       2.402   8.073  17.684  0.00  0.00    +0.000 A 
ATOM     12  C   UNK     1       2.462   6.745  18.121  0.00  0.00    +0.000 A 
ENDBRANCH   6   7
BRANCH   1  16
ATOM     13  C   UNK     1       6.664   5.352  18.724  0.00  0.00    +0.000 A 
ATOM     14  C   UNK     1       6.433   4.872  17.449  0.00  0.00    +0.000 A 
ATOM     15  S   UNK     1       4.886   4.148  17.364  0.00  0.00    +0.000 S 
ATOM     16  C   UNK     1       4.601   4.559  19.023  0.00  0.00    +0.000 A 
ATOM     17  N   UNK     1       5.580   5.237  19.585  0.00  0.00    +0.000 NA
BRANCH  13  18
ATOM     18  C   UNK     1       7.928   5.940  19.249  0.00  0.00    +0.000 C 
BRANCH  18  19
ATOM     19  O   UNK     1       8.262   5.438  20.543  0.00  0.00    +0.000 OA
ATOM     20  H   UNK     1       7.444   5.475  21.065  0.00  0.00    +0.000 HD
ENDBRANCH  18  19
ENDBRANCH  13  18
ENDBRANCH   1  16
TORSDOF 4
ENDMDL
MODEL 5
REMARK VINA RESULT:      -7.3      2.786      5.406
REMARK  Name = 
REMARK  4 active torsions:
REMARK  status: ('A' for Active; 'I' for Inactive)
REMARK    1  A    between atoms: O_1  and  C_2
REMARK    2  A    between atoms: C_2  and  C_3
REMARK    3  A    between atoms: C_6  and  C_7
REMARK    4  A    between atoms: C_12  and  C_13
REMARK                            x       y       z     vdW  Elec       q    Type
REMARK                         _______ _______ _______ _____ _____    ______ ____
ROOT
ATOM      1  C   UNK     1       3.421   6.616  17.927  0.00  0.00    +0.000 A 
ATOM      2  C   UNK     1       4.274   7.205  16.956  0.00  0.00    +0.000 A 
ATOM      3  C   UNK     1       5.149   6.446  16.182  0.00  0.00    +0.000 A 
ATOM      4  C   UNK     1       5.198   5.075  16.361  0.00  0.00    +0.000 A 
ATOM      5  C   UNK     1       4.378   4.470  17.317  0.00  0.00    +0.000 A 
ATOM      6  C   UNK     1       3.465   5.204  18.119  0.00  0.00    +0.000 A 
ENDROOT
BRANCH   6   7
ATOM      7  C   UNK     1       2.617   4.440  19.088  0.00  0.00    +0.000 A 
ATOM      8  C   UNK     1       1.389   3.855  18.729  0.00  0.00    +0.000 A 
ATOM      9  C   UNK     1       0.651   3.077  19.631  0.00  0.00    +0.000 A 
ATOM     10  C   UNK     1       1.084   2.924  20.942  0.00  0.00    +0.000 A 
ATOM     11  C   UNK     1       2.257   3.547  21.351  0.00  0.00    +0.000 A 
ATOM     12  C   UNK     1       3.017   4.281  20.432  0.00  0.00    +0.000 A 
ENDBRANCH   6   7
BRANCH   1  16
ATOM     13  C   UNK     1       1.426   8.464  20.375  0.00  0.00    +0.000 A 
ATOM     14  C   UNK     1       1.105   9.369  19.383  0.00  0.00    +0.000 A 
ATOM     15  S   UNK     1       1.840   8.915  17.908  0.00  0.00    +0.000 S 
ATOM     16  C   UNK     1       2.506   7.510  18.672  0.00  0.00    +0.000 A 
ATOM     17  N   UNK     1       2.159   7.368  19.934  0.00  0.00    +0.000 NA
BRANCH  13  18
ATOM     18  C   UNK     1       1.093   8.556  21.824  0.00  0.00    +0.000 C 
BRANCH  18  19
ATOM     19  O   UNK     1       2.081   9.275  22.562  0.00  0.00    +0.000 OA
ATOM     20  H   UNK     1       1.736   9.352  23.467  0.00  0.00    +0.000 HD
ENDBRANCH  18  19
ENDBRANCH  13  18
ENDBRANCH   1  16
TORSDOF 4
ENDMDL
MODEL 6
REMARK VINA RESULT:      -7.3      2.770      5.446
REMARK  Name = 
REMARK  4 active torsions:
REMARK  status: ('A' for Active; 'I' for Inactive)
REMARK    1  A    between atoms: O_1  and  C_2
REMARK    2  A    between atoms: C_2  and  C_3
REMARK    3  A    between atoms: C_6  and  C_7
REMARK    4  A    between atoms: C_12  and  C_13
REMARK                            x       y       z     vdW  Elec       q    Type
REMARK                         _______ _______ _______ _____ _____    ______ ____
ROOT
ATOM      1  C   UNK     1       3.472   6.539  17.870  0.00  0.00    +0.000 A 
ATOM      2  C   UNK     1       4.311   7.131  16.888  0.00  0.00    +0.000 A 
ATOM      3  C   UNK     1       5.180   6.374  16.105  0.00  0.00    +0.000 A 
ATOM      4  C   UNK     1       5.239   5.004  16.286  0.00  0.00    +0.000 A 
ATOM      5  C   UNK     1       4.432   4.397  17.252  0.00  0.00    +0.000 A 
ATOM      6  C   UNK     1       3.525   5.128  18.064  0.00  0.00    +0.000 A 
ENDROOT
BRANCH   6   7
ATOM      7  C   UNK     1       2.692   4.362  19.043  0.00  0.00    +0.000 A 
ATOM      8  C   UNK     1       3.100   4.124  20.368  0.00  0.00    +0.000 A 
ATOM      9  C   UNK     1       2.269   3.473  21.291  0.00  0.00    +0.000 A 
ATOM     10  C   UNK     1       1.035   2.974  20.892  0.00  0.00    +0.000 A 
ATOM     11  C   UNK     1       0.631   3.128  19.571  0.00  0.00    +0.000 A 
ATOM     12  C   UNK     1       1.443   3.824  18.667  0.00  0.00    +0.000 A 
ENDBRANCH   6   7
BRANCH   1  16
ATOM     13  C   UNK     1       1.476   8.364  20.333  0.00  0.00    +0.000 A 
ATOM     14  C   UNK     1       1.176   9.293  19.357  0.00  0.00    +0.000 A 
ATOM     15  S   UNK     1       1.920   8.858  17.880  0.00  0.00    +0.000 S 
ATOM     16  C   UNK     1       2.561   7.430  18.622  0.00  0.00    +0.000 A 
ATOM     17  N   UNK     1       2.199   7.267  19.878  0.00  0.00    +0.000 NA
BRANCH  13  18
ATOM     18  C   UNK     1       1.129   8.433  21.780  0.00  0.00    +0.000 C 
BRANCH  18  19
ATOM     19  O   UNK     1       2.020   9.274  22.512  0.00  0.00    +0.000 OA
ATOM     20  H   UNK     1       1.532  10.095  22.687  0.00  0.00    +0.000 HD
ENDBRANCH  18  19
ENDBRANCH  13  18
ENDBRANCH   1  16
TORSDOF 4
ENDMDL
MODEL 7
REMARK VINA RESULT:      -7.3      2.941      4.952
REMARK  Name = 
REMARK  4 active torsions:
REMARK  status: ('A' for Active; 'I' for Inactive)
REMARK    1  A    between atoms: O_1  and  C_2
REMARK    2  A    between atoms: C_2  and  C_3
REMARK    3  A    between atoms: C_6  and  C_7
REMARK    4  A    between atoms: C_12  and  C_13
REMARK                            x       y       z     vdW  Elec       q    Type
REMARK                         _______ _______ _______ _____ _____    ______ ____
ROOT
ATOM      1  C   UNK     1       2.618   4.799  18.497  0.00  0.00    +0.000 A 
ATOM      2  C   UNK     1       1.497   3.927  18.517  0.00  0.00    +0.000 A 
ATOM      3  C   UNK     1       1.607   2.574  18.207  0.00  0.00    +0.000 A 
ATOM      4  C   UNK     1       2.843   2.054  17.863  0.00  0.00    +0.000 A 
ATOM      5  C   UNK     1       3.961   2.891  17.825  0.00  0.00    +0.000 A 
ATOM      6  C   UNK     1       3.895   4.274  18.144  0.00  0.00    +0.000 A 
ENDROOT
BRANCH   6   7
ATOM      7  C   UNK     1       5.167   5.061  18.097  0.00  0.00    +0.000 A 
ATOM      8  C   UNK     1       5.548   5.828  16.981  0.00  0.00    +0.000 A 
ATOM      9  C   UNK     1       6.704   6.620  16.990  0.00  0.00    +0.000 A 
ATOM     10  C   UNK     1       7.553   6.609  18.090  0.00  0.00    +0.000 A 
ATOM     11  C   UNK     1       7.244   5.807  19.182  0.00  0.00    +0.000 A 
ATOM     12  C   UNK     1       6.062   5.057  19.189  0.00  0.00    +0.000 A 
ENDBRANCH   6   7
BRANCH   1  16
ATOM     13  C   UNK     1       2.044   8.407  18.687  0.00  0.00    +0.000 A 
ATOM     14  C   UNK     1       1.782   8.264  20.035  0.00  0.00    +0.000 A 
ATOM     15  S   UNK     1       1.940   6.625  20.495  0.00  0.00    +0.000 S 
ATOM     16  C   UNK     1       2.396   6.213  18.876  0.00  0.00    +0.000 A 
ATOM     17  N   UNK     1       2.471   7.243  18.059  0.00  0.00    +0.000 NA
BRANCH  13  18
ATOM     18  C   UNK     1       1.899   9.642  17.866  0.00  0.00    +0.000 C 
BRANCH  18  19
ATOM     19  O   UNK     1       0.546  10.093  17.801  0.00  0.00    +0.000 OA
ATOM     20  H   UNK     1       0.477  10.616  16.985  0.00  0.00    +0.000 HD
ENDBRANCH  18  19
ENDBRANCH  13  18
ENDBRANCH   1  16
TORSDOF 4
ENDMDL
MODEL 8
REMARK VINA RESULT:      -7.2      2.982      5.077
REMARK  Name = 
REMARK  4 active torsions:
REMARK  status: ('A' for Active; 'I' for Inactive)
REMARK    1  A    between atoms: O_1  and  C_2
REMARK    2  A    between atoms: C_2  and  C_3
REMARK    3  A    between atoms: C_6  and  C_7
REMARK    4  A    between atoms: C_12  and  C_13
REMARK                            x       y       z     vdW  Elec       q    Type
REMARK                         _______ _______ _______ _____ _____    ______ ____
ROOT
ATOM      1  C   UNK     1       2.656   4.891  18.441  0.00  0.00    +0.000 A 
ATOM      2  C   UNK     1       1.550   4.001  18.411  0.00  0.00    +0.000 A 
ATOM      3  C   UNK     1       1.691   2.657  18.076  0.00  0.00    +0.000 A 
ATOM      4  C   UNK     1       2.944   2.164  17.755  0.00  0.00    +0.000 A 
ATOM      5  C   UNK     1       4.049   3.020  17.766  0.00  0.00    +0.000 A 
ATOM      6  C   UNK     1       3.951   4.394  18.112  0.00  0.00    +0.000 A 
ENDROOT
BRANCH   6   7
ATOM      7  C   UNK     1       5.211   5.202  18.117  0.00  0.00    +0.000 A 
ATOM      8  C   UNK     1       6.134   5.170  19.178  0.00  0.00    +0.000 A 
ATOM      9  C   UNK     1       7.344   5.873  19.126  0.00  0.00    +0.000 A 
ATOM     10  C   UNK     1       7.633   6.691  18.040  0.00  0.00    +0.000 A 
ATOM     11  C   UNK     1       6.711   6.803  17.006  0.00  0.00    +0.000 A 
ATOM     12  C   UNK     1       5.526   6.058  17.040  0.00  0.00    +0.000 A 
ENDBRANCH   6   7
BRANCH   1  16
ATOM     13  C   UNK     1       1.993   8.480  18.690  0.00  0.00    +0.000 A 
ATOM     14  C   UNK     1       1.740   8.309  20.036  0.00  0.00    +0.000 A 
ATOM     15  S   UNK     1       1.942   6.667  20.470  0.00  0.00    +0.000 S 
ATOM     16  C   UNK     1       2.401   6.292  18.843  0.00  0.00    +0.000 A 
ATOM     17  N   UNK     1       2.447   7.337  18.042  0.00  0.00    +0.000 NA
BRANCH  13  18
ATOM     18  C   UNK     1       1.814   9.724  17.890  0.00  0.00    +0.000 C 
BRANCH  18  19
ATOM     19  O   UNK     1       0.447  10.130  17.819  0.00  0.00    +0.000 OA
ATOM     20  H   UNK     1       0.250  10.558  18.669  0.00  0.00    +0.000 HD
ENDBRANCH  18  19
ENDBRANCH  13  18
ENDBRANCH   1  16
TORSDOF 4
ENDMDL
MODEL 9
REMARK VINA RESULT:      -7.2      2.606      4.511
REMARK  Name = 
REMARK  4 active torsions:
REMARK  status: ('A' for Active; 'I' for Inactive)
REMARK    1  A    between atoms: O_1  and  C_2
REMARK    2  A    between atoms: C_2  and  C_3
REMARK    3  A    between atoms: C_6  and  C_7
REMARK    4  A    between atoms: C_12  and  C_13
REMARK                            x       y       z     vdW  Elec       q    Type
REMARK                         _______ _______ _______ _____ _____    ______ ____
ROOT
ATOM      1  C   UNK     1       3.907   4.691  17.455  0.00  0.00    +0.000 A 
ATOM      2  C   UNK     1       4.815   3.955  16.647  0.00  0.00    +0.000 A 
ATOM      3  C   UNK     1       5.696   4.580  15.768  0.00  0.00    +0.000 A 
ATOM      4  C   UNK     1       5.690   5.960  15.666  0.00  0.00    +0.000 A 
ATOM      5  C   UNK     1       4.800   6.708  16.441  0.00  0.00    +0.000 A 
ATOM      6  C   UNK     1       3.893   6.113  17.358  0.00  0.00    +0.000 A 
ENDROOT
BRANCH   6   7
ATOM      7  C   UNK     1       3.010   7.022  18.154  0.00  0.00    +0.000 A 
ATOM      8  C   UNK     1       2.681   6.779  19.500  0.00  0.00    +0.000 A 
ATOM      9  C   UNK     1       1.918   7.685  20.249  0.00  0.00    +0.000 A 
ATOM     10  C   UNK     1       1.397   8.825  19.650  0.00  0.00    +0.000 A 
ATOM     11  C   UNK     1       1.642   9.061  18.302  0.00  0.00    +0.000 A 
ATOM     12  C   UNK     1       2.448   8.179  17.572  0.00  0.00    +0.000 A 
ENDBRANCH   6   7
BRANCH   1  16
ATOM     13  C   UNK     1       2.303   2.954  20.246  0.00  0.00    +0.000 A 
ATOM     14  C   UNK     1       1.141   2.896  19.502  0.00  0.00    +0.000 A 
ATOM     15  S   UNK     1       1.382   3.623  17.974  0.00  0.00    +0.000 S 
ATOM     16  C   UNK     1       3.038   3.931  18.380  0.00  0.00    +0.000 A 
ATOM     17  N   UNK     1       3.396   3.474  19.563  0.00  0.00    +0.000 NA
BRANCH  13  18
ATOM     18  C   UNK     1       2.485   2.547  21.667  0.00  0.00    +0.000 C 
BRANCH  18  19
ATOM     19  O   UNK     1       1.247   2.475  22.373  0.00  0.00    +0.000 OA
ATOM     20  H   UNK     1       1.291   3.156  23.064  0.00  0.00    +0.000 HD
ENDBRANCH  18  19
ENDBRANCH  13  18
ENDBRANCH   1  16
TORSDOF 4
ENDMDL
