MODEL 1
REMARK VINA RESULT:      -7.7      0.000      0.000
REMARK  Name = 
REMARK  5 active torsions:
REMARK  status: ('A' for Active; 'I' for Inactive)
REMARK    1  A    between atoms: C_1  and  O_2
REMARK    2  A    between atoms: O_2  and  C_3
REMARK    3  A    between atoms: C_9  and  N_10
REMARK    4  A    between atoms: C_11  and  C_12
REMARK    5  A    between atoms: C_13  and  O_14
REMARK                            x       y       z     vdW  Elec       q    Type
REMARK                         _______ _______ _______ _____ _____    ______ ____
ROOT
ATOM      1  C   UNL     1       1.664   8.445  19.187  0.00  0.00    +0.000 A 
ATOM      2  C   UNL     1       1.556   9.648  18.590  0.00  0.00    +0.000 A 
ATOM      3  O   UNL     1       0.971  10.756  19.194  0.00  0.00    +0.000 OA
ATOM      4  C   UNL     1       0.468  10.640  20.460  0.00  0.00    +0.000 A 
ATOM      5  C   UNL     1      -0.116  11.773  21.027  0.00  0.00    +0.000 A 
ATOM      6  C   UNL     1      -0.654  11.710  22.315  0.00  0.00    +0.000 A 
ATOM      7  C   UNL     1      -0.603  10.517  23.038  0.00  0.00    +0.000 A 
ATOM      8  C   UNL     1      -0.012   9.387  22.475  0.00  0.00    +0.000 A 
ATOM      9  C   UNL     1       0.519   9.457  21.183  0.00  0.00    +0.000 A 
ATOM     10  C   UNL     1       1.144   8.282  20.562  0.00  0.00    +0.000 A 
ATOM     11  O   UNL     1       1.230   7.220  21.168  0.00  0.00    +0.000 OA
ENDROOT
BRANCH   1  13
ATOM     12  N   UNL     1       3.524   7.392  17.996  0.00  0.00    +0.000 NA
ATOM     13  C   UNL     1       2.344   7.293  18.528  0.00  0.00    +0.000 C 
BRANCH  12  20
ATOM     14  C   UNL     1       5.436   6.222  16.820  0.00  0.00    +0.000 A 
ATOM     15  C   UNL     1       5.964   4.994  16.388  0.00  0.00    +0.000 A 
ATOM     16  C   UNL     1       5.243   3.811  16.545  0.00  0.00    +0.000 A 
ATOM     17  C   UNL     1       3.991   3.846  17.144  0.00  0.00    +0.000 A 
ATOM     18 CL   UNL     1       3.103   2.388  17.351  0.00  0.00    +0.000 Cl
ATOM     19  C   UNL     1       3.459   5.054  17.591  0.00  0.00    +0.000 A 
ATOM     20  C   UNL     1       4.164   6.258  17.441  0.00  0.00    +0.000 A 
BRANCH  14  22
ATOM     21  C   UNL     1       7.356   7.467  17.447  0.00  0.00    +0.000 C 
ATOM     22  O   UNL     1       6.138   7.396  16.709  0.00  0.00    +0.000 OA
ENDBRANCH  14  22
ENDBRANCH  12  20
ENDBRANCH   1  13
BRANCH   2  23
ATOM     23  O   UNL     1       2.037   9.885  17.311  0.00  0.00    +0.000 OA
ATOM     24  H   UNL     1       2.721   9.204  17.113  0.00  0.00    +0.000 HD
ENDBRANCH   2  23
TORSDOF 4
ENDMDL
MODEL 2
REMARK VINA RESULT:      -7.4      1.804      2.581
REMARK  Name = 
REMARK  5 active torsions:
REMARK  status: ('A' for Active; 'I' for Inactive)
REMARK    1  A    between atoms: C_1  and  O_2
REMARK    2  A    between atoms: O_2  and  C_3
REMARK    3  A    between atoms: C_9  and  N_10
REMARK    4  A    between atoms: C_11  and  C_12
REMARK    5  A    between atoms: C_13  and  O_14
REMARK                            x       y       z     vdW  Elec       q    Type
REMARK                         _______ _______ _______ _____ _____    ______ ____
ROOT
ATOM      1  C   UNL     1       1.491   8.733  19.580  0.00  0.00    +0.000 A 
ATOM      2  C   UNL     1       1.172   9.716  18.715  0.00  0.00    +0.000 A 
ATOM      3  O   UNL     1       0.368  10.801  19.047  0.00  0.00    +0.000 OA
ATOM      4  C   UNL     1      -0.141  10.894  20.312  0.00  0.00    +0.000 A 
ATOM      5  C   UNL     1      -0.949  11.995  20.602  0.00  0.00    +0.000 A 
ATOM      6  C   UNL     1      -1.503  12.137  21.876  0.00  0.00    +0.000 A 
ATOM      7  C   UNL     1      -1.245  11.183  22.863  0.00  0.00    +0.000 A 
ATOM      8  C   UNL     1      -0.432  10.087  22.576  0.00  0.00    +0.000 A 
ATOM      9  C   UNL     1       0.113   9.950  21.296  0.00  0.00    +0.000 A 
ATOM     10  C   UNL     1       0.971   8.804  20.963  0.00  0.00    +0.000 A 
ATOM     11  O   UNL     1       1.241   7.954  21.803  0.00  0.00    +0.000 OA
ENDROOT
BRANCH   1  13
ATOM     12  N   UNL     1       2.234   6.915  18.121  0.00  0.00    +0.000 NA
ATOM     13  C   UNL     1       2.399   7.611  19.204  0.00  0.00    +0.000 C 
BRANCH  12  20
ATOM     14  C   UNL     1       2.862   4.549  17.480  0.00  0.00    +0.000 A 
ATOM     15  C   UNL     1       3.890   3.685  17.064  0.00  0.00    +0.000 A 
ATOM     16  C   UNL     1       5.202   4.141  16.947  0.00  0.00    +0.000 A 
ATOM     17  C   UNL     1       5.495   5.467  17.236  0.00  0.00    +0.000 A 
ATOM     18 CL   UNL     1       7.110   6.037  17.080  0.00  0.00    +0.000 Cl
ATOM     19  C   UNL     1       4.485   6.340  17.636  0.00  0.00    +0.000 A 
ATOM     20  C   UNL     1       3.157   5.904  17.765  0.00  0.00    +0.000 A 
BRANCH  14  22
ATOM     21  C   UNL     1       1.271   3.191  18.600  0.00  0.00    +0.000 C 
ATOM     22  O   UNL     1       1.556   4.135  17.571  0.00  0.00    +0.000 OA
ENDBRANCH  14  22
ENDBRANCH  12  20
ENDBRANCH   1  13
BRANCH   2  23
ATOM     23  O   UNL     1       1.637   9.731  17.409  0.00  0.00    +0.000 OA
ATOM     24  H   UNL     1       1.176   9.014  16.914  0.00  0.00    +0.000 HD
ENDBRANCH   2  23
TORSDOF 4
ENDMDL
MODEL 3
REMARK VINA RESULT:      -7.2      1.731      2.458
REMARK  Name = 
REMARK  5 active torsions:
REMARK  status: ('A' for Active; 'I' for Inactive)
REMARK    1  A    between atoms: C_1  and  O_2
REMARK    2  A    between atoms: O_2  and  C_3
REMARK    3  A    between atoms: C_9  and  N_10
REMARK    4  A    between atoms: C_11  and  C_12
REMARK    5  A    between atoms: C_13  and  O_14
REMARK                            x       y       z     vdW  Elec       q    Type
REMARK                         _______ _______ _______ _____ _____    ______ ____
ROOT
ATOM      1  C   UNL     1       1.551   8.739  19.228  0.00  0.00    +0.000 A 
ATOM      2  C   UNL     1       1.417   9.966  18.690  0.00  0.00    +0.000 A 
ATOM      3  O   UNL     1       0.802  11.030  19.343  0.00  0.00    +0.000 OA
ATOM      4  C   UNL     1       0.296  10.840  20.599  0.00  0.00    +0.000 A 
ATOM      5  C   UNL     1      -0.318  11.930  21.217  0.00  0.00    +0.000 A 
ATOM      6  C   UNL     1      -0.860  11.791  22.497  0.00  0.00    +0.000 A 
ATOM      7  C   UNL     1      -0.784  10.566  23.162  0.00  0.00    +0.000 A 
ATOM      8  C   UNL     1      -0.163   9.479  22.547  0.00  0.00    +0.000 A 
ATOM      9  C   UNL     1       0.372   9.625  21.264  0.00  0.00    +0.000 A 
ATOM     10  C   UNL     1       1.029   8.496  20.590  0.00  0.00    +0.000 A 
ATOM     11  O   UNL     1       1.137   7.408  21.143  0.00  0.00    +0.000 OA
ENDROOT
BRANCH   1  13
ATOM     12  N   UNL     1       3.003   6.771  19.139  0.00  0.00    +0.000 NA
ATOM     13  C   UNL     1       2.262   7.637  18.517  0.00  0.00    +0.000 C 
BRANCH  12  20
ATOM     14  C   UNL     1       3.529   4.324  18.762  0.00  0.00    +0.000 A 
ATOM     15  C   UNL     1       4.124   3.375  17.914  0.00  0.00    +0.000 A 
ATOM     16  C   UNL     1       4.806   3.772  16.765  0.00  0.00    +0.000 A 
ATOM     17  C   UNL     1       4.891   5.121  16.450  0.00  0.00    +0.000 A 
ATOM     18 CL   UNL     1       5.719   5.614  15.026  0.00  0.00    +0.000 Cl
ATOM     19  C   UNL     1       4.295   6.074  17.273  0.00  0.00    +0.000 A 
ATOM     20  C   UNL     1       3.606   5.700  18.437  0.00  0.00    +0.000 A 
BRANCH  14  22
ATOM     21  C   UNL     1       1.440   3.678  19.684  0.00  0.00    +0.000 C 
ATOM     22  O   UNL     1       2.824   3.959  19.882  0.00  0.00    +0.000 OA
ENDBRANCH  14  22
ENDBRANCH  12  20
ENDBRANCH   1  13
BRANCH   2  23
ATOM     23  O   UNL     1       1.898  10.277  17.427  0.00  0.00    +0.000 OA
ATOM     24  H   UNL     1       2.021  11.254  17.380  0.00  0.00    +0.000 HD
ENDBRANCH   2  23
TORSDOF 4
ENDMDL
MODEL 4
REMARK VINA RESULT:      -7.1      2.423      3.785
REMARK  Name = 
REMARK  5 active torsions:
REMARK  status: ('A' for Active; 'I' for Inactive)
REMARK    1  A    between atoms: C_1  and  O_2
REMARK    2  A    between atoms: O_2  and  C_3
REMARK    3  A    between atoms: C_9  and  N_10
REMARK    4  A    between atoms: C_11  and  C_12
REMARK    5  A    between atoms: C_13  and  O_14
REMARK                            x       y       z     vdW  Elec       q    Type
REMARK                         _______ _______ _______ _____ _____    ______ ____
ROOT
ATOM      1  C   UNL     1       0.865   9.498  20.521  0.00  0.00    +0.000 A 
ATOM      2  C   UNL     1       0.986   9.798  21.829  0.00  0.00    +0.000 A 
ATOM      3  O   UNL     1       0.203  10.750  22.475  0.00  0.00    +0.000 OA
ATOM      4  C   UNL     1      -0.741  11.434  21.762  0.00  0.00    +0.000 A 
ATOM      5  C   UNL     1      -1.500  12.385  22.445  0.00  0.00    +0.000 A 
ATOM      6  C   UNL     1      -2.474  13.120  21.765  0.00  0.00    +0.000 A 
ATOM      7  C   UNL     1      -2.695  12.900  20.403  0.00  0.00    +0.000 A 
ATOM      8  C   UNL     1      -1.942  11.943  19.722  0.00  0.00    +0.000 A 
ATOM      9  C   UNL     1      -0.965  11.217  20.410  0.00  0.00    +0.000 A 
ATOM     10  C   UNL     1      -0.155  10.206  19.718  0.00  0.00    +0.000 A 
ATOM     11  O   UNL     1      -0.327   9.964  18.529  0.00  0.00    +0.000 OA
ENDROOT
BRANCH   1  13
ATOM     12  N   UNL     1       1.768   7.230  20.353  0.00  0.00    +0.000 NA
ATOM     13  C   UNL     1       1.687   8.433  19.875  0.00  0.00    +0.000 C 
BRANCH  12  20
ATOM     14  C   UNL     1       2.551   4.851  19.988  0.00  0.00    +0.000 A 
ATOM     15  C   UNL     1       3.272   3.972  19.161  0.00  0.00    +0.000 A 
ATOM     16  C   UNL     1       3.958   4.446  18.043  0.00  0.00    +0.000 A 
ATOM     17  C   UNL     1       3.921   5.800  17.739  0.00  0.00    +0.000 A 
ATOM     18 CL   UNL     1       4.755   6.385  16.354  0.00  0.00    +0.000 Cl
ATOM     19  C   UNL     1       3.199   6.681  18.541  0.00  0.00    +0.000 A 
ATOM     20  C   UNL     1       2.503   6.230  19.673  0.00  0.00    +0.000 A 
BRANCH  14  22
ATOM     21  C   UNL     1       2.159   3.098  21.539  0.00  0.00    +0.000 C 
ATOM     22  O   UNL     1       1.839   4.407  21.075  0.00  0.00    +0.000 OA
ENDBRANCH  14  22
ENDBRANCH  12  20
ENDBRANCH   1  13
BRANCH   2  23
ATOM     23  O   UNL     1       1.904   9.163  22.653  0.00  0.00    +0.000 OA
ATOM     24  H   UNL     1       2.121   9.775  23.394  0.00  0.00    +0.000 HD
ENDBRANCH   2  23
TORSDOF 4
ENDMDL
MODEL 5
REMARK VINA RESULT:      -7.1      5.521      6.197
REMARK  Name = 
REMARK  5 active torsions:
REMARK  status: ('A' for Active; 'I' for Inactive)
REMARK    1  A    between atoms: C_1  and  O_2
REMARK    2  A    between atoms: O_2  and  C_3
REMARK    3  A    between atoms: C_9  and  N_10
REMARK    4  A    between atoms: C_11  and  C_12
REMARK    5  A    between atoms: C_13  and  O_14
REMARK                            x       y       z     vdW  Elec       q    Type
REMARK                         _______ _______ _______ _____ _____    ______ ____
ROOT
ATOM      1  C   UNL     1       4.171   3.893  17.700  0.00  0.00    +0.000 A 
ATOM      2  C   UNL     1       4.972   3.758  18.775  0.00  0.00    +0.000 A 
ATOM      3  O   UNL     1       4.511   3.404  20.039  0.00  0.00    +0.000 OA
ATOM      4  C   UNL     1       3.175   3.181  20.224  0.00  0.00    +0.000 A 
ATOM      5  C   UNL     1       2.753   2.834  21.508  0.00  0.00    +0.000 A 
ATOM      6  C   UNL     1       1.398   2.603  21.758  0.00  0.00    +0.000 A 
ATOM      7  C   UNL     1       0.466   2.711  20.723  0.00  0.00    +0.000 A 
ATOM      8  C   UNL     1       0.889   3.050  19.438  0.00  0.00    +0.000 A 
ATOM      9  C   UNL     1       2.246   3.286  19.199  0.00  0.00    +0.000 A 
ATOM     10  C   UNL     1       2.721   3.647  17.857  0.00  0.00    +0.000 A 
ATOM     11  O   UNL     1       1.942   3.734  16.914  0.00  0.00    +0.000 OA
ENDROOT
BRANCH   1  13
ATOM     12  N   UNL     1       5.825   3.733  15.905  0.00  0.00    +0.000 NA
ATOM     13  C   UNL     1       4.709   4.223  16.349  0.00  0.00    +0.000 C 
BRANCH  12  20
ATOM     14  C   UNL     1       7.243   4.969  14.211  0.00  0.00    +0.000 A 
ATOM     15  C   UNL     1       7.626   5.075  12.863  0.00  0.00    +0.000 A 
ATOM     16  C   UNL     1       7.042   4.266  11.890  0.00  0.00    +0.000 A 
ATOM     17  C   UNL     1       6.077   3.338  12.258  0.00  0.00    +0.000 A 
ATOM     18 CL   UNL     1       5.364   2.329  11.062  0.00  0.00    +0.000 Cl
ATOM     19  C   UNL     1       5.696   3.211  13.593  0.00  0.00    +0.000 A 
ATOM     20  C   UNL     1       6.267   4.017  14.590  0.00  0.00    +0.000 A 
BRANCH  14  22
ATOM     21  C   UNL     1       6.938   6.522  15.980  0.00  0.00    +0.000 C 
ATOM     22  O   UNL     1       7.826   5.730  15.195  0.00  0.00    +0.000 OA
ENDBRANCH  14  22
ENDBRANCH  12  20
ENDBRANCH   1  13
BRANCH   2  23
ATOM     23  O   UNL     1       6.344   3.951  18.704  0.00  0.00    +0.000 OA
ATOM     24  H   UNL     1       6.776   3.278  19.279  0.00  0.00    +0.000 HD
ENDBRANCH   2  23
TORSDOF 4
ENDMDL
MODEL 6
REMARK VINA RESULT:      -7.1      1.779      2.844
REMARK  Name = 
REMARK  5 active torsions:
REMARK  status: ('A' for Active; 'I' for Inactive)
REMARK    1  A    between atoms: C_1  and  O_2
REMARK    2  A    between atoms: O_2  and  C_3
REMARK    3  A    between atoms: C_9  and  N_10
REMARK    4  A    between atoms: C_11  and  C_12
REMARK    5  A    between atoms: C_13  and  O_14
REMARK                            x       y       z     vdW  Elec       q    Type
REMARK                         _______ _______ _______ _____ _____    ______ ____
ROOT
ATOM      1  C   UNL     1       2.554   7.323  18.895  0.00  0.00    +0.000 A 
ATOM      2  C   UNL     1       2.155   6.983  20.136  0.00  0.00    +0.000 A 
ATOM      3  O   UNL     1       1.276   7.746  20.897  0.00  0.00    +0.000 OA
ATOM      4  C   UNL     1       0.782   8.911  20.380  0.00  0.00    +0.000 A 
ATOM      5  C   UNL     1      -0.091   9.651  21.178  0.00  0.00    +0.000 A 
ATOM      6  C   UNL     1      -0.621  10.854  20.705  0.00  0.00    +0.000 A 
ATOM      7  C   UNL     1      -0.282  11.315  19.430  0.00  0.00    +0.000 A 
ATOM      8  C   UNL     1       0.584  10.571  18.629  0.00  0.00    +0.000 A 
ATOM      9  C   UNL     1       1.114   9.372  19.114  0.00  0.00    +0.000 A 
ATOM     10  C   UNL     1       2.032   8.569  18.294  0.00  0.00    +0.000 A 
ATOM     11  O   UNL     1       2.340   8.924  17.162  0.00  0.00    +0.000 OA
ENDROOT
BRANCH   1  13
ATOM     12  N   UNL     1       4.650   6.824  17.734  0.00  0.00    +0.000 NA
ATOM     13  C   UNL     1       3.458   6.453  18.088  0.00  0.00    +0.000 C 
BRANCH  12  20
ATOM     14  C   UNL     1       6.739   5.420  17.473  0.00  0.00    +0.000 A 
ATOM     15  C   UNL     1       7.429   4.490  16.677  0.00  0.00    +0.000 A 
ATOM     16  C   UNL     1       6.919   4.089  15.443  0.00  0.00    +0.000 A 
ATOM     17  C   UNL     1       5.711   4.608  15.000  0.00  0.00    +0.000 A 
ATOM     18 CL   UNL     1       5.071   4.106  13.484  0.00  0.00    +0.000 Cl
ATOM     19  C   UNL     1       5.007   5.521  15.783  0.00  0.00    +0.000 A 
ATOM     20  C   UNL     1       5.502   5.943  17.027  0.00  0.00    +0.000 A 
BRANCH  14  22
ATOM     21  C   UNL     1       8.126   6.891  18.715  0.00  0.00    +0.000 C 
ATOM     22  O   UNL     1       7.201   5.807  18.706  0.00  0.00    +0.000 OA
ENDBRANCH  14  22
ENDBRANCH  12  20
ENDBRANCH   1  13
BRANCH   2  23
ATOM     23  O   UNL     1       2.584   5.820  20.759  0.00  0.00    +0.000 OA
ATOM     24  H   UNL     1       2.953   6.065  21.639  0.00  0.00    +0.000 HD
ENDBRANCH   2  23
TORSDOF 4
ENDMDL
MODEL 7
REMARK VINA RESULT:      -6.9      2.987      7.285
REMARK  Name = 
REMARK  5 active torsions:
REMARK  status: ('A' for Active; 'I' for Inactive)
REMARK    1  A    between atoms: C_1  and  O_2
REMARK    2  A    between atoms: O_2  and  C_3
REMARK    3  A    between atoms: C_9  and  N_10
REMARK    4  A    between atoms: C_11  and  C_12
REMARK    5  A    between atoms: C_13  and  O_14
REMARK                            x       y       z     vdW  Elec       q    Type
REMARK                         _______ _______ _______ _____ _____    ______ ____
ROOT
ATOM      1  C   UNL     1       2.410   6.664  19.312  0.00  0.00    +0.000 A 
ATOM      2  C   UNL     1       3.164   6.684  18.196  0.00  0.00    +0.000 A 
ATOM      3  O   UNL     1       3.602   5.537  17.543  0.00  0.00    +0.000 OA
ATOM      4  C   UNL     1       3.265   4.312  18.047  0.00  0.00    +0.000 A 
ATOM      5  C   UNL     1       3.730   3.186  17.366  0.00  0.00    +0.000 A 
ATOM      6  C   UNL     1       3.423   1.908  17.840  0.00  0.00    +0.000 A 
ATOM      7  C   UNL     1       2.646   1.755  18.990  0.00  0.00    +0.000 A 
ATOM      8  C   UNL     1       2.174   2.880  19.666  0.00  0.00    +0.000 A 
ATOM      9  C   UNL     1       2.491   4.155  19.188  0.00  0.00    +0.000 A 
ATOM     10  C   UNL     1       2.012   5.358  19.880  0.00  0.00    +0.000 A 
ATOM     11  O   UNL     1       1.310   5.273  20.882  0.00  0.00    +0.000 OA
ENDROOT
BRANCH   1  13
ATOM     12  N   UNL     1       1.461   8.920  19.268  0.00  0.00    +0.000 NA
ATOM     13  C   UNL     1       1.915   7.916  19.955  0.00  0.00    +0.000 C 
BRANCH  12  20
ATOM     14  C   UNL     1       0.978  11.397  19.450  0.00  0.00    +0.000 A 
ATOM     15  C   UNL     1       0.339  12.412  20.183  0.00  0.00    +0.000 A 
ATOM     16  C   UNL     1      -0.319  12.123  21.379  0.00  0.00    +0.000 A 
ATOM     17  C   UNL     1      -0.350  10.816  21.845  0.00  0.00    +0.000 A 
ATOM     18 CL   UNL     1      -1.172  10.453  23.311  0.00  0.00    +0.000 Cl
ATOM     19  C   UNL     1       0.266   9.796  21.122  0.00  0.00    +0.000 A 
ATOM     20  C   UNL     1       0.937  10.062  19.918  0.00  0.00    +0.000 A 
BRANCH  14  22
ATOM     21  C   UNL     1       2.572  12.694  18.263  0.00  0.00    +0.000 C 
ATOM     22  O   UNL     1       1.603  11.648  18.254  0.00  0.00    +0.000 OA
ENDBRANCH  14  22
ENDBRANCH  12  20
ENDBRANCH   1  13
BRANCH   2  23
ATOM     23  O   UNL     1       3.560   7.868  17.592  0.00  0.00    +0.000 OA
ATOM     24  H   UNL     1       4.106   8.372  18.239  0.00  0.00    +0.000 HD
ENDBRANCH   2  23
TORSDOF 4
ENDMDL
MODEL 8
REMARK VINA RESULT:      -6.9      1.957      3.379
REMARK  Name = 
REMARK  5 active torsions:
REMARK  status: ('A' for Active; 'I' for Inactive)
REMARK    1  A    between atoms: C_1  and  O_2
REMARK    2  A    between atoms: O_2  and  C_3
REMARK    3  A    between atoms: C_9  and  N_10
REMARK    4  A    between atoms: C_11  and  C_12
REMARK    5  A    between atoms: C_13  and  O_14
REMARK                            x       y       z     vdW  Elec       q    Type
REMARK                         _______ _______ _______ _____ _____    ______ ____
ROOT
ATOM      1  C   UNL     1       1.829   8.442  19.369  0.00  0.00    +0.000 A 
ATOM      2  C   UNL     1       1.350   8.252  20.613  0.00  0.00    +0.000 A 
ATOM      3  O   UNL     1       0.454   9.118  21.233  0.00  0.00    +0.000 OA
ATOM      4  C   UNL     1       0.028  10.230  20.563  0.00  0.00    +0.000 A 
ATOM      5  C   UNL     1      -0.865  11.076  21.223  0.00  0.00    +0.000 A 
ATOM      6  C   UNL     1      -1.328  12.233  20.590  0.00  0.00    +0.000 A 
ATOM      7  C   UNL     1      -0.904  12.540  19.295  0.00  0.00    +0.000 A 
ATOM      8  C   UNL     1      -0.018  11.691  18.633  0.00  0.00    +0.000 A 
ATOM      9  C   UNL     1       0.445  10.539  19.277  0.00  0.00    +0.000 A 
ATOM     10  C   UNL     1       1.381   9.627  18.606  0.00  0.00    +0.000 A 
ATOM     11  O   UNL     1       1.764   9.846  17.462  0.00  0.00    +0.000 OA
ENDROOT
BRANCH   1  13
ATOM     12  N   UNL     1       2.421   6.223  18.525  0.00  0.00    +0.000 NA
ATOM     13  C   UNL     1       2.748   7.465  18.717  0.00  0.00    +0.000 C 
BRANCH  12  20
ATOM     14  C   UNL     1       2.985   4.053  17.352  0.00  0.00    +0.000 A 
ATOM     15  C   UNL     1       3.948   3.335  16.622  0.00  0.00    +0.000 A 
ATOM     16  C   UNL     1       5.214   3.872  16.390  0.00  0.00    +0.000 A 
ATOM     17  C   UNL     1       5.523   5.135  16.878  0.00  0.00    +0.000 A 
ATOM     18 CL   UNL     1       7.078   5.806  16.583  0.00  0.00    +0.000 Cl
ATOM     19  C   UNL     1       4.574   5.864  17.592  0.00  0.00    +0.000 A 
ATOM     20  C   UNL     1       3.295   5.344  17.841  0.00  0.00    +0.000 A 
BRANCH  14  22
ATOM     21  C   UNL     1       1.611   2.517  18.528  0.00  0.00    +0.000 C 
ATOM     22  O   UNL     1       1.721   3.563  17.566  0.00  0.00    +0.000 OA
ENDBRANCH  14  22
ENDBRANCH  12  20
ENDBRANCH   1  13
BRANCH   2  23
ATOM     23  O   UNL     1       1.706   7.156  21.384  0.00  0.00    +0.000 OA
ATOM     24  H   UNL     1       1.212   7.209  22.235  0.00  0.00    +0.000 HD
ENDBRANCH   2  23
TORSDOF 4
ENDMDL
MODEL 9
REMARK VINA RESULT:      -6.9      2.829      7.777
REMARK  Name = 
REMARK  5 active torsions:
REMARK  status: ('A' for Active; 'I' for Inactive)
REMARK    1  A    between atoms: C_1  and  O_2
REMARK    2  A    between atoms: O_2  and  C_3
REMARK    3  A    between atoms: C_9  and  N_10
REMARK    4  A    between atoms: C_11  and  C_12
REMARK    5  A    between atoms: C_13  and  O_14
REMARK                            x       y       z     vdW  Elec       q    Type
REMARK                         _______ _______ _______ _____ _____    ______ ____
ROOT
ATOM      1  C   UNL     1       2.565   7.360  18.794  0.00  0.00    +0.000 A 
ATOM      2  C   UNL     1       2.784   6.426  19.740  0.00  0.00    +0.000 A 
ATOM      3  O   UNL     1       3.822   5.501  19.681  0.00  0.00    +0.000 OA
ATOM      4  C   UNL     1       4.674   5.520  18.613  0.00  0.00    +0.000 A 
ATOM      5  C   UNL     1       5.698   4.571  18.589  0.00  0.00    +0.000 A 
ATOM      6  C   UNL     1       6.594   4.538  17.518  0.00  0.00    +0.000 A 
ATOM      7  C   UNL     1       6.472   5.458  16.474  0.00  0.00    +0.000 A 
ATOM      8  C   UNL     1       5.454   6.411  16.502  0.00  0.00    +0.000 A 
ATOM      9  C   UNL     1       4.558   6.432  17.575  0.00  0.00    +0.000 A 
ATOM     10  C   UNL     1       3.474   7.423  17.629  0.00  0.00    +0.000 A 
ATOM     11  O   UNL     1       3.341   8.262  16.746  0.00  0.00    +0.000 OA
ENDROOT
BRANCH   1  13
ATOM     12  N   UNL     1       1.183   8.948  20.041  0.00  0.00    +0.000 NA
ATOM     13  C   UNL     1       1.473   8.369  18.917  0.00  0.00    +0.000 C 
BRANCH  12  20
ATOM     14  C   UNL     1      -0.166  10.730  21.230  0.00  0.00    +0.000 A 
ATOM     15  C   UNL     1      -1.131  11.743  21.102  0.00  0.00    +0.000 A 
ATOM     16  C   UNL     1      -1.763  11.978  19.882  0.00  0.00    +0.000 A 
ATOM     17  C   UNL     1      -1.427  11.208  18.777  0.00  0.00    +0.000 A 
ATOM     18 CL   UNL     1      -2.194  11.503  17.266  0.00  0.00    +0.000 Cl
ATOM     19  C   UNL     1      -0.462  10.209  18.883  0.00  0.00    +0.000 A 
ATOM     20  C   UNL     1       0.186   9.950  20.102  0.00  0.00    +0.000 A 
BRANCH  14  22
ATOM     21  C   UNL     1      -0.143   9.607  23.320  0.00  0.00    +0.000 C 
ATOM     22  O   UNL     1       0.496  10.499  22.410  0.00  0.00    +0.000 OA
ENDBRANCH  14  22
ENDBRANCH  12  20
ENDBRANCH   1  13
BRANCH   2  23
ATOM     23  O   UNL     1       1.989   6.317  20.870  0.00  0.00    +0.000 OA
ATOM     24  H   UNL     1       1.343   7.061  20.861  0.00  0.00    +0.000 HD
ENDBRANCH   2  23
TORSDOF 4
ENDMDL
