MODEL 1
REMARK VINA RESULT:      -7.4      0.000      0.000
REMARK  Name = 
REMARK  7 active torsions:
REMARK  status: ('A' for Active; 'I' for Inactive)
REMARK    1  A    between atoms: C_1  and  C_2
REMARK    2  A    between atoms: C_2  and  C_3
REMARK    3  A    between atoms: C_8  and  C_9
REMARK    4  A    between atoms: N_12  and  C_13
REMARK    5  A    between atoms: C_13  and  C_14
REMARK    6  A    between atoms: N_16  and  C_17
REMARK    7  A    between atoms: C_17  and  C_18
REMARK                            x       y       z     vdW  Elec       q    Type
REMARK                         _______ _______ _______ _____ _____    ______ ____
ROOT
ATOM      1  C   UNL     1       3.542   3.610  19.588  0.00  0.00    +0.000 A 
ATOM      2  C   UNL     1       2.361   3.589  20.369  0.00  0.00    +0.000 A 
ATOM      3  C   UNL     1       1.483   4.661  20.431  0.00  0.00    +0.000 A 
ATOM      4  C   UNL     1       1.745   5.811  19.699  0.00  0.00    +0.000 A 
ATOM      5  C   UNL     1       2.915   5.895  18.912  0.00  0.00    +0.000 A 
ATOM      6  C   UNL     1       3.424   6.921  18.073  0.00  0.00    +0.000 A 
ATOM      7  C   UNL     1       4.606   6.478  17.541  0.00  0.00    +0.000 A 
ATOM      8  N   UNL     1       4.854   5.212  18.031  0.00  0.00    +0.000 N 
ATOM      9  C   UNL     1       3.813   4.806  18.863  0.00  0.00    +0.000 A 
ENDROOT
BRANCH   1  11
ATOM     10  C   UNL     1       3.862   1.313  18.601  0.00  0.00    +0.000 C 
ATOM     11  C   UNL     1       4.371   2.343  19.600  0.00  0.00    +0.000 C 
ENDBRANCH   1  11
BRANCH   6  12
ATOM     12  C   UNL     1       2.825   8.194  17.802  0.00  0.00    +0.000 C 
ATOM     13  N   UNL     1       2.344   9.225  17.575  0.00  0.00    +0.000 NA
ENDBRANCH   6  12
BRANCH   8  14
ATOM     14  C   UNL     1       6.020   4.454  17.593  0.00  0.00    +0.000 C 
BRANCH  14  15
ATOM     15  C   UNL     1       6.557   4.894  16.244  0.00  0.00    +0.000 C 
ATOM     16  O   UNL     1       7.265   5.890  16.103  0.00  0.00    +0.000 OA
ATOM     17  N   UNL     1       6.251   4.074  15.178  0.00  0.00    +0.000 N 
ATOM     18  H   UNL     1       5.497   3.400  15.237  0.00  0.00    +0.000 HD
BRANCH  17  19
ATOM     19  C   UNL     1       6.717   4.421  13.851  0.00  0.00    +0.000 C 
BRANCH  19  20
ATOM     20  C   UNL     1       5.974   3.664  12.812  0.00  0.00    +0.000 A 
ATOM     21  C   UNL     1       4.691   3.767  12.318  0.00  0.00    +0.000 A 
ATOM     22  C   UNL     1       4.539   2.727  11.371  0.00  0.00    +0.000 A 
ATOM     23  C   UNL     1       5.738   2.054  11.345  0.00  0.00    +0.000 A 
ATOM     24  O   UNL     1       6.619   2.615  12.214  0.00  0.00    +0.000 OA
ENDBRANCH  19  20
ENDBRANCH  17  19
ENDBRANCH  14  15
ENDBRANCH   8  14
TORSDOF 6
ENDMDL
MODEL 2
REMARK VINA RESULT:      -7.1      3.557      7.041
REMARK  Name = 
REMARK  7 active torsions:
REMARK  status: ('A' for Active; 'I' for Inactive)
REMARK    1  A    between atoms: C_1  and  C_2
REMARK    2  A    between atoms: C_2  and  C_3
REMARK    3  A    between atoms: C_8  and  C_9
REMARK    4  A    between atoms: N_12  and  C_13
REMARK    5  A    between atoms: C_13  and  C_14
REMARK    6  A    between atoms: N_16  and  C_17
REMARK    7  A    between atoms: C_17  and  C_18
REMARK                            x       y       z     vdW  Elec       q    Type
REMARK                         _______ _______ _______ _____ _____    ______ ____
ROOT
ATOM      1  C   UNL     1       2.214   3.972  19.093  0.00  0.00    +0.000 A 
ATOM      2  C   UNL     1       2.415   2.612  18.752  0.00  0.00    +0.000 A 
ATOM      3  C   UNL     1       3.322   2.207  17.784  0.00  0.00    +0.000 A 
ATOM      4  C   UNL     1       4.086   3.155  17.114  0.00  0.00    +0.000 A 
ATOM      5  C   UNL     1       3.919   4.527  17.403  0.00  0.00    +0.000 A 
ATOM      6  C   UNL     1       4.553   5.689  16.892  0.00  0.00    +0.000 A 
ATOM      7  C   UNL     1       4.009   6.776  17.525  0.00  0.00    +0.000 A 
ATOM      8  N   UNL     1       3.048   6.326  18.407  0.00  0.00    +0.000 N 
ATOM      9  C   UNL     1       2.983   4.935  18.380  0.00  0.00    +0.000 A 
ENDROOT
BRANCH   1  11
ATOM     10  C   UNL     1       1.209   3.139  21.249  0.00  0.00    +0.000 C 
ATOM     11  C   UNL     1       1.214   4.240  20.198  0.00  0.00    +0.000 C 
ENDBRANCH   1  11
BRANCH   6  12
ATOM     12  C   UNL     1       5.588   5.746  15.902  0.00  0.00    +0.000 C 
ATOM     13  N   UNL     1       6.429   5.784  15.104  0.00  0.00    +0.000 NA
ENDBRANCH   6  12
BRANCH   8  14
ATOM     14  C   UNL     1       2.333   7.256  19.274  0.00  0.00    +0.000 C 
BRANCH  14  15
ATOM     15  C   UNL     1       1.930   8.544  18.580  0.00  0.00    +0.000 C 
ATOM     16  O   UNL     1       2.222   8.787  17.410  0.00  0.00    +0.000 OA
ATOM     17  N   UNL     1       1.161   9.413  19.324  0.00  0.00    +0.000 N 
ATOM     18  H   UNL     1       1.113   9.335  20.333  0.00  0.00    +0.000 HD
BRANCH  17  19
ATOM     19  C   UNL     1       0.737  10.670  18.743  0.00  0.00    +0.000 C 
BRANCH  19  20
ATOM     20  C   UNL     1      -0.699  10.624  18.368  0.00  0.00    +0.000 A 
ATOM     21  C   UNL     1      -1.813  11.275  18.853  0.00  0.00    +0.000 A 
ATOM     22  C   UNL     1      -2.920  10.777  18.126  0.00  0.00    +0.000 A 
ATOM     23  C   UNL     1      -2.413   9.854  17.242  0.00  0.00    +0.000 A 
ATOM     24  O   UNL     1      -1.065   9.754  17.376  0.00  0.00    +0.000 OA
ENDBRANCH  19  20
ENDBRANCH  17  19
ENDBRANCH  14  15
ENDBRANCH   8  14
TORSDOF 6
ENDMDL
MODEL 3
REMARK VINA RESULT:      -7.1      2.811      4.534
REMARK  Name = 
REMARK  7 active torsions:
REMARK  status: ('A' for Active; 'I' for Inactive)
REMARK    1  A    between atoms: C_1  and  C_2
REMARK    2  A    between atoms: C_2  and  C_3
REMARK    3  A    between atoms: C_8  and  C_9
REMARK    4  A    between atoms: N_12  and  C_13
REMARK    5  A    between atoms: C_13  and  C_14
REMARK    6  A    between atoms: N_16  and  C_17
REMARK    7  A    between atoms: C_17  and  C_18
REMARK                            x       y       z     vdW  Elec       q    Type
REMARK                         _______ _______ _______ _____ _____    ______ ____
ROOT
ATOM      1  C   UNL     1       3.381   3.438  19.780  0.00  0.00    +0.000 A 
ATOM      2  C   UNL     1       2.395   3.439  20.797  0.00  0.00    +0.000 A 
ATOM      3  C   UNL     1       1.534   4.506  21.008  0.00  0.00    +0.000 A 
ATOM      4  C   UNL     1       1.615   5.629  20.194  0.00  0.00    +0.000 A 
ATOM      5  C   UNL     1       2.586   5.691  19.171  0.00  0.00    +0.000 A 
ATOM      6  C   UNL     1       2.886   6.687  18.205  0.00  0.00    +0.000 A 
ATOM      7  C   UNL     1       3.933   6.232  17.447  0.00  0.00    +0.000 A 
ATOM      8  N   UNL     1       4.301   4.988  17.918  0.00  0.00    +0.000 N 
ATOM      9  C   UNL     1       3.470   4.607  18.970  0.00  0.00    +0.000 A 
ENDROOT
BRANCH   1  11
ATOM     10  C   UNL     1       3.707   1.259  18.557  0.00  0.00    +0.000 C 
ATOM     11  C   UNL     1       4.212   2.179  19.659  0.00  0.00    +0.000 C 
ENDBRANCH   1  11
BRANCH   6  12
ATOM     12  C   UNL     1       2.223   7.943  18.023  0.00  0.00    +0.000 C 
ATOM     13  N   UNL     1       1.679   8.957  17.873  0.00  0.00    +0.000 NA
ENDBRANCH   6  12
BRANCH   8  14
ATOM     14  C   UNL     1       5.357   4.222  17.267  0.00  0.00    +0.000 C 
BRANCH  14  15
ATOM     15  C   UNL     1       6.744   4.800  17.480  0.00  0.00    +0.000 C 
ATOM     16  O   UNL     1       7.657   4.648  16.670  0.00  0.00    +0.000 OA
ATOM     17  N   UNL     1       6.911   5.561  18.617  0.00  0.00    +0.000 N 
ATOM     18  H   UNL     1       6.255   5.501  19.388  0.00  0.00    +0.000 HD
BRANCH  17  19
ATOM     19  C   UNL     1       8.205   6.145  18.903  0.00  0.00    +0.000 C 
BRANCH  19  20
ATOM     20  C   UNL     1       8.237   7.580  18.520  0.00  0.00    +0.000 A 
ATOM     21  C   UNL     1       7.667   8.282  17.480  0.00  0.00    +0.000 A 
ATOM     22  C   UNL     1       8.102   9.622  17.612  0.00  0.00    +0.000 A 
ATOM     23  C   UNL     1       8.909   9.654  18.725  0.00  0.00    +0.000 A 
ATOM     24  O   UNL     1       8.997   8.421  19.287  0.00  0.00    +0.000 OA
ENDBRANCH  19  20
ENDBRANCH  17  19
ENDBRANCH  14  15
ENDBRANCH   8  14
TORSDOF 6
ENDMDL
MODEL 4
REMARK VINA RESULT:      -6.9      4.253      8.142
REMARK  Name = 
REMARK  7 active torsions:
REMARK  status: ('A' for Active; 'I' for Inactive)
REMARK    1  A    between atoms: C_1  and  C_2
REMARK    2  A    between atoms: C_2  and  C_3
REMARK    3  A    between atoms: C_8  and  C_9
REMARK    4  A    between atoms: N_12  and  C_13
REMARK    5  A    between atoms: C_13  and  C_14
REMARK    6  A    between atoms: N_16  and  C_17
REMARK    7  A    between atoms: C_17  and  C_18
REMARK                            x       y       z     vdW  Elec       q    Type
REMARK                         _______ _______ _______ _____ _____    ______ ____
ROOT
ATOM      1  C   UNL     1       1.994   3.827  19.357  0.00  0.00    +0.000 A 
ATOM      2  C   UNL     1       2.084   2.526  18.805  0.00  0.00    +0.000 A 
ATOM      3  C   UNL     1       2.863   2.233  17.696  0.00  0.00    +0.000 A 
ATOM      4  C   UNL     1       3.604   3.238  17.087  0.00  0.00    +0.000 A 
ATOM      5  C   UNL     1       3.544   4.558  17.585  0.00  0.00    +0.000 A 
ATOM      6  C   UNL     1       4.184   5.758  17.177  0.00  0.00    +0.000 A 
ATOM      7  C   UNL     1       3.768   6.760  18.015  0.00  0.00    +0.000 A 
ATOM      8  N   UNL     1       2.881   6.223  18.925  0.00  0.00    +0.000 N 
ATOM      9  C   UNL     1       2.737   4.855  18.707  0.00  0.00    +0.000 A 
ENDROOT
BRANCH   1  11
ATOM     10  C   UNL     1       1.299   2.797  21.549  0.00  0.00    +0.000 C 
ATOM     11  C   UNL     1       1.130   3.969  20.592  0.00  0.00    +0.000 C 
ENDBRANCH   1  11
BRANCH   6  12
ATOM     12  C   UNL     1       5.112   5.919  16.098  0.00  0.00    +0.000 C 
ATOM     13  N   UNL     1       5.868   6.056  15.228  0.00  0.00    +0.000 NA
ENDBRANCH   6  12
BRANCH   8  14
ATOM     14  C   UNL     1       2.311   7.042  19.988  0.00  0.00    +0.000 C 
BRANCH  14  15
ATOM     15  C   UNL     1       1.659   8.317  19.488  0.00  0.00    +0.000 C 
ATOM     16  O   UNL     1       1.682   8.655  18.305  0.00  0.00    +0.000 OA
ATOM     17  N   UNL     1       0.983   9.059  20.433  0.00  0.00    +0.000 N 
ATOM     18  H   UNL     1       1.150   8.920  21.423  0.00  0.00    +0.000 HD
BRANCH  17  19
ATOM     19  C   UNL     1       0.337  10.296  20.045  0.00  0.00    +0.000 C 
BRANCH  19  20
ATOM     20  C   UNL     1      -0.444  10.863  21.173  0.00  0.00    +0.000 A 
ATOM     21  C   UNL     1      -0.496  10.566  22.518  0.00  0.00    +0.000 A 
ATOM     22  C   UNL     1      -1.476  11.417  23.083  0.00  0.00    +0.000 A 
ATOM     23  C   UNL     1      -1.960  12.181  22.047  0.00  0.00    +0.000 A 
ATOM     24  O   UNL     1      -1.340  11.857  20.883  0.00  0.00    +0.000 OA
ENDBRANCH  19  20
ENDBRANCH  17  19
ENDBRANCH  14  15
ENDBRANCH   8  14
TORSDOF 6
ENDMDL
MODEL 5
REMARK VINA RESULT:      -6.9      3.126      6.154
REMARK  Name = 
REMARK  7 active torsions:
REMARK  status: ('A' for Active; 'I' for Inactive)
REMARK    1  A    between atoms: C_1  and  C_2
REMARK    2  A    between atoms: C_2  and  C_3
REMARK    3  A    between atoms: C_8  and  C_9
REMARK    4  A    between atoms: N_12  and  C_13
REMARK    5  A    between atoms: C_13  and  C_14
REMARK    6  A    between atoms: N_16  and  C_17
REMARK    7  A    between atoms: C_17  and  C_18
REMARK                            x       y       z     vdW  Elec       q    Type
REMARK                         _______ _______ _______ _____ _____    ______ ____
ROOT
ATOM      1  C   UNL     1       2.734   6.986  18.719  0.00  0.00    +0.000 A 
ATOM      2  C   UNL     1       1.750   6.984  19.738  0.00  0.00    +0.000 A 
ATOM      3  C   UNL     1       1.605   5.941  20.640  0.00  0.00    +0.000 A 
ATOM      4  C   UNL     1       2.456   4.845  20.570  0.00  0.00    +0.000 A 
ATOM      5  C   UNL     1       3.448   4.785  19.568  0.00  0.00    +0.000 A 
ATOM      6  C   UNL     1       4.439   3.814  19.268  0.00  0.00    +0.000 A 
ATOM      7  C   UNL     1       5.146   4.258  18.181  0.00  0.00    +0.000 A 
ATOM      8  N   UNL     1       4.618   5.471  17.788  0.00  0.00    +0.000 N 
ATOM      9  C   UNL     1       3.582   5.844  18.641  0.00  0.00    +0.000 A 
ENDROOT
BRANCH   1  11
ATOM     10  C   UNL     1       1.664   9.200  18.168  0.00  0.00    +0.000 C 
ATOM     11  C   UNL     1       2.781   8.219  17.842  0.00  0.00    +0.000 C 
ENDBRANCH   1  11
BRANCH   6  12
ATOM     12  C   UNL     1       4.688   2.588  19.966  0.00  0.00    +0.000 C 
ATOM     13  N   UNL     1       4.891   1.591  20.524  0.00  0.00    +0.000 NA
ENDBRANCH   6  12
BRANCH   8  14
ATOM     14  C   UNL     1       5.206   6.222  16.686  0.00  0.00    +0.000 C 
BRANCH  14  15
ATOM     15  C   UNL     1       6.673   6.553  16.892  0.00  0.00    +0.000 C 
ATOM     16  O   UNL     1       7.541   6.258  16.071  0.00  0.00    +0.000 OA
ATOM     17  N   UNL     1       6.976   7.259  18.036  0.00  0.00    +0.000 N 
ATOM     18  H   UNL     1       6.326   7.302  18.812  0.00  0.00    +0.000 HD
BRANCH  17  19
ATOM     19  C   UNL     1       8.353   7.611  18.316  0.00  0.00    +0.000 C 
BRANCH  19  20
ATOM     20  C   UNL     1       8.527   9.085  18.357  0.00  0.00    +0.000 A 
ATOM     21  C   UNL     1       8.098  10.101  17.528  0.00  0.00    +0.000 A 
ATOM     22  C   UNL     1       8.625  11.303  18.058  0.00  0.00    +0.000 A 
ATOM     23  C   UNL     1       9.341  10.947  19.176  0.00  0.00    +0.000 A 
ATOM     24  O   UNL     1       9.287   9.603  19.371  0.00  0.00    +0.000 OA
ENDBRANCH  19  20
ENDBRANCH  17  19
ENDBRANCH  14  15
ENDBRANCH   8  14
TORSDOF 6
ENDMDL
MODEL 6
REMARK VINA RESULT:      -6.9      1.127      1.272
REMARK  Name = 
REMARK  7 active torsions:
REMARK  status: ('A' for Active; 'I' for Inactive)
REMARK    1  A    between atoms: C_1  and  C_2
REMARK    2  A    between atoms: C_2  and  C_3
REMARK    3  A    between atoms: C_8  and  C_9
REMARK    4  A    between atoms: N_12  and  C_13
REMARK    5  A    between atoms: C_13  and  C_14
REMARK    6  A    between atoms: N_16  and  C_17
REMARK    7  A    between atoms: C_17  and  C_18
REMARK                            x       y       z     vdW  Elec       q    Type
REMARK                         _______ _______ _______ _____ _____    ______ ____
ROOT
ATOM      1  C   UNL     1       3.359   3.204  17.950  0.00  0.00    +0.000 A 
ATOM      2  C   UNL     1       1.991   2.910  18.174  0.00  0.00    +0.000 A 
ATOM      3  C   UNL     1       1.018   3.893  18.272  0.00  0.00    +0.000 A 
ATOM      4  C   UNL     1       1.371   5.229  18.137  0.00  0.00    +0.000 A 
ATOM      5  C   UNL     1       2.721   5.585  17.924  0.00  0.00    +0.000 A 
ATOM      6  C   UNL     1       3.356   6.842  17.748  0.00  0.00    +0.000 A 
ATOM      7  C   UNL     1       4.697   6.613  17.576  0.00  0.00    +0.000 A 
ATOM      8  N   UNL     1       4.917   5.253  17.652  0.00  0.00    +0.000 N 
ATOM      9  C   UNL     1       3.711   4.580  17.840  0.00  0.00    +0.000 A 
ENDROOT
BRANCH   1  11
ATOM     10  C   UNL     1       4.023   0.970  18.908  0.00  0.00    +0.000 C 
ATOM     11  C   UNL     1       4.285   2.013  17.830  0.00  0.00    +0.000 C 
ENDBRANCH   1  11
BRANCH   6  12
ATOM     12  C   UNL     1       2.733   8.131  17.732  0.00  0.00    +0.000 C 
ATOM     13  N   UNL     1       2.228   9.176  17.710  0.00  0.00    +0.000 NA
ENDBRANCH   6  12
BRANCH   8  14
ATOM     14  C   UNL     1       6.249   4.697  17.447  0.00  0.00    +0.000 C 
BRANCH  14  15
ATOM     15  C   UNL     1       6.822   4.987  16.073  0.00  0.00    +0.000 C 
ATOM     16  O   UNL     1       7.693   5.834  15.883  0.00  0.00    +0.000 OA
ATOM     17  N   UNL     1       6.348   4.200  15.045  0.00  0.00    +0.000 N 
ATOM     18  H   UNL     1       5.486   3.675  15.142  0.00  0.00    +0.000 HD
BRANCH  17  19
ATOM     19  C   UNL     1       6.835   4.413  13.697  0.00  0.00    +0.000 C 
BRANCH  19  20
ATOM     20  C   UNL     1       6.098   3.565  12.726  0.00  0.00    +0.000 A 
ATOM     21  C   UNL     1       6.474   2.489  11.951  0.00  0.00    +0.000 A 
ATOM     22  C   UNL     1       5.343   2.133  11.179  0.00  0.00    +0.000 A 
ATOM     23  C   UNL     1       4.347   3.013  11.532  0.00  0.00    +0.000 A 
ATOM     24  O   UNL     1       4.792   3.886  12.473  0.00  0.00    +0.000 OA
ENDBRANCH  19  20
ENDBRANCH  17  19
ENDBRANCH  14  15
ENDBRANCH   8  14
TORSDOF 6
ENDMDL
MODEL 7
REMARK VINA RESULT:      -6.9      2.107      3.947
REMARK  Name = 
REMARK  7 active torsions:
REMARK  status: ('A' for Active; 'I' for Inactive)
REMARK    1  A    between atoms: C_1  and  C_2
REMARK    2  A    between atoms: C_2  and  C_3
REMARK    3  A    between atoms: C_8  and  C_9
REMARK    4  A    between atoms: N_12  and  C_13
REMARK    5  A    between atoms: C_13  and  C_14
REMARK    6  A    between atoms: N_16  and  C_17
REMARK    7  A    between atoms: C_17  and  C_18
REMARK                            x       y       z     vdW  Elec       q    Type
REMARK                         _______ _______ _______ _____ _____    ______ ____
ROOT
ATOM      1  C   UNL     1       2.615   6.520  18.520  0.00  0.00    +0.000 A 
ATOM      2  C   UNL     1       2.225   7.562  19.397  0.00  0.00    +0.000 A 
ATOM      3  C   UNL     1       1.680   7.325  20.650  0.00  0.00    +0.000 A 
ATOM      4  C   UNL     1       1.510   6.019  21.093  0.00  0.00    +0.000 A 
ATOM      5  C   UNL     1       1.869   4.939  20.257  0.00  0.00    +0.000 A 
ATOM      6  C   UNL     1       1.813   3.533  20.446  0.00  0.00    +0.000 A 
ATOM      7  C   UNL     1       2.291   2.939  19.307  0.00  0.00    +0.000 A 
ATOM      8  N   UNL     1       2.631   3.932  18.411  0.00  0.00    +0.000 N 
ATOM      9  C   UNL     1       2.410   5.186  18.975  0.00  0.00    +0.000 A 
ENDROOT
BRANCH   1  11
ATOM     10  C   UNL     1       4.695   7.331  17.351  0.00  0.00    +0.000 C 
ATOM     11  C   UNL     1       3.228   6.951  17.205  0.00  0.00    +0.000 C 
ENDBRANCH   1  11
BRANCH   6  12
ATOM     12  C   UNL     1       1.358   2.834  21.610  0.00  0.00    +0.000 C 
ATOM     13  N   UNL     1       0.998   2.264  22.555  0.00  0.00    +0.000 NA
ENDBRANCH   6  12
BRANCH   8  14
ATOM     14  C   UNL     1       3.228   3.604  17.122  0.00  0.00    +0.000 C 
BRANCH  14  15
ATOM     15  C   UNL     1       4.717   3.892  17.053  0.00  0.00    +0.000 C 
ATOM     16  O   UNL     1       5.454   3.813  18.034  0.00  0.00    +0.000 OA
ATOM     17  N   UNL     1       5.214   4.194  15.803  0.00  0.00    +0.000 N 
ATOM     18  H   UNL     1       4.598   4.484  15.051  0.00  0.00    +0.000 HD
BRANCH  17  19
ATOM     19  C   UNL     1       6.623   4.490  15.645  0.00  0.00    +0.000 C 
BRANCH  19  20
ATOM     20  C   UNL     1       6.977   4.639  14.211  0.00  0.00    +0.000 A 
ATOM     21  C   UNL     1       6.559   3.985  13.071  0.00  0.00    +0.000 A 
ATOM     22  C   UNL     1       7.297   4.535  11.997  0.00  0.00    +0.000 A 
ATOM     23  C   UNL     1       8.119   5.491  12.547  0.00  0.00    +0.000 A 
ATOM     24  O   UNL     1       7.932   5.566  13.890  0.00  0.00    +0.000 OA
ENDBRANCH  19  20
ENDBRANCH  17  19
ENDBRANCH  14  15
ENDBRANCH   8  14
TORSDOF 6
ENDMDL
MODEL 8
REMARK VINA RESULT:      -6.9      1.870      3.447
REMARK  Name = 
REMARK  7 active torsions:
REMARK  status: ('A' for Active; 'I' for Inactive)
REMARK    1  A    between atoms: C_1  and  C_2
REMARK    2  A    between atoms: C_2  and  C_3
REMARK    3  A    between atoms: C_8  and  C_9
REMARK    4  A    between atoms: N_12  and  C_13
REMARK    5  A    between atoms: C_13  and  C_14
REMARK    6  A    between atoms: N_16  and  C_17
REMARK    7  A    between atoms: C_17  and  C_18
REMARK                            x       y       z     vdW  Elec       q    Type
REMARK                         _______ _______ _______ _____ _____    ______ ____
ROOT
ATOM      1  C   UNL     1       4.718   6.722  17.301  0.00  0.00    +0.000 A 
ATOM      2  C   UNL     1       3.783   7.704  17.708  0.00  0.00    +0.000 A 
ATOM      3  C   UNL     1       2.517   7.387  18.177  0.00  0.00    +0.000 A 
ATOM      4  C   UNL     1       2.129   6.057  18.272  0.00  0.00    +0.000 A 
ATOM      5  C   UNL     1       3.015   5.034  17.869  0.00  0.00    +0.000 A 
ATOM      6  C   UNL     1       2.892   3.620  17.861  0.00  0.00    +0.000 A 
ATOM      7  C   UNL     1       4.060   3.101  17.365  0.00  0.00    +0.000 A 
ATOM      8  N   UNL     1       4.901   4.149  17.053  0.00  0.00    +0.000 N 
ATOM      9  C   UNL     1       4.298   5.363  17.377  0.00  0.00    +0.000 A 
ENDROOT
BRANCH   1  11
ATOM     10  C   UNL     1       7.158   6.969  17.881  0.00  0.00    +0.000 C 
ATOM     11  C   UNL     1       6.070   7.234  16.850  0.00  0.00    +0.000 C 
ENDBRANCH   1  11
BRANCH   6  12
ATOM     12  C   UNL     1       1.769   2.846  18.300  0.00  0.00    +0.000 C 
ATOM     13  N   UNL     1       0.853   2.226  18.652  0.00  0.00    +0.000 NA
ENDBRANCH   6  12
BRANCH   8  14
ATOM     14  C   UNL     1       6.250   3.905  16.557  0.00  0.00    +0.000 C 
BRANCH  14  15
ATOM     15  C   UNL     1       6.441   4.297  15.103  0.00  0.00    +0.000 C 
ATOM     16  O   UNL     1       7.445   4.883  14.701  0.00  0.00    +0.000 OA
ATOM     17  N   UNL     1       5.442   3.906  14.238  0.00  0.00    +0.000 N 
ATOM     18  H   UNL     1       4.527   3.638  14.582  0.00  0.00    +0.000 HD
BRANCH  17  19
ATOM     19  C   UNL     1       5.539   4.244  12.833  0.00  0.00    +0.000 C 
BRANCH  19  20
ATOM     20  C   UNL     1       6.001   3.080  12.037  0.00  0.00    +0.000 A 
ATOM     21  C   UNL     1       5.348   1.980  11.523  0.00  0.00    +0.000 A 
ATOM     22  C   UNL     1       6.335   1.180  10.897  0.00  0.00    +0.000 A 
ATOM     23  C   UNL     1       7.527   1.843  11.067  0.00  0.00    +0.000 A 
ATOM     24  O   UNL     1       7.338   2.999  11.755  0.00  0.00    +0.000 OA
ENDBRANCH  19  20
ENDBRANCH  17  19
ENDBRANCH  14  15
ENDBRANCH   8  14
TORSDOF 6
ENDMDL
MODEL 9
REMARK VINA RESULT:      -6.9      4.145      6.967
REMARK  Name = 
REMARK  7 active torsions:
REMARK  status: ('A' for Active; 'I' for Inactive)
REMARK    1  A    between atoms: C_1  and  C_2
REMARK    2  A    between atoms: C_2  and  C_3
REMARK    3  A    between atoms: C_8  and  C_9
REMARK    4  A    between atoms: N_12  and  C_13
REMARK    5  A    between atoms: C_13  and  C_14
REMARK    6  A    between atoms: N_16  and  C_17
REMARK    7  A    between atoms: C_17  and  C_18
REMARK                            x       y       z     vdW  Elec       q    Type
REMARK                         _______ _______ _______ _____ _____    ______ ____
ROOT
ATOM      1  C   UNL     1       1.711   3.606  19.270  0.00  0.00    +0.000 A 
ATOM      2  C   UNL     1       1.889   2.451  18.470  0.00  0.00    +0.000 A 
ATOM      3  C   UNL     1       2.718   2.430  17.357  0.00  0.00    +0.000 A 
ATOM      4  C   UNL     1       3.421   3.572  16.999  0.00  0.00    +0.000 A 
ATOM      5  C   UNL     1       3.273   4.757  17.752  0.00  0.00    +0.000 A 
ATOM      6  C   UNL     1       3.859   6.044  17.624  0.00  0.00    +0.000 A 
ATOM      7  C   UNL     1       3.364   6.832  18.630  0.00  0.00    +0.000 A 
ATOM      8  N   UNL     1       2.478   6.078  19.373  0.00  0.00    +0.000 N 
ATOM      9  C   UNL     1       2.417   4.778  18.876  0.00  0.00    +0.000 A 
ENDROOT
BRANCH   1  11
ATOM     10  C   UNL     1       1.477   2.698  21.610  0.00  0.00    +0.000 C 
ATOM     11  C   UNL     1       0.802   3.449  20.471  0.00  0.00    +0.000 C 
ENDBRANCH   1  11
BRANCH   6  12
ATOM     12  C   UNL     1       4.811   6.467  16.640  0.00  0.00    +0.000 C 
ATOM     13  N   UNL     1       5.586   6.814  15.849  0.00  0.00    +0.000 NA
ENDBRANCH   6  12
BRANCH   8  14
ATOM     14  C   UNL     1       1.832   6.633  20.556  0.00  0.00    +0.000 C 
BRANCH  14  15
ATOM     15  C   UNL     1       1.564   8.123  20.458  0.00  0.00    +0.000 C 
ATOM     16  O   UNL     1       1.485   8.850  21.447  0.00  0.00    +0.000 OA
ATOM     17  N   UNL     1       1.468   8.635  19.181  0.00  0.00    +0.000 N 
ATOM     18  H   UNL     1       1.301   8.028  18.386  0.00  0.00    +0.000 HD
BRANCH  17  19
ATOM     19  C   UNL     1       1.206  10.047  18.993  0.00  0.00    +0.000 C 
BRANCH  19  20
ATOM     20  C   UNL     1      -0.204  10.277  18.589  0.00  0.00    +0.000 A 
ATOM     21  C   UNL     1      -1.245  10.965  19.176  0.00  0.00    +0.000 A 
ATOM     22  C   UNL     1      -2.372  10.781  18.341  0.00  0.00    +0.000 A 
ATOM     23  C   UNL     1      -1.950   9.992  17.297  0.00  0.00    +0.000 A 
ATOM     24  O   UNL     1      -0.635   9.682  17.434  0.00  0.00    +0.000 OA
ENDBRANCH  19  20
ENDBRANCH  17  19
ENDBRANCH  14  15
ENDBRANCH   8  14
TORSDOF 6
ENDMDL
