MODEL 1
REMARK VINA RESULT:      -7.8      0.000      0.000
REMARK  Name = 
REMARK  13 active torsions:
REMARK  status: ('A' for Active; 'I' for Inactive)
REMARK    1  A    between atoms: C_1  and  C_2
REMARK    2  A    between atoms: C_2  and  C_3
REMARK    3  A    between atoms: C_3  and  C_4
REMARK    4  A    between atoms: C_4  and  C_5
REMARK    5  A    between atoms: C_6  and  C_7
REMARK    6  A    between atoms: N_14  and  C_15
REMARK    7  A    between atoms: C_17  and  C_18
REMARK    8  A    between atoms: C_18  and  S_19
REMARK    9  A    between atoms: S_19  and  C_20
REMARK   10  A    between atoms: C_20  and  C_21
REMARK   11  A    between atoms: C_20  and  C_22
REMARK   12  A    between atoms: C_23  and  O_24
REMARK   13  A    between atoms: C_25  and  O_26
REMARK                            x       y       z     vdW  Elec       q    Type
REMARK                         _______ _______ _______ _____ _____    ______ ____
ROOT
ATOM      1  C   UNL     1       1.926   6.138  20.275  0.00  0.00    +0.000 A 
ATOM      2  N   UNL     1       1.279   5.100  20.852  0.00  0.00    +0.000 NA
ATOM      3  C   UNL     1       1.612   3.844  20.462  0.00  0.00    +0.000 A 
ATOM      4  N   UNL     1       1.001   2.755  21.072  0.00  0.00    +0.000 N 
ATOM      5  C   UNL     1       2.575   3.678  19.454  0.00  0.00    +0.000 A 
ATOM      6  N   UNL     1       3.066   2.548  18.850  0.00  0.00    +0.000 NA
ATOM      7  C   UNL     1       3.963   2.982  17.996  0.00  0.00    +0.000 A 
ATOM      8  N   UNL     1       4.097   4.347  18.049  0.00  0.00    +0.000 N 
ATOM      9  C   UNL     1       3.175   4.826  18.953  0.00  0.00    +0.000 A 
ATOM     10  N   UNL     1       2.895   6.100  19.317  0.00  0.00    +0.000 NA
ATOM     11  H   UNL     1       0.123   2.972  21.519  0.00  0.00    +0.000 HD
ATOM     12  H   UNL     1       1.074   1.893  20.540  0.00  0.00    +0.000 HD
ENDROOT
BRANCH   8  13
ATOM     13  C   UNL     1       5.109   5.107  17.338  0.00  0.00    +0.000 C 
ATOM     14  O   UNL     1       4.910   4.976  15.910  0.00  0.00    +0.000 OA
ATOM     15  C   UNL     1       6.198   4.922  15.241  0.00  0.00    +0.000 C 
ATOM     16  C   UNL     1       7.251   5.079  16.343  0.00  0.00    +0.000 C 
ATOM     17  C   UNL     1       6.526   4.611  17.598  0.00  0.00    +0.000 C 
BRANCH  16  18
ATOM     18  O   UNL     1       7.615   6.461  16.524  0.00  0.00    +0.000 OA
ATOM     19  H   UNL     1       8.429   6.652  16.023  0.00  0.00    +0.000 HD
ENDBRANCH  16  18
BRANCH  17  20
ATOM     20  O   UNL     1       7.112   5.149  18.776  0.00  0.00    +0.000 OA
ATOM     21  H   UNL     1       7.554   5.984  18.519  0.00  0.00    +0.000 HD
ENDBRANCH  17  20
BRANCH  15  22
ATOM     22  C   UNL     1       6.350   3.609  14.437  0.00  0.00    +0.000 C 
BRANCH  22  23
ATOM     23  S   UNL     1       6.316   3.977  12.639  0.00  0.00    +0.000 S 
BRANCH  23  24
ATOM     24  C   UNL     1       5.157   2.706  11.994  0.00  0.00    +0.000 C 
ATOM     25  C   UNL     1       4.119   3.290  11.042  0.00  0.00    +0.000 C 
ATOM     26  C   UNL     1       5.996   1.653  11.265  0.00  0.00    +0.000 C 
ENDBRANCH  23  24
ENDBRANCH  22  23
ENDBRANCH  15  22
ENDBRANCH   8  13
BRANCH   1  28
ATOM     27  C   UNL     1       1.139   8.652  21.080  0.00  0.00    +0.000 C 
ATOM     28  C   UNL     1       1.482   7.448  20.713  0.00  0.00    +0.000 C 
BRANCH  27  29
ATOM     29  C   UNL     1       0.737  10.054  21.506  0.00  0.00    +0.000 C 
BRANCH  29  30
ATOM     30  C   UNL     1      -0.320  10.609  20.556  0.00  0.00    +0.000 C 
BRANCH  30  32
ATOM     31  C   UNL     1      -1.038  10.192  18.182  0.00  0.00    +0.000 C 
ATOM     32  C   UNL     1       0.131  10.505  19.101  0.00  0.00    +0.000 C 
ENDBRANCH  30  32
ENDBRANCH  29  30
ENDBRANCH  27  29
ENDBRANCH   1  28
TORSDOF 10
ENDMDL
MODEL 2
REMARK VINA RESULT:      -7.8      0.932      1.281
REMARK  Name = 
REMARK  13 active torsions:
REMARK  status: ('A' for Active; 'I' for Inactive)
REMARK    1  A    between atoms: C_1  and  C_2
REMARK    2  A    between atoms: C_2  and  C_3
REMARK    3  A    between atoms: C_3  and  C_4
REMARK    4  A    between atoms: C_4  and  C_5
REMARK    5  A    between atoms: C_6  and  C_7
REMARK    6  A    between atoms: N_14  and  C_15
REMARK    7  A    between atoms: C_17  and  C_18
REMARK    8  A    between atoms: C_18  and  S_19
REMARK    9  A    between atoms: S_19  and  C_20
REMARK   10  A    between atoms: C_20  and  C_21
REMARK   11  A    between atoms: C_20  and  C_22
REMARK   12  A    between atoms: C_23  and  O_24
REMARK   13  A    between atoms: C_25  and  O_26
REMARK                            x       y       z     vdW  Elec       q    Type
REMARK                         _______ _______ _______ _____ _____    ______ ____
ROOT
ATOM      1  C   UNL     1       2.009   5.922  20.489  0.00  0.00    +0.000 A 
ATOM      2  N   UNL     1       1.475   4.861  21.138  0.00  0.00    +0.000 NA
ATOM      3  C   UNL     1       1.906   3.621  20.797  0.00  0.00    +0.000 A 
ATOM      4  N   UNL     1       1.413   2.516  21.478  0.00  0.00    +0.000 N 
ATOM      5  C   UNL     1       2.849   3.489  19.766  0.00  0.00    +0.000 A 
ATOM      6  N   UNL     1       3.421   2.377  19.199  0.00  0.00    +0.000 NA
ATOM      7  C   UNL     1       4.249   2.844  18.295  0.00  0.00    +0.000 A 
ATOM      8  N   UNL     1       4.263   4.216  18.278  0.00  0.00    +0.000 N 
ATOM      9  C   UNL     1       3.329   4.658  19.189  0.00  0.00    +0.000 A 
ATOM     10  N   UNL     1       2.949   5.920  19.502  0.00  0.00    +0.000 NA
ATOM     11  H   UNL     1       0.533   2.677  21.945  0.00  0.00    +0.000 HD
ATOM     12  H   UNL     1       1.547   1.637  20.987  0.00  0.00    +0.000 HD
ENDROOT
BRANCH   8  13
ATOM     13  C   UNL     1       5.181   5.025  17.497  0.00  0.00    +0.000 C 
ATOM     14  O   UNL     1       4.883   4.885  16.087  0.00  0.00    +0.000 OA
ATOM     15  C   UNL     1       6.118   4.894  15.324  0.00  0.00    +0.000 C 
ATOM     16  C   UNL     1       7.242   5.100  16.345  0.00  0.00    +0.000 C 
ATOM     17  C   UNL     1       6.636   4.597  17.648  0.00  0.00    +0.000 C 
BRANCH  16  18
ATOM     18  O   UNL     1       7.552   6.498  16.504  0.00  0.00    +0.000 OA
ATOM     19  H   UNL     1       8.501   6.643  16.333  0.00  0.00    +0.000 HD
ENDBRANCH  16  18
BRANCH  17  20
ATOM     20  O   UNL     1       7.283   5.160  18.782  0.00  0.00    +0.000 OA
ATOM     21  H   UNL     1       7.824   5.909  18.458  0.00  0.00    +0.000 HD
ENDBRANCH  17  20
BRANCH  15  22
ATOM     22  C   UNL     1       6.271   3.591  14.505  0.00  0.00    +0.000 C 
BRANCH  22  23
ATOM     23  S   UNL     1       6.316   3.988  12.713  0.00  0.00    +0.000 S 
BRANCH  23  24
ATOM     24  C   UNL     1       5.243   2.684  11.989  0.00  0.00    +0.000 C 
ATOM     25  C   UNL     1       4.147   3.255  11.098  0.00  0.00    +0.000 C 
ATOM     26  C   UNL     1       6.146   1.756  11.171  0.00  0.00    +0.000 C 
ENDBRANCH  23  24
ENDBRANCH  22  23
ENDBRANCH  15  22
ENDBRANCH   8  13
BRANCH   1  28
ATOM     27  C   UNL     1       0.950   8.371  21.169  0.00  0.00    +0.000 C 
ATOM     28  C   UNL     1       1.465   7.208  20.880  0.00  0.00    +0.000 C 
BRANCH  27  29
ATOM     29  C   UNL     1       0.349   9.725  21.507  0.00  0.00    +0.000 C 
BRANCH  29  30
ATOM     30  C   UNL     1      -0.472   9.630  22.790  0.00  0.00    +0.000 C 
BRANCH  30  32
ATOM     31  C   UNL     1      -0.695  12.060  22.179  0.00  0.00    +0.000 C 
ATOM     32  C   UNL     1      -1.177  10.949  23.098  0.00  0.00    +0.000 C 
ENDBRANCH  30  32
ENDBRANCH  29  30
ENDBRANCH  27  29
ENDBRANCH   1  28
TORSDOF 10
ENDMDL
MODEL 3
REMARK VINA RESULT:      -7.5      1.292      1.644
REMARK  Name = 
REMARK  13 active torsions:
REMARK  status: ('A' for Active; 'I' for Inactive)
REMARK    1  A    between atoms: C_1  and  C_2
REMARK    2  A    between atoms: C_2  and  C_3
REMARK    3  A    between atoms: C_3  and  C_4
REMARK    4  A    between atoms: C_4  and  C_5
REMARK    5  A    between atoms: C_6  and  C_7
REMARK    6  A    between atoms: N_14  and  C_15
REMARK    7  A    between atoms: C_17  and  C_18
REMARK    8  A    between atoms: C_18  and  S_19
REMARK    9  A    between atoms: S_19  and  C_20
REMARK   10  A    between atoms: C_20  and  C_21
REMARK   11  A    between atoms: C_20  and  C_22
REMARK   12  A    between atoms: C_23  and  O_24
REMARK   13  A    between atoms: C_25  and  O_26
REMARK                            x       y       z     vdW  Elec       q    Type
REMARK                         _______ _______ _______ _____ _____    ______ ____
ROOT
ATOM      1  C   UNL     1       1.792   6.447  20.411  0.00  0.00    +0.000 A 
ATOM      2  N   UNL     1       1.029   5.385  20.758  0.00  0.00    +0.000 NA
ATOM      3  C   UNL     1       1.385   4.162  20.288  0.00  0.00    +0.000 A 
ATOM      4  N   UNL     1       0.650   3.046  20.666  0.00  0.00    +0.000 N 
ATOM      5  C   UNL     1       2.494   4.058  19.435  0.00  0.00    +0.000 A 
ATOM      6  N   UNL     1       3.045   2.977  18.794  0.00  0.00    +0.000 NA
ATOM      7  C   UNL     1       4.081   3.456  18.148  0.00  0.00    +0.000 A 
ATOM      8  N   UNL     1       4.246   4.799  18.375  0.00  0.00    +0.000 N 
ATOM      9  C   UNL     1       3.202   5.224  19.167  0.00  0.00    +0.000 A 
ATOM     10  N   UNL     1       2.904   6.464  19.623  0.00  0.00    +0.000 NA
ATOM     11  H   UNL     1      -0.283   3.255  20.990  0.00  0.00    +0.000 HD
ATOM     12  H   UNL     1       0.784   2.242  20.061  0.00  0.00    +0.000 HD
ENDROOT
BRANCH   8  13
ATOM     13  C   UNL     1       5.382   5.582  17.924  0.00  0.00    +0.000 C 
ATOM     14  O   UNL     1       5.379   5.667  16.478  0.00  0.00    +0.000 OA
ATOM     15  C   UNL     1       6.743   5.620  15.984  0.00  0.00    +0.000 C 
ATOM     16  C   UNL     1       7.639   5.549  17.226  0.00  0.00    +0.000 C 
ATOM     17  C   UNL     1       6.724   4.959  18.291  0.00  0.00    +0.000 C 
BRANCH  16  18
ATOM     18  O   UNL     1       8.040   6.864  17.656  0.00  0.00    +0.000 OA
ATOM     19  H   UNL     1       7.350   7.510  17.417  0.00  0.00    +0.000 HD
ENDBRANCH  16  18
BRANCH  17  20
ATOM     20  O   UNL     1       7.164   5.284  19.603  0.00  0.00    +0.000 OA
ATOM     21  H   UNL     1       6.559   5.974  19.944  0.00  0.00    +0.000 HD
ENDBRANCH  17  20
BRANCH  15  22
ATOM     22  C   UNL     1       6.943   4.428  15.021  0.00  0.00    +0.000 C 
BRANCH  22  23
ATOM     23  S   UNL     1       5.366   4.059  14.156  0.00  0.00    +0.000 S 
BRANCH  23  24
ATOM     24  C   UNL     1       5.941   3.307  12.582  0.00  0.00    +0.000 C 
ATOM     25  C   UNL     1       4.827   3.188  11.548  0.00  0.00    +0.000 C 
ATOM     26  C   UNL     1       7.062   4.197  12.036  0.00  0.00    +0.000 C 
ENDBRANCH  23  24
ENDBRANCH  22  23
ENDBRANCH  15  22
ENDBRANCH   8  13
BRANCH   1  28
ATOM     27  C   UNL     1       0.908   8.845  21.434  0.00  0.00    +0.000 C 
ATOM     28  C   UNL     1       1.322   7.722  20.917  0.00  0.00    +0.000 C 
BRANCH  27  29
ATOM     29  C   UNL     1       0.426  10.155  22.036  0.00  0.00    +0.000 C 
BRANCH  29  30
ATOM     30  C   UNL     1      -0.704   9.894  23.027  0.00  0.00    +0.000 C 
BRANCH  30  32
ATOM     31  C   UNL     1      -0.955  12.348  22.538  0.00  0.00    +0.000 C 
ATOM     32  C   UNL     1      -1.560  11.140  23.236  0.00  0.00    +0.000 C 
ENDBRANCH  30  32
ENDBRANCH  29  30
ENDBRANCH  27  29
ENDBRANCH   1  28
TORSDOF 10
ENDMDL
MODEL 4
REMARK VINA RESULT:      -7.4      1.110      1.270
REMARK  Name = 
REMARK  13 active torsions:
REMARK  status: ('A' for Active; 'I' for Inactive)
REMARK    1  A    between atoms: C_1  and  C_2
REMARK    2  A    between atoms: C_2  and  C_3
REMARK    3  A    between atoms: C_3  and  C_4
REMARK    4  A    between atoms: C_4  and  C_5
REMARK    5  A    between atoms: C_6  and  C_7
REMARK    6  A    between atoms: N_14  and  C_15
REMARK    7  A    between atoms: C_17  and  C_18
REMARK    8  A    between atoms: C_18  and  S_19
REMARK    9  A    between atoms: S_19  and  C_20
REMARK   10  A    between atoms: C_20  and  C_21
REMARK   11  A    between atoms: C_20  and  C_22
REMARK   12  A    between atoms: C_23  and  O_24
REMARK   13  A    between atoms: C_25  and  O_26
REMARK                            x       y       z     vdW  Elec       q    Type
REMARK                         _______ _______ _______ _____ _____    ______ ____
ROOT
ATOM      1  C   UNL     1       1.636   6.359  20.456  0.00  0.00    +0.000 A 
ATOM      2  N   UNL     1       0.881   5.263  20.698  0.00  0.00    +0.000 NA
ATOM      3  C   UNL     1       1.293   4.077  20.182  0.00  0.00    +0.000 A 
ATOM      4  N   UNL     1       0.566   2.925  20.454  0.00  0.00    +0.000 N 
ATOM      5  C   UNL     1       2.451   4.047  19.390  0.00  0.00    +0.000 A 
ATOM      6  N   UNL     1       3.064   3.016  18.722  0.00  0.00    +0.000 NA
ATOM      7  C   UNL     1       4.123   3.553  18.165  0.00  0.00    +0.000 A 
ATOM      8  N   UNL     1       4.241   4.885  18.476  0.00  0.00    +0.000 N 
ATOM      9  C   UNL     1       3.144   5.241  19.230  0.00  0.00    +0.000 A 
ATOM     10  N   UNL     1       2.790   6.446  19.735  0.00  0.00    +0.000 NA
ATOM     11  H   UNL     1      -0.388   3.096  20.734  0.00  0.00    +0.000 HD
ATOM     12  H   UNL     1       0.754   2.161  19.813  0.00  0.00    +0.000 HD
ENDROOT
BRANCH   8  13
ATOM     13  C   UNL     1       5.381   5.717  18.137  0.00  0.00    +0.000 C 
ATOM     14  O   UNL     1       5.459   5.883  16.700  0.00  0.00    +0.000 OA
ATOM     15  C   UNL     1       6.850   5.894  16.285  0.00  0.00    +0.000 C 
ATOM     16  C   UNL     1       7.674   5.773  17.571  0.00  0.00    +0.000 C 
ATOM     17  C   UNL     1       6.715   5.104  18.546  0.00  0.00    +0.000 C 
BRANCH  16  18
ATOM     18  O   UNL     1       8.017   7.069  18.096  0.00  0.00    +0.000 OA
ATOM     19  H   UNL     1       8.928   7.051  18.442  0.00  0.00    +0.000 HD
ENDBRANCH  16  18
BRANCH  17  20
ATOM     20  O   UNL     1       7.071   5.364  19.898  0.00  0.00    +0.000 OA
ATOM     21  H   UNL     1       6.701   4.635  20.436  0.00  0.00    +0.000 HD
ENDBRANCH  17  20
BRANCH  15  22
ATOM     22  C   UNL     1       7.134   4.762  15.270  0.00  0.00    +0.000 C 
BRANCH  22  23
ATOM     23  S   UNL     1       5.575   4.276  14.432  0.00  0.00    +0.000 S 
BRANCH  23  24
ATOM     24  C   UNL     1       6.183   3.489  12.887  0.00  0.00    +0.000 C 
ATOM     25  C   UNL     1       5.063   3.218  11.888  0.00  0.00    +0.000 C 
ATOM     26  C   UNL     1       7.212   4.440  12.267  0.00  0.00    +0.000 C 
ENDBRANCH  23  24
ENDBRANCH  22  23
ENDBRANCH  15  22
ENDBRANCH   8  13
BRANCH   1  28
ATOM     27  C   UNL     1       0.613   8.721  21.435  0.00  0.00    +0.000 C 
ATOM     28  C   UNL     1       1.106   7.593  21.004  0.00  0.00    +0.000 C 
BRANCH  27  29
ATOM     29  C   UNL     1       0.037  10.034  21.938  0.00  0.00    +0.000 C 
BRANCH  29  30
ATOM     30  C   UNL     1       0.624  11.201  21.150  0.00  0.00    +0.000 C 
BRANCH  30  32
ATOM     31  C   UNL     1      -1.463  11.501  19.779  0.00  0.00    +0.000 C 
ATOM     32  C   UNL     1       0.040  11.271  19.742  0.00  0.00    +0.000 C 
ENDBRANCH  30  32
ENDBRANCH  29  30
ENDBRANCH  27  29
ENDBRANCH   1  28
TORSDOF 10
ENDMDL
MODEL 5
REMARK VINA RESULT:      -7.2      3.370      8.048
REMARK  Name = 
REMARK  13 active torsions:
REMARK  status: ('A' for Active; 'I' for Inactive)
REMARK    1  A    between atoms: C_1  and  C_2
REMARK    2  A    between atoms: C_2  and  C_3
REMARK    3  A    between atoms: C_3  and  C_4
REMARK    4  A    between atoms: C_4  and  C_5
REMARK    5  A    between atoms: C_6  and  C_7
REMARK    6  A    between atoms: N_14  and  C_15
REMARK    7  A    between atoms: C_17  and  C_18
REMARK    8  A    between atoms: C_18  and  S_19
REMARK    9  A    between atoms: S_19  and  C_20
REMARK   10  A    between atoms: C_20  and  C_21
REMARK   11  A    between atoms: C_20  and  C_22
REMARK   12  A    between atoms: C_23  and  O_24
REMARK   13  A    between atoms: C_25  and  O_26
REMARK                            x       y       z     vdW  Elec       q    Type
REMARK                         _______ _______ _______ _____ _____    ______ ____
ROOT
ATOM      1  C   UNL     1       4.003   4.671  17.400  0.00  0.00    +0.000 A 
ATOM      2  N   UNL     1       3.612   3.471  17.888  0.00  0.00    +0.000 NA
ATOM      3  C   UNL     1       2.759   3.458  18.944  0.00  0.00    +0.000 A 
ATOM      4  N   UNL     1       2.301   2.243  19.437  0.00  0.00    +0.000 N 
ATOM      5  C   UNL     1       2.356   4.679  19.507  0.00  0.00    +0.000 A 
ATOM      6  N   UNL     1       1.549   4.958  20.581  0.00  0.00    +0.000 NA
ATOM      7  C   UNL     1       1.500   6.267  20.640  0.00  0.00    +0.000 A 
ATOM      8  N   UNL     1       2.215   6.849  19.622  0.00  0.00    +0.000 N 
ATOM      9  C   UNL     1       2.819   5.842  18.902  0.00  0.00    +0.000 A 
ATOM     10  N   UNL     1       3.654   5.914  17.839  0.00  0.00    +0.000 NA
ATOM     11  H   UNL     1       2.883   1.454  19.197  0.00  0.00    +0.000 HD
ATOM     12  H   UNL     1       1.923   2.298  20.377  0.00  0.00    +0.000 HD
ENDROOT
BRANCH   8  13
ATOM     13  C   UNL     1       2.230   8.270  19.329  0.00  0.00    +0.000 C 
ATOM     14  O   UNL     1       1.400   8.979  20.281  0.00  0.00    +0.000 OA
ATOM     15  C   UNL     1       0.714  10.070  19.612  0.00  0.00    +0.000 C 
ATOM     16  C   UNL     1       1.202  10.047  18.160  0.00  0.00    +0.000 C 
ATOM     17  C   UNL     1       1.654   8.607  17.959  0.00  0.00    +0.000 C 
BRANCH  16  18
ATOM     18  O   UNL     1       2.345  10.906  17.980  0.00  0.00    +0.000 OA
ATOM     19  H   UNL     1       2.291  11.342  17.110  0.00  0.00    +0.000 HD
ENDBRANCH  16  18
BRANCH  17  20
ATOM     20  O   UNL     1       2.596   8.493  16.900  0.00  0.00    +0.000 OA
ATOM     21  H   UNL     1       3.470   8.336  17.312  0.00  0.00    +0.000 HD
ENDBRANCH  17  20
BRANCH  15  22
ATOM     22  C   UNL     1      -0.820   9.921  19.741  0.00  0.00    +0.000 C 
BRANCH  22  23
ATOM     23  S   UNL     1      -1.652  11.275  18.821  0.00  0.00    +0.000 S 
BRANCH  23  24
ATOM     24  C   UNL     1      -2.916  10.371  17.840  0.00  0.00    +0.000 C 
ATOM     25  C   UNL     1      -4.127  11.235  17.507  0.00  0.00    +0.000 C 
ATOM     26  C   UNL     1      -2.239   9.905  16.547  0.00  0.00    +0.000 C 
ENDBRANCH  23  24
ENDBRANCH  22  23
ENDBRANCH  15  22
ENDBRANCH   8  13
BRANCH   1  28
ATOM     27  C   UNL     1       5.772   4.593  15.291  0.00  0.00    +0.000 C 
ATOM     28  C   UNL     1       4.947   4.599  16.302  0.00  0.00    +0.000 C 
BRANCH  27  29
ATOM     29  C   UNL     1       6.734   4.587  14.115  0.00  0.00    +0.000 C 
BRANCH  29  30
ATOM     30  C   UNL     1       6.279   3.571  13.071  0.00  0.00    +0.000 C 
BRANCH  30  32
ATOM     31  C   UNL     1       4.501   3.028  11.377  0.00  0.00    +0.000 C 
ATOM     32  C   UNL     1       4.854   3.855  12.603  0.00  0.00    +0.000 C 
ENDBRANCH  30  32
ENDBRANCH  29  30
ENDBRANCH  27  29
ENDBRANCH   1  28
TORSDOF 10
ENDMDL
MODEL 6
REMARK VINA RESULT:      -7.2      0.856      1.225
REMARK  Name = 
REMARK  13 active torsions:
REMARK  status: ('A' for Active; 'I' for Inactive)
REMARK    1  A    between atoms: C_1  and  C_2
REMARK    2  A    between atoms: C_2  and  C_3
REMARK    3  A    between atoms: C_3  and  C_4
REMARK    4  A    between atoms: C_4  and  C_5
REMARK    5  A    between atoms: C_6  and  C_7
REMARK    6  A    between atoms: N_14  and  C_15
REMARK    7  A    between atoms: C_17  and  C_18
REMARK    8  A    between atoms: C_18  and  S_19
REMARK    9  A    between atoms: S_19  and  C_20
REMARK   10  A    between atoms: C_20  and  C_21
REMARK   11  A    between atoms: C_20  and  C_22
REMARK   12  A    between atoms: C_23  and  O_24
REMARK   13  A    between atoms: C_25  and  O_26
REMARK                            x       y       z     vdW  Elec       q    Type
REMARK                         _______ _______ _______ _____ _____    ______ ____
ROOT
ATOM      1  C   UNL     1       1.967   6.148  20.224  0.00  0.00    +0.000 A 
ATOM      2  N   UNL     1       1.332   5.133  20.853  0.00  0.00    +0.000 NA
ATOM      3  C   UNL     1       1.660   3.862  20.507  0.00  0.00    +0.000 A 
ATOM      4  N   UNL     1       1.061   2.798  21.170  0.00  0.00    +0.000 N 
ATOM      5  C   UNL     1       2.604   3.657  19.490  0.00  0.00    +0.000 A 
ATOM      6  N   UNL     1       3.087   2.505  18.921  0.00  0.00    +0.000 NA
ATOM      7  C   UNL     1       3.967   2.905  18.035  0.00  0.00    +0.000 A 
ATOM      8  N   UNL     1       4.101   4.271  18.032  0.00  0.00    +0.000 N 
ATOM      9  C   UNL     1       3.194   4.786  18.933  0.00  0.00    +0.000 A 
ATOM     10  N   UNL     1       2.920   6.073  19.251  0.00  0.00    +0.000 NA
ATOM     11  H   UNL     1       0.191   3.032  21.624  0.00  0.00    +0.000 HD
ATOM     12  H   UNL     1       1.126   1.916  20.672  0.00  0.00    +0.000 HD
ENDROOT
BRANCH   8  13
ATOM     13  C   UNL     1       5.099   5.004  17.274  0.00  0.00    +0.000 C 
ATOM     14  O   UNL     1       4.736   5.021  15.872  0.00  0.00    +0.000 OA
ATOM     15  C   UNL     1       5.934   4.918  15.057  0.00  0.00    +0.000 C 
ATOM     16  C   UNL     1       7.110   4.882  16.040  0.00  0.00    +0.000 C 
ATOM     17  C   UNL     1       6.482   4.366  17.327  0.00  0.00    +0.000 C 
BRANCH  16  18
ATOM     18  O   UNL     1       7.621   6.205  16.289  0.00  0.00    +0.000 OA
ATOM     19  H   UNL     1       7.060   6.863  15.838  0.00  0.00    +0.000 HD
ENDBRANCH  16  18
BRANCH  17  20
ATOM     20  O   UNL     1       7.240   4.741  18.470  0.00  0.00    +0.000 OA
ATOM     21  H   UNL     1       6.641   4.678  19.242  0.00  0.00    +0.000 HD
ENDBRANCH  17  20
BRANCH  15  22
ATOM     22  C   UNL     1       5.872   3.677  14.137  0.00  0.00    +0.000 C 
BRANCH  22  23
ATOM     23  S   UNL     1       6.749   4.028  12.563  0.00  0.00    +0.000 S 
BRANCH  23  24
ATOM     24  C   UNL     1       5.805   3.024  11.348  0.00  0.00    +0.000 C 
ATOM     25  C   UNL     1       6.021   1.527  11.533  0.00  0.00    +0.000 C 
ATOM     26  C   UNL     1       4.323   3.362  11.533  0.00  0.00    +0.000 C 
ENDBRANCH  23  24
ENDBRANCH  22  23
ENDBRANCH  15  22
ENDBRANCH   8  13
BRANCH   1  28
ATOM     27  C   UNL     1       1.123   8.678  20.909  0.00  0.00    +0.000 C 
ATOM     28  C   UNL     1       1.530   7.474  20.618  0.00  0.00    +0.000 C 
BRANCH  27  29
ATOM     29  C   UNL     1       0.647  10.081  21.248  0.00  0.00    +0.000 C 
BRANCH  29  30
ATOM     30  C   UNL     1       1.033  11.050  20.134  0.00  0.00    +0.000 C 
BRANCH  30  32
ATOM     31  C   UNL     1       1.208  13.472  19.480  0.00  0.00    +0.000 C 
ATOM     32  C   UNL     1       1.037  12.494  20.631  0.00  0.00    +0.000 C 
ENDBRANCH  30  32
ENDBRANCH  29  30
ENDBRANCH  27  29
ENDBRANCH   1  28
TORSDOF 10
ENDMDL
MODEL 7
REMARK VINA RESULT:      -7.1      4.471      7.234
REMARK  Name = 
REMARK  13 active torsions:
REMARK  status: ('A' for Active; 'I' for Inactive)
REMARK    1  A    between atoms: C_1  and  C_2
REMARK    2  A    between atoms: C_2  and  C_3
REMARK    3  A    between atoms: C_3  and  C_4
REMARK    4  A    between atoms: C_4  and  C_5
REMARK    5  A    between atoms: C_6  and  C_7
REMARK    6  A    between atoms: N_14  and  C_15
REMARK    7  A    between atoms: C_17  and  C_18
REMARK    8  A    between atoms: C_18  and  S_19
REMARK    9  A    between atoms: S_19  and  C_20
REMARK   10  A    between atoms: C_20  and  C_21
REMARK   11  A    between atoms: C_20  and  C_22
REMARK   12  A    between atoms: C_23  and  O_24
REMARK   13  A    between atoms: C_25  and  O_26
REMARK                            x       y       z     vdW  Elec       q    Type
REMARK                         _______ _______ _______ _____ _____    ______ ____
ROOT
ATOM      1  C   UNL     1       7.305   7.545  17.496  0.00  0.00    +0.000 A 
ATOM      2  N   UNL     1       7.691   6.864  16.392  0.00  0.00    +0.000 NA
ATOM      3  C   UNL     1       6.989   5.755  16.048  0.00  0.00    +0.000 A 
ATOM      4  N   UNL     1       7.330   5.063  14.893  0.00  0.00    +0.000 N 
ATOM      5  C   UNL     1       5.928   5.341  16.867  0.00  0.00    +0.000 A 
ATOM      6  N   UNL     1       5.089   4.258  16.784  0.00  0.00    +0.000 NA
ATOM      7  C   UNL     1       4.271   4.381  17.802  0.00  0.00    +0.000 A 
ATOM      8  N   UNL     1       4.525   5.521  18.523  0.00  0.00    +0.000 N 
ATOM      9  C   UNL     1       5.624   6.137  17.965  0.00  0.00    +0.000 A 
ATOM     10  N   UNL     1       6.277   7.260  18.345  0.00  0.00    +0.000 NA
ATOM     11  H   UNL     1       8.271   5.233  14.572  0.00  0.00    +0.000 HD
ATOM     12  H   UNL     1       6.972   4.114  14.863  0.00  0.00    +0.000 HD
ENDROOT
BRANCH   8  13
ATOM     13  C   UNL     1       3.701   6.012  19.612  0.00  0.00    +0.000 C 
ATOM     14  O   UNL     1       3.347   4.919  20.493  0.00  0.00    +0.000 OA
ATOM     15  C   UNL     1       1.991   5.102  20.979  0.00  0.00    +0.000 C 
ATOM     16  C   UNL     1       1.507   6.429  20.384  0.00  0.00    +0.000 C 
ATOM     17  C   UNL     1       2.375   6.601  19.145  0.00  0.00    +0.000 C 
BRANCH  16  18
ATOM     18  O   UNL     1       1.774   7.529  21.275  0.00  0.00    +0.000 OA
ATOM     19  H   UNL     1       2.647   7.407  21.691  0.00  0.00    +0.000 HD
ENDBRANCH  16  18
BRANCH  17  20
ATOM     20  O   UNL     1       2.463   7.963  18.748  0.00  0.00    +0.000 OA
ATOM     21  H   UNL     1       1.789   8.454  19.261  0.00  0.00    +0.000 HD
ENDBRANCH  17  20
BRANCH  15  22
ATOM     22  C   UNL     1       1.098   3.901  20.595  0.00  0.00    +0.000 C 
BRANCH  22  23
ATOM     23  S   UNL     1       2.104   2.365  20.565  0.00  0.00    +0.000 S 
BRANCH  23  24
ATOM     24  C   UNL     1       1.940   1.816  18.820  0.00  0.00    +0.000 C 
ATOM     25  C   UNL     1       1.356   2.897  17.918  0.00  0.00    +0.000 C 
ATOM     26  C   UNL     1       3.341   1.434  18.330  0.00  0.00    +0.000 C 
ENDBRANCH  23  24
ENDBRANCH  22  23
ENDBRANCH  15  22
ENDBRANCH   8  13
BRANCH   1  28
ATOM     27  C   UNL     1       8.834   9.736  18.164  0.00  0.00    +0.000 C 
ATOM     28  C   UNL     1       8.132   8.691  17.821  0.00  0.00    +0.000 C 
BRANCH  27  29
ATOM     29  C   UNL     1       9.653  10.952  18.564  0.00  0.00    +0.000 C 
BRANCH  29  30
ATOM     30  C   UNL     1       9.680  11.089  20.083  0.00  0.00    +0.000 C 
BRANCH  30  32
ATOM     31  C   UNL     1      12.051  11.896  19.851  0.00  0.00    +0.000 C 
ATOM     32  C   UNL     1      10.710  12.125  20.529  0.00  0.00    +0.000 C 
ENDBRANCH  30  32
ENDBRANCH  29  30
ENDBRANCH  27  29
ENDBRANCH   1  28
TORSDOF 10
ENDMDL
MODEL 8
REMARK VINA RESULT:      -7.0      3.193      8.219
REMARK  Name = 
REMARK  13 active torsions:
REMARK  status: ('A' for Active; 'I' for Inactive)
REMARK    1  A    between atoms: C_1  and  C_2
REMARK    2  A    between atoms: C_2  and  C_3
REMARK    3  A    between atoms: C_3  and  C_4
REMARK    4  A    between atoms: C_4  and  C_5
REMARK    5  A    between atoms: C_6  and  C_7
REMARK    6  A    between atoms: N_14  and  C_15
REMARK    7  A    between atoms: C_17  and  C_18
REMARK    8  A    between atoms: C_18  and  S_19
REMARK    9  A    between atoms: S_19  and  C_20
REMARK   10  A    between atoms: C_20  and  C_21
REMARK   11  A    between atoms: C_20  and  C_22
REMARK   12  A    between atoms: C_23  and  O_24
REMARK   13  A    between atoms: C_25  and  O_26
REMARK                            x       y       z     vdW  Elec       q    Type
REMARK                         _______ _______ _______ _____ _____    ______ ____
ROOT
ATOM      1  C   UNL     1       3.892   4.225  17.190  0.00  0.00    +0.000 A 
ATOM      2  N   UNL     1       3.394   3.029  17.578  0.00  0.00    +0.000 NA
ATOM      3  C   UNL     1       2.502   3.011  18.601  0.00  0.00    +0.000 A 
ATOM      4  N   UNL     1       1.936   1.804  18.991  0.00  0.00    +0.000 N 
ATOM      5  C   UNL     1       2.169   4.219  19.234  0.00  0.00    +0.000 A 
ATOM      6  N   UNL     1       1.343   4.486  20.297  0.00  0.00    +0.000 NA
ATOM      7  C   UNL     1       1.389   5.788  20.445  0.00  0.00    +0.000 A 
ATOM      8  N   UNL     1       2.185   6.380  19.497  0.00  0.00    +0.000 N 
ATOM      9  C   UNL     1       2.740   5.380  18.729  0.00  0.00    +0.000 A 
ATOM     10  N   UNL     1       3.620   5.459  17.702  0.00  0.00    +0.000 NA
ATOM     11  H   UNL     1       2.466   0.991  18.716  0.00  0.00    +0.000 HD
ATOM     12  H   UNL     1       1.525   1.825  19.919  0.00  0.00    +0.000 HD
ENDROOT
BRANCH   8  13
ATOM     13  C   UNL     1       2.318   7.813  19.304  0.00  0.00    +0.000 C 
ATOM     14  O   UNL     1       1.533   8.517  20.296  0.00  0.00    +0.000 OA
ATOM     15  C   UNL     1       0.946   9.704  19.701  0.00  0.00    +0.000 C 
ATOM     16  C   UNL     1       1.452   9.744  18.254  0.00  0.00    +0.000 C 
ATOM     17  C   UNL     1       1.790   8.289  17.957  0.00  0.00    +0.000 C 
BRANCH  16  18
ATOM     18  O   UNL     1       2.661  10.518  18.146  0.00  0.00    +0.000 OA
ATOM     19  H   UNL     1       2.812  11.006  18.976  0.00  0.00    +0.000 HD
ENDBRANCH  16  18
BRANCH  17  20
ATOM     20  O   UNL     1       2.735   8.174  16.901  0.00  0.00    +0.000 OA
ATOM     21  H   UNL     1       3.619   8.108  17.316  0.00  0.00    +0.000 HD
ENDBRANCH  17  20
BRANCH  15  22
ATOM     22  C   UNL     1      -0.597   9.671  19.805  0.00  0.00    +0.000 C 
BRANCH  22  23
ATOM     23  S   UNL     1      -1.336  10.392  18.287  0.00  0.00    +0.000 S 
BRANCH  23  24
ATOM     24  C   UNL     1      -1.706  12.116  18.805  0.00  0.00    +0.000 C 
ATOM     25  C   UNL     1      -1.827  12.259  20.318  0.00  0.00    +0.000 C 
ATOM     26  C   UNL     1      -0.567  13.000  18.289  0.00  0.00    +0.000 C 
ENDBRANCH  23  24
ENDBRANCH  22  23
ENDBRANCH  15  22
ENDBRANCH   8  13
BRANCH   1  28
ATOM     27  C   UNL     1       5.749   4.160  15.157  0.00  0.00    +0.000 C 
ATOM     28  C   UNL     1       4.871   4.156  16.122  0.00  0.00    +0.000 C 
BRANCH  27  29
ATOM     29  C   UNL     1       6.773   4.165  14.034  0.00  0.00    +0.000 C 
BRANCH  29  30
ATOM     30  C   UNL     1       6.075   4.333  12.688  0.00  0.00    +0.000 C 
BRANCH  30  32
ATOM     31  C   UNL     1       4.283   3.202  11.332  0.00  0.00    +0.000 C 
ATOM     32  C   UNL     1       5.534   3.001  12.172  0.00  0.00    +0.000 C 
ENDBRANCH  30  32
ENDBRANCH  29  30
ENDBRANCH  27  29
ENDBRANCH   1  28
TORSDOF 10
ENDMDL
MODEL 9
REMARK VINA RESULT:      -6.9      3.436      8.652
REMARK  Name = 
REMARK  13 active torsions:
REMARK  status: ('A' for Active; 'I' for Inactive)
REMARK    1  A    between atoms: C_1  and  C_2
REMARK    2  A    between atoms: C_2  and  C_3
REMARK    3  A    between atoms: C_3  and  C_4
REMARK    4  A    between atoms: C_4  and  C_5
REMARK    5  A    between atoms: C_6  and  C_7
REMARK    6  A    between atoms: N_14  and  C_15
REMARK    7  A    between atoms: C_17  and  C_18
REMARK    8  A    between atoms: C_18  and  S_19
REMARK    9  A    between atoms: S_19  and  C_20
REMARK   10  A    between atoms: C_20  and  C_21
REMARK   11  A    between atoms: C_20  and  C_22
REMARK   12  A    between atoms: C_23  and  O_24
REMARK   13  A    between atoms: C_25  and  O_26
REMARK                            x       y       z     vdW  Elec       q    Type
REMARK                         _______ _______ _______ _____ _____    ______ ____
ROOT
ATOM      1  C   UNL     1       3.826   4.264  17.167  0.00  0.00    +0.000 A 
ATOM      2  N   UNL     1       3.348   3.058  17.551  0.00  0.00    +0.000 NA
ATOM      3  C   UNL     1       2.498   3.015  18.608  0.00  0.00    +0.000 A 
ATOM      4  N   UNL     1       1.952   1.798  18.994  0.00  0.00    +0.000 N 
ATOM      5  C   UNL     1       2.187   4.207  19.279  0.00  0.00    +0.000 A 
ATOM      6  N   UNL     1       1.404   4.449  20.380  0.00  0.00    +0.000 NA
ATOM      7  C   UNL     1       1.452   5.748  20.554  0.00  0.00    +0.000 A 
ATOM      8  N   UNL     1       2.206   6.363  19.587  0.00  0.00    +0.000 N 
ATOM      9  C   UNL     1       2.733   5.382  18.776  0.00  0.00    +0.000 A 
ATOM     10  N   UNL     1       3.570   5.486  17.716  0.00  0.00    +0.000 NA
ATOM     11  H   UNL     1       2.473   0.993  18.682  0.00  0.00    +0.000 HD
ATOM     12  H   UNL     1       1.579   1.797  19.939  0.00  0.00    +0.000 HD
ENDROOT
BRANCH   8  13
ATOM     13  C   UNL     1       2.327   7.800  19.419  0.00  0.00    +0.000 C 
ATOM     14  O   UNL     1       1.685   8.479  20.525  0.00  0.00    +0.000 OA
ATOM     15  C   UNL     1       1.036   9.687  20.046  0.00  0.00    +0.000 C 
ATOM     16  C   UNL     1       1.349   9.766  18.548  0.00  0.00    +0.000 C 
ATOM     17  C   UNL     1       1.632   8.319  18.167  0.00  0.00    +0.000 C 
BRANCH  16  18
ATOM     18  O   UNL     1       2.542  10.536  18.304  0.00  0.00    +0.000 OA
ATOM     19  H   UNL     1       3.061  10.117  17.593  0.00  0.00    +0.000 HD
ENDBRANCH  16  18
BRANCH  17  20
ATOM     20  O   UNL     1       2.430   8.230  16.993  0.00  0.00    +0.000 OA
ATOM     21  H   UNL     1       1.959   8.722  16.290  0.00  0.00    +0.000 HD
ENDBRANCH  17  20
BRANCH  15  22
ATOM     22  C   UNL     1      -0.480   9.659  20.350  0.00  0.00    +0.000 C 
BRANCH  22  23
ATOM     23  S   UNL     1      -1.119  11.376  20.468  0.00  0.00    +0.000 S 
BRANCH  23  24
ATOM     24  C   UNL     1      -1.481  11.544  22.261  0.00  0.00    +0.000 C 
ATOM     25  C   UNL     1      -0.856  10.429  23.092  0.00  0.00    +0.000 C 
ATOM     26  C   UNL     1      -0.928  12.899  22.712  0.00  0.00    +0.000 C 
ENDBRANCH  23  24
ENDBRANCH  22  23
ENDBRANCH  15  22
ENDBRANCH   8  13
BRANCH   1  28
ATOM     27  C   UNL     1       5.593   4.248  15.055  0.00  0.00    +0.000 C 
ATOM     28  C   UNL     1       4.761   4.221  16.060  0.00  0.00    +0.000 C 
BRANCH  27  29
ATOM     29  C   UNL     1       6.563   4.279  13.886  0.00  0.00    +0.000 C 
BRANCH  29  30
ATOM     30  C   UNL     1       6.120   3.292  12.810  0.00  0.00    +0.000 C 
BRANCH  30  32
ATOM     31  C   UNL     1       4.118   2.978  11.320  0.00  0.00    +0.000 C 
ATOM     32  C   UNL     1       5.181   3.951  11.802  0.00  0.00    +0.000 C 
ENDBRANCH  30  32
ENDBRANCH  29  30
ENDBRANCH  27  29
ENDBRANCH   1  28
TORSDOF 10
ENDMDL
