MODEL 1
REMARK VINA RESULT:      -7.9      0.000      0.000
REMARK  Name = 
REMARK  0 active torsions:
REMARK  status: ('A' for Active; 'I' for Inactive)
REMARK                            x       y       z     vdW  Elec       q    Type
REMARK                         _______ _______ _______ _____ _____    ______ ____
ROOT
ATOM      1  O   UNL     1       4.168   1.239  19.094  0.00  0.00    +0.000 OA
ATOM      2  C   UNL     1       3.429   2.146  18.755  0.00  0.00    +0.000 C 
ATOM      3  C   UNL     1       3.553   3.588  19.155  0.00  0.00    +0.000 C 
ATOM      4  C   UNL     1       2.191   4.220  18.775  0.00  0.00    +0.000 C 
ATOM      5  C   UNL     1       2.367   5.544  17.997  0.00  0.00    +0.000 C 
ATOM      6  C   UNL     1       2.938   6.660  18.867  0.00  0.00    +0.000 C 
ATOM      7  N   UNL     1       2.148   6.789  20.079  0.00  0.00    +0.000 N 
ATOM      8  C   UNL     1       1.658   8.023  20.438  0.00  0.00    +0.000 A 
ATOM      9  C   UNL     1       1.460   8.383  21.774  0.00  0.00    +0.000 A 
ATOM     10  N   UNL     1       0.951   9.566  22.179  0.00  0.00    +0.000 NA
ATOM     11  C   UNL     1       0.614  10.420  21.202  0.00  0.00    +0.000 A 
ATOM     12  C   UNL     1       0.066  11.646  21.538  0.00  0.00    +0.000 A 
ATOM     13  C   UNL     1      -0.336  12.552  20.551  0.00  0.00    +0.000 A 
ATOM     14  C   UNL     1      -0.178  12.210  19.216  0.00  0.00    +0.000 A 
ATOM     15 CL   UNL     1      -0.693  13.304  17.992  0.00  0.00    +0.000 Cl
ATOM     16  C   UNL     1       0.388  10.990  18.860  0.00  0.00    +0.000 A 
ATOM     17  C   UNL     1       0.797  10.085  19.839  0.00  0.00    +0.000 A 
ATOM     18  N   UNL     1       1.334   8.908  19.470  0.00  0.00    +0.000 NA
ATOM     19  C   UNL     1       1.922   5.614  20.904  0.00  0.00    +0.000 C 
ATOM     20  C   UNL     1       1.340   4.495  20.037  0.00  0.00    +0.000 C 
ATOM     21  C   UNL     1       1.514   3.171  17.876  0.00  0.00    +0.000 C 
ATOM     22  N   UNL     1       2.362   2.020  17.907  0.00  0.00    +0.000 N 
ATOM     23  H   UNL     1       2.124   1.112  17.526  0.00  0.00    +0.000 HD
ENDROOT
TORSDOF 0
ENDMDL
MODEL 2
REMARK VINA RESULT:      -7.8      5.817      8.176
REMARK  Name = 
REMARK  0 active torsions:
REMARK  status: ('A' for Active; 'I' for Inactive)
REMARK                            x       y       z     vdW  Elec       q    Type
REMARK                         _______ _______ _______ _____ _____    ______ ____
ROOT
ATOM      1  O   UNL     1       1.317   2.877  22.447  0.00  0.00    +0.000 OA
ATOM      2  C   UNL     1       1.422   2.871  21.234  0.00  0.00    +0.000 C 
ATOM      3  C   UNL     1       2.704   2.896  20.454  0.00  0.00    +0.000 C 
ATOM      4  C   UNL     1       2.278   3.250  19.007  0.00  0.00    +0.000 C 
ATOM      5  C   UNL     1       2.927   2.308  17.968  0.00  0.00    +0.000 C 
ATOM      6  C   UNL     1       4.434   2.515  17.854  0.00  0.00    +0.000 C 
ATOM      7  N   UNL     1       4.719   3.922  17.632  0.00  0.00    +0.000 N 
ATOM      8  C   UNL     1       5.524   4.291  16.580  0.00  0.00    +0.000 A 
ATOM      9  C   UNL     1       6.333   5.430  16.627  0.00  0.00    +0.000 A 
ATOM     10  N   UNL     1       7.114   5.855  15.611  0.00  0.00    +0.000 NA
ATOM     11  C   UNL     1       7.072   5.114  14.495  0.00  0.00    +0.000 A 
ATOM     12  C   UNL     1       7.830   5.498  13.403  0.00  0.00    +0.000 A 
ATOM     13  C   UNL     1       7.787   4.776  12.205  0.00  0.00    +0.000 A 
ATOM     14  C   UNL     1       6.970   3.659  12.119  0.00  0.00    +0.000 A 
ATOM     15 CL   UNL     1       6.888   2.779  10.642  0.00  0.00    +0.000 Cl
ATOM     16  C   UNL     1       6.216   3.247  13.213  0.00  0.00    +0.000 A 
ATOM     17  C   UNL     1       6.259   3.958  14.411  0.00  0.00    +0.000 A 
ATOM     18  N   UNL     1       5.514   3.545  15.453  0.00  0.00    +0.000 NA
ATOM     19  C   UNL     1       4.174   4.907  18.552  0.00  0.00    +0.000 C 
ATOM     20  C   UNL     1       2.661   4.709  18.662  0.00  0.00    +0.000 C 
ATOM     21  C   UNL     1       0.750   3.068  18.998  0.00  0.00    +0.000 C 
ATOM     22  N   UNL     1       0.377   2.802  20.351  0.00  0.00    +0.000 N 
ATOM     23  H   UNL     1      -0.574   2.772  20.697  0.00  0.00    +0.000 HD
ENDROOT
TORSDOF 0
ENDMDL
MODEL 3
REMARK VINA RESULT:      -7.6      3.197      4.022
REMARK  Name = 
REMARK  0 active torsions:
REMARK  status: ('A' for Active; 'I' for Inactive)
REMARK                            x       y       z     vdW  Elec       q    Type
REMARK                         _______ _______ _______ _____ _____    ______ ____
ROOT
ATOM      1  O   UNL     1       6.760   3.613  14.512  0.00  0.00    +0.000 OA
ATOM      2  C   UNL     1       6.511   4.127  15.588  0.00  0.00    +0.000 C 
ATOM      3  C   UNL     1       5.192   4.704  16.012  0.00  0.00    +0.000 C 
ATOM      4  C   UNL     1       5.514   5.539  17.276  0.00  0.00    +0.000 C 
ATOM      5  C   UNL     1       4.529   5.244  18.429  0.00  0.00    +0.000 C 
ATOM      6  C   UNL     1       3.120   5.750  18.136  0.00  0.00    +0.000 C 
ATOM      7  N   UNL     1       3.173   7.150  17.749  0.00  0.00    +0.000 N 
ATOM      8  C   UNL     1       2.365   8.059  18.391  0.00  0.00    +0.000 A 
ATOM      9  C   UNL     1       1.880   9.203  17.752  0.00  0.00    +0.000 A 
ATOM     10  N   UNL     1       1.114  10.144  18.344  0.00  0.00    +0.000 NA
ATOM     11  C   UNL     1       0.833   9.934  19.638  0.00  0.00    +0.000 A 
ATOM     12  C   UNL     1       0.069  10.866  20.321  0.00  0.00    +0.000 A 
ATOM     13  C   UNL     1      -0.215  10.707  21.681  0.00  0.00    +0.000 A 
ATOM     14  C   UNL     1       0.277   9.597  22.350  0.00  0.00    +0.000 A 
ATOM     15 CL   UNL     1      -0.043   9.405  24.030  0.00  0.00    +0.000 Cl
ATOM     16  C   UNL     1       1.031   8.641  21.676  0.00  0.00    +0.000 A 
ATOM     17  C   UNL     1       1.313   8.789  20.318  0.00  0.00    +0.000 A 
ATOM     18  N   UNL     1       2.051   7.856  19.689  0.00  0.00    +0.000 NA
ATOM     19  C   UNL     1       4.055   7.550  16.666  0.00  0.00    +0.000 C 
ATOM     20  C   UNL     1       5.472   7.053  16.961  0.00  0.00    +0.000 C 
ATOM     21  C   UNL     1       6.935   5.103  17.675  0.00  0.00    +0.000 C 
ATOM     22  N   UNL     1       7.390   4.239  16.632  0.00  0.00    +0.000 N 
ATOM     23  H   UNL     1       8.338   3.897  16.532  0.00  0.00    +0.000 HD
ENDROOT
TORSDOF 0
ENDMDL
MODEL 4
REMARK VINA RESULT:      -7.5      4.282      7.963
REMARK  Name = 
REMARK  0 active torsions:
REMARK  status: ('A' for Active; 'I' for Inactive)
REMARK                            x       y       z     vdW  Elec       q    Type
REMARK                         _______ _______ _______ _____ _____    ______ ____
ROOT
ATOM      1  O   UNL     1      -0.344  14.377  18.548  0.00  0.00    +0.000 OA
ATOM      2  C   UNL     1      -0.573  13.210  18.808  0.00  0.00    +0.000 C 
ATOM      3  C   UNL     1       0.441  12.170  19.190  0.00  0.00    +0.000 C 
ATOM      4  C   UNL     1      -0.304  10.821  19.043  0.00  0.00    +0.000 C 
ATOM      5  C   UNL     1      -0.102   9.913  20.278  0.00  0.00    +0.000 C 
ATOM      6  C   UNL     1       1.331   9.406  20.402  0.00  0.00    +0.000 C 
ATOM      7  N   UNL     1       1.745   8.798  19.149  0.00  0.00    +0.000 N 
ATOM      8  C   UNL     1       2.280   7.531  19.157  0.00  0.00    +0.000 A 
ATOM      9  C   UNL     1       3.226   7.118  18.216  0.00  0.00    +0.000 A 
ATOM     10  N   UNL     1       3.757   5.878  18.158  0.00  0.00    +0.000 NA
ATOM     11  C   UNL     1       3.309   5.010  19.077  0.00  0.00    +0.000 A 
ATOM     12  C   UNL     1       3.790   3.713  19.069  0.00  0.00    +0.000 A 
ATOM     13  C   UNL     1       3.322   2.764  19.984  0.00  0.00    +0.000 A 
ATOM     14  C   UNL     1       2.361   3.137  20.912  0.00  0.00    +0.000 A 
ATOM     15 CL   UNL     1       1.757   1.971  22.025  0.00  0.00    +0.000 Cl
ATOM     16  C   UNL     1       1.879   4.442  20.947  0.00  0.00    +0.000 A 
ATOM     17  C   UNL     1       2.346   5.394  20.042  0.00  0.00    +0.000 A 
ATOM     18  N   UNL     1       1.859   6.647  20.089  0.00  0.00    +0.000 NA
ATOM     19  C   UNL     1       1.616   9.559  17.917  0.00  0.00    +0.000 C 
ATOM     20  C   UNL     1       0.177  10.060  17.784  0.00  0.00    +0.000 C 
ATOM     21  C   UNL     1      -1.787  11.209  18.915  0.00  0.00    +0.000 C 
ATOM     22  N   UNL     1      -1.815  12.636  18.836  0.00  0.00    +0.000 N 
ATOM     23  H   UNL     1      -2.632  13.190  18.609  0.00  0.00    +0.000 HD
ENDROOT
TORSDOF 0
ENDMDL
MODEL 5
REMARK VINA RESULT:      -6.9      1.607      1.790
REMARK  Name = 
REMARK  0 active torsions:
REMARK  status: ('A' for Active; 'I' for Inactive)
REMARK                            x       y       z     vdW  Elec       q    Type
REMARK                         _______ _______ _______ _____ _____    ______ ____
ROOT
ATOM      1  O   UNL     1       4.984   3.343  17.857  0.00  0.00    +0.000 OA
ATOM      2  C   UNL     1       3.953   3.991  17.863  0.00  0.00    +0.000 C 
ATOM      3  C   UNL     1       3.763   5.351  18.470  0.00  0.00    +0.000 C 
ATOM      4  C   UNL     1       2.228   5.543  18.534  0.00  0.00    +0.000 C 
ATOM      5  C   UNL     1       1.796   6.920  17.981  0.00  0.00    +0.000 C 
ATOM      6  C   UNL     1       2.239   8.073  18.875  0.00  0.00    +0.000 C 
ATOM      7  N   UNL     1       1.810   7.826  20.241  0.00  0.00    +0.000 N 
ATOM      8  C   UNL     1       1.106   8.797  20.914  0.00  0.00    +0.000 A 
ATOM      9  C   UNL     1       1.189   8.946  22.301  0.00  0.00    +0.000 A 
ATOM     10  N   UNL     1       0.494   9.859  23.014  0.00  0.00    +0.000 NA
ATOM     11  C   UNL     1      -0.329  10.646  22.307  0.00  0.00    +0.000 A 
ATOM     12  C   UNL     1      -1.091  11.592  22.971  0.00  0.00    +0.000 A 
ATOM     13  C   UNL     1      -1.991  12.408  22.278  0.00  0.00    +0.000 A 
ATOM     14  C   UNL     1      -2.116  12.262  20.904  0.00  0.00    +0.000 A 
ATOM     15 CL   UNL     1      -3.240  13.242  20.045  0.00  0.00    +0.000 Cl
ATOM     16  C   UNL     1      -1.345  11.329  20.219  0.00  0.00    +0.000 A 
ATOM     17  C   UNL     1      -0.441  10.517  20.902  0.00  0.00    +0.000 A 
ATOM     18  N   UNL     1       0.289   9.616  20.218  0.00  0.00    +0.000 NA
ATOM     19  C   UNL     1       2.168   6.569  20.877  0.00  0.00    +0.000 C 
ATOM     20  C   UNL     1       1.716   5.409  19.988  0.00  0.00    +0.000 C 
ATOM     21  C   UNL     1       1.660   4.420  17.648  0.00  0.00    +0.000 C 
ATOM     22  N   UNL     1       2.776   3.607  17.279  0.00  0.00    +0.000 N 
ATOM     23  H   UNL     1       2.714   2.711  16.811  0.00  0.00    +0.000 HD
ENDROOT
TORSDOF 0
ENDMDL
MODEL 6
REMARK VINA RESULT:      -6.8      2.036      2.410
REMARK  Name = 
REMARK  0 active torsions:
REMARK  status: ('A' for Active; 'I' for Inactive)
REMARK                            x       y       z     vdW  Elec       q    Type
REMARK                         _______ _______ _______ _____ _____    ______ ____
ROOT
ATOM      1  O   UNL     1       5.980   4.069  19.334  0.00  0.00    +0.000 OA
ATOM      2  C   UNL     1       4.849   4.396  19.024  0.00  0.00    +0.000 C 
ATOM      3  C   UNL     1       4.321   5.799  18.940  0.00  0.00    +0.000 C 
ATOM      4  C   UNL     1       2.782   5.639  18.879  0.00  0.00    +0.000 C 
ATOM      5  C   UNL     1       2.158   6.491  17.752  0.00  0.00    +0.000 C 
ATOM      6  C   UNL     1       2.252   7.988  18.031  0.00  0.00    +0.000 C 
ATOM      7  N   UNL     1       1.717   8.274  19.351  0.00  0.00    +0.000 N 
ATOM      8  C   UNL     1       0.758   9.250  19.495  0.00  0.00    +0.000 A 
ATOM      9  C   UNL     1       0.639  10.008  20.663  0.00  0.00    +0.000 A 
ATOM     10  N   UNL     1      -0.303  10.952  20.868  0.00  0.00    +0.000 NA
ATOM     11  C   UNL     1      -1.173  11.135  19.864  0.00  0.00    +0.000 A 
ATOM     12  C   UNL     1      -2.181  12.071  20.009  0.00  0.00    +0.000 A 
ATOM     13  C   UNL     1      -3.133  12.268  19.003  0.00  0.00    +0.000 A 
ATOM     14  C   UNL     1      -3.058  11.509  17.844  0.00  0.00    +0.000 A 
ATOM     15 CL   UNL     1      -4.239  11.722  16.611  0.00  0.00    +0.000 Cl
ATOM     16  C   UNL     1      -2.040  10.576  17.674  0.00  0.00    +0.000 A 
ATOM     17  C   UNL     1      -1.084  10.380  18.670  0.00  0.00    +0.000 A 
ATOM     18  N   UNL     1      -0.113   9.466  18.485  0.00  0.00    +0.000 NA
ATOM     19  C   UNL     1       2.235   7.545  20.497  0.00  0.00    +0.000 C 
ATOM     20  C   UNL     1       2.133   6.042  20.224  0.00  0.00    +0.000 C 
ATOM     21  C   UNL     1       2.560   4.144  18.591  0.00  0.00    +0.000 C 
ATOM     22  N   UNL     1       3.851   3.534  18.655  0.00  0.00    +0.000 N 
ATOM     23  H   UNL     1       4.024   2.536  18.645  0.00  0.00    +0.000 HD
ENDROOT
TORSDOF 0
ENDMDL
MODEL 7
REMARK VINA RESULT:      -6.7      4.643      8.578
REMARK  Name = 
REMARK  0 active torsions:
REMARK  status: ('A' for Active; 'I' for Inactive)
REMARK                            x       y       z     vdW  Elec       q    Type
REMARK                         _______ _______ _______ _____ _____    ______ ____
ROOT
ATOM      1  O   UNL     1      -2.667  16.137  20.778  0.00  0.00    +0.000 OA
ATOM      2  C   UNL     1      -2.602  14.925  20.881  0.00  0.00    +0.000 C 
ATOM      3  C   UNL     1      -1.366  14.086  20.730  0.00  0.00    +0.000 C 
ATOM      4  C   UNL     1      -1.889  12.636  20.583  0.00  0.00    +0.000 C 
ATOM      5  C   UNL     1      -1.133  11.654  21.506  0.00  0.00    +0.000 C 
ATOM      6  C   UNL     1       0.318  11.451  21.079  0.00  0.00    +0.000 C 
ATOM      7  N   UNL     1       0.368  11.095  19.672  0.00  0.00    +0.000 N 
ATOM      8  C   UNL     1       1.069   9.978  19.282  0.00  0.00    +0.000 A 
ATOM      9  C   UNL     1       1.688   9.888  18.032  0.00  0.00    +0.000 A 
ATOM     10  N   UNL     1       2.359   8.803  17.588  0.00  0.00    +0.000 NA
ATOM     11  C   UNL     1       2.398   7.759  18.427  0.00  0.00    +0.000 A 
ATOM     12  C   UNL     1       3.050   6.603  18.034  0.00  0.00    +0.000 A 
ATOM     13  C   UNL     1       3.083   5.476  18.862  0.00  0.00    +0.000 A 
ATOM     14  C   UNL     1       2.452   5.526  20.096  0.00  0.00    +0.000 A 
ATOM     15 CL   UNL     1       2.462   4.137  21.112  0.00  0.00    +0.000 Cl
ATOM     16  C   UNL     1       1.809   6.686  20.516  0.00  0.00    +0.000 A 
ATOM     17  C   UNL     1       1.777   7.815  19.698  0.00  0.00    +0.000 A 
ATOM     18  N   UNL     1       1.142   8.923  20.123  0.00  0.00    +0.000 NA
ATOM     19  C   UNL     1      -0.296  11.950  18.702  0.00  0.00    +0.000 C 
ATOM     20  C   UNL     1      -1.754  12.148  19.121  0.00  0.00    +0.000 C 
ATOM     21  C   UNL     1      -3.368  12.715  21.000  0.00  0.00    +0.000 C 
ATOM     22  N   UNL     1      -3.650  14.102  21.194  0.00  0.00    +0.000 N 
ATOM     23  H   UNL     1      -4.573  14.493  21.339  0.00  0.00    +0.000 HD
ENDROOT
TORSDOF 0
ENDMDL
MODEL 8
REMARK VINA RESULT:      -6.7      4.167      7.824
REMARK  Name = 
REMARK  0 active torsions:
REMARK  status: ('A' for Active; 'I' for Inactive)
REMARK                            x       y       z     vdW  Elec       q    Type
REMARK                         _______ _______ _______ _____ _____    ______ ____
ROOT
ATOM      1  O   UNL     1      -2.344  12.983  20.934  0.00  0.00    +0.000 OA
ATOM      2  C   UNL     1      -1.243  12.633  20.551  0.00  0.00    +0.000 C 
ATOM      3  C   UNL     1      -0.885  11.289  19.984  0.00  0.00    +0.000 C 
ATOM      4  C   UNL     1       0.662  11.247  20.017  0.00  0.00    +0.000 C 
ATOM      5  C   UNL     1       1.254  10.766  18.672  0.00  0.00    +0.000 C 
ATOM      6  C   UNL     1       0.959   9.295  18.397  0.00  0.00    +0.000 C 
ATOM      7  N   UNL     1       1.364   8.493  19.539  0.00  0.00    +0.000 N 
ATOM      8  C   UNL     1       2.184   7.407  19.346  0.00  0.00    +0.000 A 
ATOM      9  C   UNL     1       2.130   6.279  20.169  0.00  0.00    +0.000 A 
ATOM     10  N   UNL     1       2.934   5.201  20.044  0.00  0.00    +0.000 NA
ATOM     11  C   UNL     1       3.841   5.264  19.059  0.00  0.00    +0.000 A 
ATOM     12  C   UNL     1       4.716   4.206  18.881  0.00  0.00    +0.000 A 
ATOM     13  C   UNL     1       5.704   4.246  17.891  0.00  0.00    +0.000 A 
ATOM     14  C   UNL     1       5.801   5.365  17.078  0.00  0.00    +0.000 A 
ATOM     15 CL   UNL     1       7.030   5.437  15.875  0.00  0.00    +0.000 Cl
ATOM     16  C   UNL     1       4.918   6.429  17.230  0.00  0.00    +0.000 A 
ATOM     17  C   UNL     1       3.928   6.394  18.211  0.00  0.00    +0.000 A 
ATOM     18  N   UNL     1       3.090   7.439  18.344  0.00  0.00    +0.000 NA
ATOM     19  C   UNL     1       0.861   8.839  20.859  0.00  0.00    +0.000 C 
ATOM     20  C   UNL     1       1.164  10.312  21.142  0.00  0.00    +0.000 C 
ATOM     21  C   UNL     1       1.084  12.702  20.285  0.00  0.00    +0.000 C 
ATOM     22  N   UNL     1      -0.124  13.423  20.535  0.00  0.00    +0.000 N 
ATOM     23  H   UNL     1      -0.174  14.374  20.879  0.00  0.00    +0.000 HD
ENDROOT
TORSDOF 0
ENDMDL
MODEL 9
REMARK VINA RESULT:      -6.6      4.304      8.063
REMARK  Name = 
REMARK  0 active torsions:
REMARK  status: ('A' for Active; 'I' for Inactive)
REMARK                            x       y       z     vdW  Elec       q    Type
REMARK                         _______ _______ _______ _____ _____    ______ ____
ROOT
ATOM      1  O   UNL     1      -0.720  14.439  20.257  0.00  0.00    +0.000 OA
ATOM      2  C   UNL     1      -0.893  13.255  20.032  0.00  0.00    +0.000 C 
ATOM      3  C   UNL     1       0.142  12.172  20.134  0.00  0.00    +0.000 C 
ATOM      4  C   UNL     1      -0.481  10.961  19.397  0.00  0.00    +0.000 C 
ATOM      5  C   UNL     1      -0.359   9.660  20.222  0.00  0.00    +0.000 C 
ATOM      6  C   UNL     1       1.083   9.177  20.342  0.00  0.00    +0.000 C 
ATOM      7  N   UNL     1       1.683   9.096  19.021  0.00  0.00    +0.000 N 
ATOM      8  C   UNL     1       2.304   7.932  18.631  0.00  0.00    +0.000 A 
ATOM      9  C   UNL     1       3.381   7.927  17.742  0.00  0.00    +0.000 A 
ATOM     10  N   UNL     1       4.003   6.813  17.301  0.00  0.00    +0.000 NA
ATOM     11  C   UNL     1       3.515   5.653  17.762  0.00  0.00    +0.000 A 
ATOM     12  C   UNL     1       4.087   4.466  17.338  0.00  0.00    +0.000 A 
ATOM     13  C   UNL     1       3.585   3.231  17.764  0.00  0.00    +0.000 A 
ATOM     14  C   UNL     1       2.498   3.204  18.624  0.00  0.00    +0.000 A 
ATOM     15 CL   UNL     1       1.854   1.691  19.132  0.00  0.00    +0.000 Cl
ATOM     16  C   UNL     1       1.922   4.388  19.075  0.00  0.00    +0.000 A 
ATOM     17  C   UNL     1       2.421   5.622  18.660  0.00  0.00    +0.000 A 
ATOM     18  N   UNL     1       1.842   6.753  19.103  0.00  0.00    +0.000 NA
ATOM     19  C   UNL     1       1.644  10.262  18.155  0.00  0.00    +0.000 C 
ATOM     20  C   UNL     1       0.198  10.743  18.024  0.00  0.00    +0.000 C 
ATOM     21  C   UNL     1      -1.963  11.335  19.223  0.00  0.00    +0.000 C 
ATOM     22  N   UNL     1      -2.085  12.684  19.676  0.00  0.00    +0.000 N 
ATOM     23  H   UNL     1      -2.908  13.264  19.562  0.00  0.00    +0.000 HD
ENDROOT
TORSDOF 0
ENDMDL
