MODEL 1
REMARK VINA RESULT:      -7.4      0.000      0.000
REMARK  Name = 
REMARK  7 active torsions:
REMARK  status: ('A' for Active; 'I' for Inactive)
REMARK    1  A    between atoms: N_4  and  O_5
REMARK    2  A    between atoms: N_4  and  C_6
REMARK    3  A    between atoms: C_6  and  C_7
REMARK    4  A    between atoms: C_10  and  O_11
REMARK    5  A    between atoms: O_11  and  C_12
REMARK    6  A    between atoms: C_12  and  C_13
REMARK    7  A    between atoms: C_16  and  C_17
REMARK                            x       y       z     vdW  Elec       q    Type
REMARK                         _______ _______ _______ _____ _____    ______ ____
ROOT
ATOM      1  C   UNL     1       2.343   5.231  18.833  0.00  0.00    +0.000 A 
ATOM      2  C   UNL     1       2.572   6.480  18.242  0.00  0.00    +0.000 A 
ATOM      3  C   UNL     1       2.321   7.650  18.957  0.00  0.00    +0.000 A 
ATOM      4  C   UNL     1       1.813   7.600  20.256  0.00  0.00    +0.000 A 
ATOM      5  C   UNL     1       1.538   6.366  20.838  0.00  0.00    +0.000 A 
ATOM      6  C   UNL     1       1.804   5.186  20.128  0.00  0.00    +0.000 A 
ENDROOT
BRANCH   1   7
ATOM      7  C   UNL     1       2.694   3.969  18.083  0.00  0.00    +0.000 C 
BRANCH   7  11
ATOM      8  N   UNL     1       4.923   1.621  19.727  0.00  0.00    +0.000 N 
ATOM      9  C   UNL     1       4.510   2.857  19.324  0.00  0.00    +0.000 C 
ATOM     10  O   UNL     1       5.280   3.811  19.337  0.00  0.00    +0.000 OA
ATOM     11  N   UNL     1       3.179   2.912  18.969  0.00  0.00    +0.000 N 
ATOM     12  H   UNL     1       5.923   1.541  19.858  0.00  0.00    +0.000 HD
ATOM     13  H   UNL     1       4.478   0.863  19.223  0.00  0.00    +0.000 HD
BRANCH  11  14
ATOM     14  O   UNL     1       2.580   1.649  18.704  0.00  0.00    +0.000 OA
ATOM     15  H   UNL     1       1.652   1.855  18.932  0.00  0.00    +0.000 HD
ENDBRANCH  11  14
ENDBRANCH   7  11
ENDBRANCH   1   7
BRANCH   4  16
ATOM     16  O   UNL     1       1.705   8.815  20.864  0.00  0.00    +0.000 OA
BRANCH  16  17
ATOM     17  C   UNL     1       0.494   9.119  21.562  0.00  0.00    +0.000 C 
BRANCH  17  18
ATOM     18  C   UNL     1      -0.335  10.072  20.745  0.00  0.00    +0.000 A 
ATOM     19  C   UNL     1      -0.719  11.340  21.138  0.00  0.00    +0.000 A 
ATOM     20  S   UNL     1      -1.684  12.071  19.941  0.00  0.00    +0.000 S 
ATOM     21  C   UNL     1      -1.519  10.665  18.950  0.00  0.00    +0.000 A 
ATOM     22  N   UNL     1      -0.807   9.694  19.488  0.00  0.00    +0.000 NA
BRANCH  21  23
ATOM     23  C   UNL     1      -2.212  10.594  17.647  0.00  0.00    +0.000 A 
ATOM     24  C   UNL     1      -3.386  11.323  17.384  0.00  0.00    +0.000 A 
ATOM     25  C   UNL     1      -4.070  11.184  16.173  0.00  0.00    +0.000 A 
ATOM     26  C   UNL     1      -3.577  10.314  15.199  0.00  0.00    +0.000 A 
ATOM     27 CL   UNL     1      -4.442  10.113  13.727  0.00  0.00    +0.000 Cl
ATOM     28  C   UNL     1      -2.398   9.613  15.421  0.00  0.00    +0.000 A 
ATOM     29  C   UNL     1      -1.716   9.755  16.637  0.00  0.00    +0.000 A 
ENDBRANCH  21  23
ENDBRANCH  17  18
ENDBRANCH  16  17
ENDBRANCH   4  16
TORSDOF 7
ENDMDL
MODEL 2
REMARK VINA RESULT:      -7.4      4.466      9.074
REMARK  Name = 
REMARK  7 active torsions:
REMARK  status: ('A' for Active; 'I' for Inactive)
REMARK    1  A    between atoms: N_4  and  O_5
REMARK    2  A    between atoms: N_4  and  C_6
REMARK    3  A    between atoms: C_6  and  C_7
REMARK    4  A    between atoms: C_10  and  O_11
REMARK    5  A    between atoms: O_11  and  C_12
REMARK    6  A    between atoms: C_12  and  C_13
REMARK    7  A    between atoms: C_16  and  C_17
REMARK                            x       y       z     vdW  Elec       q    Type
REMARK                         _______ _______ _______ _____ _____    ______ ____
ROOT
ATOM      1  C   UNL     1      -3.442  10.961  17.513  0.00  0.00    +0.000 A 
ATOM      2  C   UNL     1      -2.882  11.605  18.623  0.00  0.00    +0.000 A 
ATOM      3  C   UNL     1      -1.557  11.361  18.980  0.00  0.00    +0.000 A 
ATOM      4  C   UNL     1      -0.778  10.454  18.260  0.00  0.00    +0.000 A 
ATOM      5  C   UNL     1      -1.337   9.773  17.183  0.00  0.00    +0.000 A 
ATOM      6  C   UNL     1      -2.665  10.028  16.810  0.00  0.00    +0.000 A 
ENDROOT
BRANCH   1   7
ATOM      7  C   UNL     1      -4.851  11.293  17.084  0.00  0.00    +0.000 C 
BRANCH   7  11
ATOM      8  N   UNL     1      -7.576  12.161  19.322  0.00  0.00    +0.000 N 
ATOM      9  C   UNL     1      -6.684  11.314  18.731  0.00  0.00    +0.000 C 
ATOM     10  O   UNL     1      -6.841  10.099  18.786  0.00  0.00    +0.000 OA
ATOM     11  N   UNL     1      -5.614  11.953  18.142  0.00  0.00    +0.000 N 
ATOM     12  H   UNL     1      -8.427  11.712  19.636  0.00  0.00    +0.000 HD
ATOM     13  H   UNL     1      -7.691  13.035  18.824  0.00  0.00    +0.000 HD
BRANCH  11  14
ATOM     14  O   UNL     1      -5.809  13.342  17.901  0.00  0.00    +0.000 OA
ATOM     15  H   UNL     1      -4.877  13.638  17.884  0.00  0.00    +0.000 HD
ENDBRANCH  11  14
ENDBRANCH   7  11
ENDBRANCH   1   7
BRANCH   4  16
ATOM     16  O   UNL     1       0.522  10.385  18.665  0.00  0.00    +0.000 OA
BRANCH  16  17
ATOM     17  C   UNL     1       0.796   9.905  19.985  0.00  0.00    +0.000 C 
BRANCH  17  18
ATOM     18  C   UNL     1       1.380   8.520  19.908  0.00  0.00    +0.000 A 
ATOM     19  C   UNL     1       1.238   7.536  20.867  0.00  0.00    +0.000 A 
ATOM     20  S   UNL     1       2.088   6.132  20.415  0.00  0.00    +0.000 S 
ATOM     21  C   UNL     1       2.582   6.903  18.949  0.00  0.00    +0.000 A 
ATOM     22  N   UNL     1       2.160   8.146  18.813  0.00  0.00    +0.000 NA
BRANCH  21  23
ATOM     23  C   UNL     1       3.469   6.196  18.004  0.00  0.00    +0.000 A 
ATOM     24  C   UNL     1       4.397   6.878  17.196  0.00  0.00    +0.000 A 
ATOM     25  C   UNL     1       5.174   6.200  16.253  0.00  0.00    +0.000 A 
ATOM     26  C   UNL     1       5.037   4.818  16.114  0.00  0.00    +0.000 A 
ATOM     27 CL   UNL     1       5.964   3.991  14.924  0.00  0.00    +0.000 Cl
ATOM     28  C   UNL     1       4.156   4.117  16.927  0.00  0.00    +0.000 A 
ATOM     29  C   UNL     1       3.378   4.801  17.872  0.00  0.00    +0.000 A 
ENDBRANCH  21  23
ENDBRANCH  17  18
ENDBRANCH  16  17
ENDBRANCH   4  16
TORSDOF 7
ENDMDL
MODEL 3
REMARK VINA RESULT:      -7.4      1.909      2.439
REMARK  Name = 
REMARK  7 active torsions:
REMARK  status: ('A' for Active; 'I' for Inactive)
REMARK    1  A    between atoms: N_4  and  O_5
REMARK    2  A    between atoms: N_4  and  C_6
REMARK    3  A    between atoms: C_6  and  C_7
REMARK    4  A    between atoms: C_10  and  O_11
REMARK    5  A    between atoms: O_11  and  C_12
REMARK    6  A    between atoms: C_12  and  C_13
REMARK    7  A    between atoms: C_16  and  C_17
REMARK                            x       y       z     vdW  Elec       q    Type
REMARK                         _______ _______ _______ _____ _____    ______ ____
ROOT
ATOM      1  C   UNL     1       1.975   4.197  19.144  0.00  0.00    +0.000 A 
ATOM      2  C   UNL     1       1.636   4.923  20.292  0.00  0.00    +0.000 A 
ATOM      3  C   UNL     1       1.720   6.315  20.293  0.00  0.00    +0.000 A 
ATOM      4  C   UNL     1       2.169   7.004  19.165  0.00  0.00    +0.000 A 
ATOM      5  C   UNL     1       2.553   6.291  18.033  0.00  0.00    +0.000 A 
ATOM      6  C   UNL     1       2.454   4.892  18.023  0.00  0.00    +0.000 A 
ENDROOT
BRANCH   1   7
ATOM      7  C   UNL     1       1.803   2.697  19.125  0.00  0.00    +0.000 C 
BRANCH   7  11
ATOM      8  N   UNL     1       5.165   1.815  20.176  0.00  0.00    +0.000 N 
ATOM      9  C   UNL     1       3.844   2.098  20.370  0.00  0.00    +0.000 C 
ATOM     10  O   UNL     1       3.418   2.377  21.485  0.00  0.00    +0.000 OA
ATOM     11  N   UNL     1       3.078   1.989  19.229  0.00  0.00    +0.000 N 
ATOM     12  H   UNL     1       5.754   2.023  20.972  0.00  0.00    +0.000 HD
ATOM     13  H   UNL     1       5.513   2.115  19.274  0.00  0.00    +0.000 HD
BRANCH  11  14
ATOM     14  O   UNL     1       3.815   1.995  18.012  0.00  0.00    +0.000 OA
ATOM     15  H   UNL     1       4.618   1.519  18.303  0.00  0.00    +0.000 HD
ENDBRANCH  11  14
ENDBRANCH   7  11
ENDBRANCH   1   7
BRANCH   4  16
ATOM     16  O   UNL     1       2.112   8.361  19.277  0.00  0.00    +0.000 OA
BRANCH  16  17
ATOM     17  C   UNL     1       1.917   9.132  18.087  0.00  0.00    +0.000 C 
BRANCH  17  18
ATOM     18  C   UNL     1       0.974  10.270  18.370  0.00  0.00    +0.000 A 
ATOM     19  C   UNL     1       1.320  11.467  18.967  0.00  0.00    +0.000 A 
ATOM     20  S   UNL     1      -0.049  12.465  19.143  0.00  0.00    +0.000 S 
ATOM     21  C   UNL     1      -1.027  11.256  18.390  0.00  0.00    +0.000 A 
ATOM     22  N   UNL     1      -0.379  10.159  18.048  0.00  0.00    +0.000 NA
BRANCH  21  23
ATOM     23  C   UNL     1      -2.481  11.469  18.241  0.00  0.00    +0.000 A 
ATOM     24  C   UNL     1      -3.262  12.034  19.266  0.00  0.00    +0.000 A 
ATOM     25  C   UNL     1      -4.648  12.156  19.137  0.00  0.00    +0.000 A 
ATOM     26  C   UNL     1      -5.273  11.720  17.967  0.00  0.00    +0.000 A 
ATOM     27 CL   UNL     1      -6.983  11.834  17.828  0.00  0.00    +0.000 Cl
ATOM     28  C   UNL     1      -4.518  11.195  16.926  0.00  0.00    +0.000 A 
ATOM     29  C   UNL     1      -3.128  11.074  17.060  0.00  0.00    +0.000 A 
ENDBRANCH  21  23
ENDBRANCH  17  18
ENDBRANCH  16  17
ENDBRANCH   4  16
TORSDOF 7
ENDMDL
MODEL 4
REMARK VINA RESULT:      -7.3      3.007      3.611
REMARK  Name = 
REMARK  7 active torsions:
REMARK  status: ('A' for Active; 'I' for Inactive)
REMARK    1  A    between atoms: N_4  and  O_5
REMARK    2  A    between atoms: N_4  and  C_6
REMARK    3  A    between atoms: C_6  and  C_7
REMARK    4  A    between atoms: C_10  and  O_11
REMARK    5  A    between atoms: O_11  and  C_12
REMARK    6  A    between atoms: C_12  and  C_13
REMARK    7  A    between atoms: C_16  and  C_17
REMARK                            x       y       z     vdW  Elec       q    Type
REMARK                         _______ _______ _______ _____ _____    ______ ____
ROOT
ATOM      1  C   UNL     1       4.457   5.093  17.181  0.00  0.00    +0.000 A 
ATOM      2  C   UNL     1       4.626   6.465  16.960  0.00  0.00    +0.000 A 
ATOM      3  C   UNL     1       3.706   7.376  17.477  0.00  0.00    +0.000 A 
ATOM      4  C   UNL     1       2.592   6.938  18.196  0.00  0.00    +0.000 A 
ATOM      5  C   UNL     1       2.389   5.574  18.382  0.00  0.00    +0.000 A 
ATOM      6  C   UNL     1       3.321   4.656  17.877  0.00  0.00    +0.000 A 
ENDROOT
BRANCH   1   7
ATOM      7  C   UNL     1       5.501   4.119  16.687  0.00  0.00    +0.000 C 
BRANCH   7  11
ATOM      8  N   UNL     1       7.965   5.054  14.191  0.00  0.00    +0.000 N 
ATOM      9  C   UNL     1       6.702   4.853  14.665  0.00  0.00    +0.000 C 
ATOM     10  O   UNL     1       5.747   4.785  13.899  0.00  0.00    +0.000 OA
ATOM     11  N   UNL     1       6.626   4.791  16.040  0.00  0.00    +0.000 N 
ATOM     12  H   UNL     1       8.049   4.966  13.186  0.00  0.00    +0.000 HD
ATOM     13  H   UNL     1       8.680   4.592  14.739  0.00  0.00    +0.000 HD
BRANCH  11  14
ATOM     14  O   UNL     1       7.866   4.551  16.695  0.00  0.00    +0.000 OA
ATOM     15  H   UNL     1       7.543   4.371  17.600  0.00  0.00    +0.000 HD
ENDBRANCH  11  14
ENDBRANCH   7  11
ENDBRANCH   1   7
BRANCH   4  16
ATOM     16  O   UNL     1       1.832   7.941  18.719  0.00  0.00    +0.000 OA
BRANCH  16  17
ATOM     17  C   UNL     1       1.842   9.213  18.062  0.00  0.00    +0.000 C 
BRANCH  17  18
ATOM     18  C   UNL     1       0.773  10.093  18.649  0.00  0.00    +0.000 A 
ATOM     19  C   UNL     1       0.901  10.857  19.793  0.00  0.00    +0.000 A 
ATOM     20  S   UNL     1      -0.554  11.672  20.135  0.00  0.00    +0.000 S 
ATOM     21  C   UNL     1      -1.272  10.983  18.722  0.00  0.00    +0.000 A 
ATOM     22  N   UNL     1      -0.483  10.170  18.046  0.00  0.00    +0.000 NA
BRANCH  21  23
ATOM     23  C   UNL     1      -2.686  11.264  18.400  0.00  0.00    +0.000 A 
ATOM     24  C   UNL     1      -3.275  10.844  17.193  0.00  0.00    +0.000 A 
ATOM     25  C   UNL     1      -4.592  11.186  16.872  0.00  0.00    +0.000 A 
ATOM     26  C   UNL     1      -5.344  11.948  17.767  0.00  0.00    +0.000 A 
ATOM     27 CL   UNL     1      -6.949  12.402  17.352  0.00  0.00    +0.000 Cl
ATOM     28  C   UNL     1      -4.796  12.341  18.983  0.00  0.00    +0.000 A 
ATOM     29  C   UNL     1      -3.475  11.996  19.300  0.00  0.00    +0.000 A 
ENDBRANCH  21  23
ENDBRANCH  17  18
ENDBRANCH  16  17
ENDBRANCH   4  16
TORSDOF 7
ENDMDL
MODEL 5
REMARK VINA RESULT:      -7.3      3.328      4.096
REMARK  Name = 
REMARK  7 active torsions:
REMARK  status: ('A' for Active; 'I' for Inactive)
REMARK    1  A    between atoms: N_4  and  O_5
REMARK    2  A    between atoms: N_4  and  C_6
REMARK    3  A    between atoms: C_6  and  C_7
REMARK    4  A    between atoms: C_10  and  O_11
REMARK    5  A    between atoms: O_11  and  C_12
REMARK    6  A    between atoms: C_12  and  C_13
REMARK    7  A    between atoms: C_16  and  C_17
REMARK                            x       y       z     vdW  Elec       q    Type
REMARK                         _______ _______ _______ _____ _____    ______ ____
ROOT
ATOM      1  C   UNL     1       1.740   4.338  19.624  0.00  0.00    +0.000 A 
ATOM      2  C   UNL     1       1.943   4.670  18.279  0.00  0.00    +0.000 A 
ATOM      3  C   UNL     1       2.273   5.976  17.920  0.00  0.00    +0.000 A 
ATOM      4  C   UNL     1       2.379   6.977  18.887  0.00  0.00    +0.000 A 
ATOM      5  C   UNL     1       2.134   6.670  20.222  0.00  0.00    +0.000 A 
ATOM      6  C   UNL     1       1.818   5.355  20.588  0.00  0.00    +0.000 A 
ENDROOT
BRANCH   1   7
ATOM      7  C   UNL     1       1.464   2.905  20.012  0.00  0.00    +0.000 C 
BRANCH   7  11
ATOM      8  N   UNL     1       4.162   1.390  18.113  0.00  0.00    +0.000 N 
ATOM      9  C   UNL     1       3.593   1.948  19.220  0.00  0.00    +0.000 C 
ATOM     10  O   UNL     1       4.286   2.355  20.145  0.00  0.00    +0.000 OA
ATOM     11  N   UNL     1       2.214   1.953  19.194  0.00  0.00    +0.000 N 
ATOM     12  H   UNL     1       5.167   1.504  18.062  0.00  0.00    +0.000 HD
ATOM     13  H   UNL     1       3.650   1.573  17.259  0.00  0.00    +0.000 HD
BRANCH  11  14
ATOM     14  O   UNL     1       1.641   1.755  17.908  0.00  0.00    +0.000 OA
ATOM     15  H   UNL     1       2.042   2.508  17.430  0.00  0.00    +0.000 HD
ENDBRANCH  11  14
ENDBRANCH   7  11
ENDBRANCH   1   7
BRANCH   4  16
ATOM     16  O   UNL     1       2.797   8.181  18.403  0.00  0.00    +0.000 OA
BRANCH  16  17
ATOM     17  C   UNL     1       1.877   8.959  17.631  0.00  0.00    +0.000 C 
BRANCH  17  18
ATOM     18  C   UNL     1       1.456  10.171  18.416  0.00  0.00    +0.000 A 
ATOM     19  C   UNL     1       2.067  11.409  18.369  0.00  0.00    +0.000 A 
ATOM     20  S   UNL     1       1.308  12.492  19.440  0.00  0.00    +0.000 S 
ATOM     21  C   UNL     1       0.186  11.259  19.893  0.00  0.00    +0.000 A 
ATOM     22  N   UNL     1       0.379  10.096  19.300  0.00  0.00    +0.000 NA
BRANCH  21  23
ATOM     23  C   UNL     1      -0.835  11.531  20.925  0.00  0.00    +0.000 A 
ATOM     24  C   UNL     1      -1.951  12.350  20.674  0.00  0.00    +0.000 A 
ATOM     25  C   UNL     1      -2.866  12.659  21.685  0.00  0.00    +0.000 A 
ATOM     26  C   UNL     1      -2.678  12.138  22.967  0.00  0.00    +0.000 A 
ATOM     27 CL   UNL     1      -3.781  12.552  24.219  0.00  0.00    +0.000 Cl
ATOM     28  C   UNL     1      -1.605  11.295  23.228  0.00  0.00    +0.000 A 
ATOM     29  C   UNL     1      -0.690  10.989  22.211  0.00  0.00    +0.000 A 
ENDBRANCH  21  23
ENDBRANCH  17  18
ENDBRANCH  16  17
ENDBRANCH   4  16
TORSDOF 7
ENDMDL
MODEL 6
REMARK VINA RESULT:      -7.3      4.617      9.294
REMARK  Name = 
REMARK  7 active torsions:
REMARK  status: ('A' for Active; 'I' for Inactive)
REMARK    1  A    between atoms: N_4  and  O_5
REMARK    2  A    between atoms: N_4  and  C_6
REMARK    3  A    between atoms: C_6  and  C_7
REMARK    4  A    between atoms: C_10  and  O_11
REMARK    5  A    between atoms: O_11  and  C_12
REMARK    6  A    between atoms: C_12  and  C_13
REMARK    7  A    between atoms: C_16  and  C_17
REMARK                            x       y       z     vdW  Elec       q    Type
REMARK                         _______ _______ _______ _____ _____    ______ ____
ROOT
ATOM      1  C   UNL     1      -3.712  10.962  18.031  0.00  0.00    +0.000 A 
ATOM      2  C   UNL     1      -3.140  10.066  17.119  0.00  0.00    +0.000 A 
ATOM      3  C   UNL     1      -1.771   9.809  17.153  0.00  0.00    +0.000 A 
ATOM      4  C   UNL     1      -0.944  10.458  18.072  0.00  0.00    +0.000 A 
ATOM      5  C   UNL     1      -1.494  11.384  18.954  0.00  0.00    +0.000 A 
ATOM      6  C   UNL     1      -2.873  11.633  18.933  0.00  0.00    +0.000 A 
ENDROOT
BRANCH   1   7
ATOM      7  C   UNL     1      -5.207  11.172  18.041  0.00  0.00    +0.000 C 
BRANCH   7  11
ATOM      8  N   UNL     1      -7.109  13.212  20.365  0.00  0.00    +0.000 N 
ATOM      9  C   UNL     1      -6.445  12.090  19.964  0.00  0.00    +0.000 C 
ATOM     10  O   UNL     1      -6.583  11.030  20.564  0.00  0.00    +0.000 OA
ATOM     11  N   UNL     1      -5.606  12.294  18.890  0.00  0.00    +0.000 N 
ATOM     12  H   UNL     1      -7.825  13.043  21.061  0.00  0.00    +0.000 HD
ATOM     13  H   UNL     1      -7.368  13.823  19.600  0.00  0.00    +0.000 HD
BRANCH  11  14
ATOM     14  O   UNL     1      -5.858  13.484  18.153  0.00  0.00    +0.000 OA
ATOM     15  H   UNL     1      -4.970  13.891  18.187  0.00  0.00    +0.000 HD
ENDBRANCH  11  14
ENDBRANCH   7  11
ENDBRANCH   1   7
BRANCH   4  16
ATOM     16  O   UNL     1       0.353  10.041  18.052  0.00  0.00    +0.000 OA
BRANCH  16  17
ATOM     17  C   UNL     1       1.020   9.838  19.302  0.00  0.00    +0.000 C 
BRANCH  17  18
ATOM     18  C   UNL     1       1.673   8.482  19.313  0.00  0.00    +0.000 A 
ATOM     19  C   UNL     1       1.631   7.581  20.359  0.00  0.00    +0.000 A 
ATOM     20  S   UNL     1       2.532   6.186  19.983  0.00  0.00    +0.000 S 
ATOM     21  C   UNL     1       2.911   6.849  18.432  0.00  0.00    +0.000 A 
ATOM     22  N   UNL     1       2.417   8.052  18.214  0.00  0.00    +0.000 NA
BRANCH  21  23
ATOM     23  C   UNL     1       3.789   6.105  17.505  0.00  0.00    +0.000 A 
ATOM     24  C   UNL     1       4.653   6.759  16.608  0.00  0.00    +0.000 A 
ATOM     25  C   UNL     1       5.418   6.041  15.685  0.00  0.00    +0.000 A 
ATOM     26  C   UNL     1       5.335   4.648  15.657  0.00  0.00    +0.000 A 
ATOM     27 CL   UNL     1       6.246   3.769  14.493  0.00  0.00    +0.000 Cl
ATOM     28  C   UNL     1       4.518   3.978  16.559  0.00  0.00    +0.000 A 
ATOM     29  C   UNL     1       3.751   4.703  17.482  0.00  0.00    +0.000 A 
ENDBRANCH  21  23
ENDBRANCH  17  18
ENDBRANCH  16  17
ENDBRANCH   4  16
TORSDOF 7
ENDMDL
MODEL 7
REMARK VINA RESULT:      -7.2      3.587      4.457
REMARK  Name = 
REMARK  7 active torsions:
REMARK  status: ('A' for Active; 'I' for Inactive)
REMARK    1  A    between atoms: N_4  and  O_5
REMARK    2  A    between atoms: N_4  and  C_6
REMARK    3  A    between atoms: C_6  and  C_7
REMARK    4  A    between atoms: C_10  and  O_11
REMARK    5  A    between atoms: O_11  and  C_12
REMARK    6  A    between atoms: C_12  and  C_13
REMARK    7  A    between atoms: C_16  and  C_17
REMARK                            x       y       z     vdW  Elec       q    Type
REMARK                         _______ _______ _______ _____ _____    ______ ____
ROOT
ATOM      1  C   UNL     1       3.453   5.982  18.154  0.00  0.00    +0.000 A 
ATOM      2  C   UNL     1       3.232   7.240  17.580  0.00  0.00    +0.000 A 
ATOM      3  C   UNL     1       2.501   8.206  18.269  0.00  0.00    +0.000 A 
ATOM      4  C   UNL     1       1.954   7.930  19.523  0.00  0.00    +0.000 A 
ATOM      5  C   UNL     1       2.127   6.668  20.084  0.00  0.00    +0.000 A 
ATOM      6  C   UNL     1       2.876   5.699  19.401  0.00  0.00    +0.000 A 
ENDROOT
BRANCH   1   7
ATOM      7  C   UNL     1       4.315   4.970  17.438  0.00  0.00    +0.000 C 
BRANCH   7  11
ATOM      8  N   UNL     1       7.835   4.355  18.080  0.00  0.00    +0.000 N 
ATOM      9  C   UNL     1       6.773   5.057  17.589  0.00  0.00    +0.000 C 
ATOM     10  O   UNL     1       6.936   5.944  16.759  0.00  0.00    +0.000 OA
ATOM     11  N   UNL     1       5.564   4.701  18.148  0.00  0.00    +0.000 N 
ATOM     12  H   UNL     1       8.702   4.513  17.581  0.00  0.00    +0.000 HD
ATOM     13  H   UNL     1       7.616   3.390  18.296  0.00  0.00    +0.000 HD
BRANCH  11  14
ATOM     14  O   UNL     1       5.562   3.445  18.816  0.00  0.00    +0.000 OA
ATOM     15  H   UNL     1       5.122   2.897  18.136  0.00  0.00    +0.000 HD
ENDBRANCH  11  14
ENDBRANCH   7  11
ENDBRANCH   1   7
BRANCH   4  16
ATOM     16  O   UNL     1       1.346   8.995  20.117  0.00  0.00    +0.000 OA
BRANCH  16  17
ATOM     17  C   UNL     1       0.940  10.091  19.291  0.00  0.00    +0.000 C 
BRANCH  17  18
ATOM     18  C   UNL     1       0.360  11.183  20.148  0.00  0.00    +0.000 A 
ATOM     19  C   UNL     1       1.052  12.279  20.626  0.00  0.00    +0.000 A 
ATOM     20  S   UNL     1       0.041  13.251  21.591  0.00  0.00    +0.000 S 
ATOM     21  C   UNL     1      -1.275  12.171  21.300  0.00  0.00    +0.000 A 
ATOM     22  N   UNL     1      -0.975  11.129  20.548  0.00  0.00    +0.000 NA
BRANCH  21  23
ATOM     23  C   UNL     1      -2.586  12.413  21.938  0.00  0.00    +0.000 A 
ATOM     24  C   UNL     1      -3.712  12.818  21.200  0.00  0.00    +0.000 A 
ATOM     25  C   UNL     1      -4.923  13.117  21.830  0.00  0.00    +0.000 A 
ATOM     26  C   UNL     1      -5.024  13.004  23.218  0.00  0.00    +0.000 A 
ATOM     27 CL   UNL     1      -6.502  13.412  23.996  0.00  0.00    +0.000 Cl
ATOM     28  C   UNL     1      -3.936  12.568  23.964  0.00  0.00    +0.000 A 
ATOM     29  C   UNL     1      -2.723  12.270  23.327  0.00  0.00    +0.000 A 
ENDBRANCH  21  23
ENDBRANCH  17  18
ENDBRANCH  16  17
ENDBRANCH   4  16
TORSDOF 7
ENDMDL
MODEL 8
REMARK VINA RESULT:      -7.2      4.262      8.620
REMARK  Name = 
REMARK  7 active torsions:
REMARK  status: ('A' for Active; 'I' for Inactive)
REMARK    1  A    between atoms: N_4  and  O_5
REMARK    2  A    between atoms: N_4  and  C_6
REMARK    3  A    between atoms: C_6  and  C_7
REMARK    4  A    between atoms: C_10  and  O_11
REMARK    5  A    between atoms: O_11  and  C_12
REMARK    6  A    between atoms: C_12  and  C_13
REMARK    7  A    between atoms: C_16  and  C_17
REMARK                            x       y       z     vdW  Elec       q    Type
REMARK                         _______ _______ _______ _____ _____    ______ ____
ROOT
ATOM      1  C   UNL     1      -0.850  11.327  18.952  0.00  0.00    +0.000 A 
ATOM      2  C   UNL     1       0.028  10.521  18.216  0.00  0.00    +0.000 A 
ATOM      3  C   UNL     1       0.869   9.621  18.870  0.00  0.00    +0.000 A 
ATOM      4  C   UNL     1       0.872   9.528  20.263  0.00  0.00    +0.000 A 
ATOM      5  C   UNL     1       0.037  10.356  21.008  0.00  0.00    +0.000 A 
ATOM      6  C   UNL     1      -0.821  11.251  20.353  0.00  0.00    +0.000 A 
ENDROOT
BRANCH   1   7
ATOM      7  C   UNL     1      -1.814  12.239  18.233  0.00  0.00    +0.000 C 
BRANCH   7  11
ATOM      8  N   UNL     1      -4.842  11.125  16.568  0.00  0.00    +0.000 N 
ATOM      9  C   UNL     1      -3.492  11.246  16.726  0.00  0.00    +0.000 C 
ATOM     10  O   UNL     1      -2.727  11.003  15.800  0.00  0.00    +0.000 OA
ATOM     11  N   UNL     1      -3.111  11.606  18.001  0.00  0.00    +0.000 N 
ATOM     12  H   UNL     1      -5.136  10.995  15.608  0.00  0.00    +0.000 HD
ATOM     13  H   UNL     1      -5.373  11.795  17.109  0.00  0.00    +0.000 HD
BRANCH  11  14
ATOM     14  O   UNL     1      -4.150  12.160  18.800  0.00  0.00    +0.000 OA
ATOM     15  H   UNL     1      -3.683  12.224  19.657  0.00  0.00    +0.000 HD
ENDBRANCH  11  14
ENDBRANCH   7  11
ENDBRANCH   1   7
BRANCH   4  16
ATOM     16  O   UNL     1       1.674   8.543  20.757  0.00  0.00    +0.000 OA
BRANCH  16  17
ATOM     17  C   UNL     1       1.076   7.290  21.101  0.00  0.00    +0.000 C 
BRANCH  17  18
ATOM     18  C   UNL     1       1.847   6.169  20.460  0.00  0.00    +0.000 A 
ATOM     19  C   UNL     1       1.848   4.853  20.881  0.00  0.00    +0.000 A 
ATOM     20  S   UNL     1       2.883   3.914  19.909  0.00  0.00    +0.000 S 
ATOM     21  C   UNL     1       3.258   5.309  18.960  0.00  0.00    +0.000 A 
ATOM     22  N   UNL     1       2.666   6.419  19.358  0.00  0.00    +0.000 NA
BRANCH  21  23
ATOM     23  C   UNL     1       4.231   5.211  17.853  0.00  0.00    +0.000 A 
ATOM     24  C   UNL     1       5.196   6.206  17.616  0.00  0.00    +0.000 A 
ATOM     25  C   UNL     1       6.058   6.134  16.518  0.00  0.00    +0.000 A 
ATOM     26  C   UNL     1       5.969   5.050  15.643  0.00  0.00    +0.000 A 
ATOM     27 CL   UNL     1       7.002   4.984  14.270  0.00  0.00    +0.000 Cl
ATOM     28  C   UNL     1       5.050   4.035  15.878  0.00  0.00    +0.000 A 
ATOM     29  C   UNL     1       4.188   4.112  16.981  0.00  0.00    +0.000 A 
ENDBRANCH  21  23
ENDBRANCH  17  18
ENDBRANCH  16  17
ENDBRANCH   4  16
TORSDOF 7
ENDMDL
MODEL 9
REMARK VINA RESULT:      -7.2      0.892      1.288
REMARK  Name = 
REMARK  7 active torsions:
REMARK  status: ('A' for Active; 'I' for Inactive)
REMARK    1  A    between atoms: N_4  and  O_5
REMARK    2  A    between atoms: N_4  and  C_6
REMARK    3  A    between atoms: C_6  and  C_7
REMARK    4  A    between atoms: C_10  and  O_11
REMARK    5  A    between atoms: O_11  and  C_12
REMARK    6  A    between atoms: C_12  and  C_13
REMARK    7  A    between atoms: C_16  and  C_17
REMARK                            x       y       z     vdW  Elec       q    Type
REMARK                         _______ _______ _______ _____ _____    ______ ____
ROOT
ATOM      1  C   UNL     1       2.832   5.957  18.850  0.00  0.00    +0.000 A 
ATOM      2  C   UNL     1       2.292   5.544  20.075  0.00  0.00    +0.000 A 
ATOM      3  C   UNL     1       1.605   6.451  20.880  0.00  0.00    +0.000 A 
ATOM      4  C   UNL     1       1.468   7.786  20.496  0.00  0.00    +0.000 A 
ATOM      5  C   UNL     1       2.039   8.219  19.303  0.00  0.00    +0.000 A 
ATOM      6  C   UNL     1       2.717   7.306  18.483  0.00  0.00    +0.000 A 
ENDROOT
BRANCH   1   7
ATOM      7  C   UNL     1       3.503   4.950  17.947  0.00  0.00    +0.000 C 
BRANCH   7  11
ATOM      8  N   UNL     1       3.394   1.346  18.370  0.00  0.00    +0.000 N 
ATOM      9  C   UNL     1       3.795   2.614  18.675  0.00  0.00    +0.000 C 
ATOM     10  O   UNL     1       4.766   2.809  19.396  0.00  0.00    +0.000 OA
ATOM     11  N   UNL     1       2.987   3.596  18.142  0.00  0.00    +0.000 N 
ATOM     12  H   UNL     1       4.053   0.627  18.641  0.00  0.00    +0.000 HD
ATOM     13  H   UNL     1       2.998   1.260  17.442  0.00  0.00    +0.000 HD
BRANCH  11  14
ATOM     14  O   UNL     1       2.145   3.165  17.080  0.00  0.00    +0.000 OA
ATOM     15  H   UNL     1       2.809   2.737  16.506  0.00  0.00    +0.000 HD
ENDBRANCH  11  14
ENDBRANCH   7  11
ENDBRANCH   1   7
BRANCH   4  16
ATOM     16  O   UNL     1       0.694   8.533  21.334  0.00  0.00    +0.000 OA
BRANCH  16  17
ATOM     17  C   UNL     1       0.901   9.949  21.364  0.00  0.00    +0.000 C 
BRANCH  17  18
ATOM     18  C   UNL     1      -0.229  10.641  20.651  0.00  0.00    +0.000 A 
ATOM     19  C   UNL     1      -0.993  11.669  21.169  0.00  0.00    +0.000 A 
ATOM     20  S   UNL     1      -2.193  12.140  20.057  0.00  0.00    +0.000 S 
ATOM     21  C   UNL     1      -1.615  10.962  18.933  0.00  0.00    +0.000 A 
ATOM     22  N   UNL     1      -0.601  10.239  19.368  0.00  0.00    +0.000 NA
BRANCH  21  23
ATOM     23  C   UNL     1      -2.298  10.780  17.636  0.00  0.00    +0.000 A 
ATOM     24  C   UNL     1      -3.473  11.479  17.306  0.00  0.00    +0.000 A 
ATOM     25  C   UNL     1      -4.149  11.237  16.107  0.00  0.00    +0.000 A 
ATOM     26  C   UNL     1      -3.645  10.292  15.211  0.00  0.00    +0.000 A 
ATOM     27 CL   UNL     1      -4.500   9.965  13.755  0.00  0.00    +0.000 Cl
ATOM     28  C   UNL     1      -2.465   9.617  15.498  0.00  0.00    +0.000 A 
ATOM     29  C   UNL     1      -1.792   9.862  16.703  0.00  0.00    +0.000 A 
ENDBRANCH  21  23
ENDBRANCH  17  18
ENDBRANCH  16  17
ENDBRANCH   4  16
TORSDOF 7
ENDMDL
