MODEL 1
REMARK VINA RESULT:      -8.4      0.000      0.000
REMARK  Name = 
REMARK  5 active torsions:
REMARK  status: ('A' for Active; 'I' for Inactive)
REMARK    1  A    between atoms: C_2  and  C_5
REMARK    2  A    between atoms: C_7  and  N_8
REMARK    3  A    between atoms: N_9  and  N_10
REMARK    4  A    between atoms: N_10  and  C_11
REMARK    5  A    between atoms: C_16  and  C_17
REMARK                            x       y       z     vdW  Elec       q    Type
REMARK                         _______ _______ _______ _____ _____    ______ ____
ROOT
ATOM      1  N   UNL     1       1.758   9.007  17.637  0.00  0.00    +0.000 NA
ATOM      2  N   UNL     1       2.099   8.117  18.440  0.00  0.00    +0.000 NA
ENDROOT
BRANCH   1   5
ATOM      3  C   UNL     1      -1.659  10.476  17.960  0.00  0.00    +0.000 A 
ATOM      4  C   UNL     1      -0.566   9.691  17.533  0.00  0.00    +0.000 A 
ATOM      5  C   UNL     1       0.690   9.776  18.150  0.00  0.00    +0.000 A 
ATOM      6  C   UNL     1       0.846  10.675  19.214  0.00  0.00    +0.000 A 
ATOM      7  C   UNL     1      -0.227  11.453  19.656  0.00  0.00    +0.000 A 
ATOM      8  C   UNL     1      -1.472  11.358  19.031  0.00  0.00    +0.000 A 
ATOM      9 CL   UNL     1      -2.737  12.371  19.623  0.00  0.00    +0.000 Cl
BRANCH   3  11
ATOM     10  F   UNL     1      -3.976   9.889  18.078  0.00  0.00    +0.000 F 
ATOM     11  C   UNL     1      -2.990  10.364  17.264  0.00  0.00    +0.000 C 
ATOM     12  F   UNL     1      -2.964   9.517  16.199  0.00  0.00    +0.000 F 
ATOM     13  F   UNL     1      -3.450  11.558  16.798  0.00  0.00    +0.000 F 
ENDBRANCH   3  11
ENDBRANCH   1   5
BRANCH   2  14
ATOM     14  N   UNL     1       3.154   7.481  17.899  0.00  0.00    +0.000 N 
ATOM     15  H   UNL     1       4.016   8.009  17.833  0.00  0.00    +0.000 HD
BRANCH  14  16
ATOM     16  C   UNL     1       3.254   6.086  18.020  0.00  0.00    +0.000 A 
ATOM     17  C   UNL     1       4.237   5.396  17.308  0.00  0.00    +0.000 A 
ATOM     18  C   UNL     1       4.287   3.998  17.329  0.00  0.00    +0.000 A 
ATOM     19  C   UNL     1       3.343   3.258  18.049  0.00  0.00    +0.000 A 
ATOM     20 CL   UNL     1       3.492   1.541  17.980  0.00  0.00    +0.000 Cl
ATOM     21  C   UNL     1       2.339   3.913  18.763  0.00  0.00    +0.000 A 
ATOM     22  C   UNL     1       2.313   5.328  18.733  0.00  0.00    +0.000 A 
BRANCH  21  23
ATOM     23  C   UNL     1       1.267   3.231  19.569  0.00  0.00    +0.000 C 
ATOM     24  F   UNL     1       1.683   2.368  20.531  0.00  0.00    +0.000 F 
ATOM     25  F   UNL     1       0.466   4.133  20.209  0.00  0.00    +0.000 F 
ATOM     26  F   UNL     1       0.423   2.506  18.776  0.00  0.00    +0.000 F 
ENDBRANCH  21  23
ENDBRANCH  14  16
ENDBRANCH   2  14
TORSDOF 5
ENDMDL
MODEL 2
REMARK VINA RESULT:      -8.4      0.307      7.997
REMARK  Name = 
REMARK  5 active torsions:
REMARK  status: ('A' for Active; 'I' for Inactive)
REMARK    1  A    between atoms: C_2  and  C_5
REMARK    2  A    between atoms: C_7  and  N_8
REMARK    3  A    between atoms: N_9  and  N_10
REMARK    4  A    between atoms: N_10  and  C_11
REMARK    5  A    between atoms: C_16  and  C_17
REMARK                            x       y       z     vdW  Elec       q    Type
REMARK                         _______ _______ _______ _____ _____    ______ ____
ROOT
ATOM      1  N   UNL     1       3.112   7.561  18.158  0.00  0.00    +0.000 NA
ATOM      2  N   UNL     1       1.969   7.988  17.900  0.00  0.00    +0.000 NA
ENDROOT
BRANCH   1   5
ATOM      3  C   UNL     1       2.266   3.978  18.775  0.00  0.00    +0.000 A 
ATOM      4  C   UNL     1       2.231   5.389  18.780  0.00  0.00    +0.000 A 
ATOM      5  C   UNL     1       3.164   6.153  18.064  0.00  0.00    +0.000 A 
ATOM      6  C   UNL     1       4.152   5.478  17.335  0.00  0.00    +0.000 A 
ATOM      7  C   UNL     1       4.196   4.083  17.310  0.00  0.00    +0.000 A 
ATOM      8  C   UNL     1       3.261   3.335  18.029  0.00  0.00    +0.000 A 
ATOM      9 CL   UNL     1       3.399   1.616  17.966  0.00  0.00    +0.000 Cl
BRANCH   3  11
ATOM     10  F   UNL     1       0.404   3.987  20.280  0.00  0.00    +0.000 F 
ATOM     11  C   UNL     1       1.253   3.193  19.566  0.00  0.00    +0.000 C 
ATOM     12  F   UNL     1       1.822   2.361  20.481  0.00  0.00    +0.000 F 
ATOM     13  F   UNL     1       0.451   2.417  18.785  0.00  0.00    +0.000 F 
ENDBRANCH   3  11
ENDBRANCH   1   5
BRANCH   2  14
ATOM     14  N   UNL     1       2.030   9.331  17.953  0.00  0.00    +0.000 N 
ATOM     15  H   UNL     1       2.722   9.777  17.362  0.00  0.00    +0.000 HD
BRANCH  14  16
ATOM     16  C   UNL     1       0.871  10.061  18.262  0.00  0.00    +0.000 A 
ATOM     17  C   UNL     1       0.890  10.981  19.313  0.00  0.00    +0.000 A 
ATOM     18  C   UNL     1      -0.280  11.640  19.708  0.00  0.00    +0.000 A 
ATOM     19  C   UNL     1      -1.498  11.380  19.071  0.00  0.00    +0.000 A 
ATOM     20 CL   UNL     1      -2.875  12.235  19.661  0.00  0.00    +0.000 Cl
ATOM     21  C   UNL     1      -1.557  10.458  18.024  0.00  0.00    +0.000 A 
ATOM     22  C   UNL     1      -0.360   9.810  17.638  0.00  0.00    +0.000 A 
BRANCH  21  23
ATOM     23  C   UNL     1      -2.805  10.091  17.267  0.00  0.00    +0.000 C 
ATOM     24  F   UNL     1      -3.615  11.114  16.894  0.00  0.00    +0.000 F 
ATOM     25  F   UNL     1      -2.514   9.416  16.115  0.00  0.00    +0.000 F 
ATOM     26  F   UNL     1      -3.600   9.244  17.985  0.00  0.00    +0.000 F 
ENDBRANCH  21  23
ENDBRANCH  14  16
ENDBRANCH   2  14
TORSDOF 5
ENDMDL
MODEL 3
REMARK VINA RESULT:      -8.3      0.261      7.990
REMARK  Name = 
REMARK  5 active torsions:
REMARK  status: ('A' for Active; 'I' for Inactive)
REMARK    1  A    between atoms: C_2  and  C_5
REMARK    2  A    between atoms: C_7  and  N_8
REMARK    3  A    between atoms: N_9  and  N_10
REMARK    4  A    between atoms: N_10  and  C_11
REMARK    5  A    between atoms: C_16  and  C_17
REMARK                            x       y       z     vdW  Elec       q    Type
REMARK                         _______ _______ _______ _____ _____    ______ ____
ROOT
ATOM      1  N   UNL     1       3.126   7.508  18.100  0.00  0.00    +0.000 NA
ATOM      2  N   UNL     1       1.955   7.927  18.016  0.00  0.00    +0.000 NA
ENDROOT
BRANCH   1   5
ATOM      3  C   UNL     1       2.240   3.940  18.747  0.00  0.00    +0.000 A 
ATOM      4  C   UNL     1       2.216   5.351  18.731  0.00  0.00    +0.000 A 
ATOM      5  C   UNL     1       3.171   6.099  18.027  0.00  0.00    +0.000 A 
ATOM      6  C   UNL     1       4.171   5.407  17.331  0.00  0.00    +0.000 A 
ATOM      7  C   UNL     1       4.205   4.010  17.327  0.00  0.00    +0.000 A 
ATOM      8  C   UNL     1       3.248   3.280  18.034  0.00  0.00    +0.000 A 
ATOM      9 CL   UNL     1       3.376   1.559  17.998  0.00  0.00    +0.000 Cl
BRANCH   3  11
ATOM     10  F   UNL     1       1.750   2.294  20.415  0.00  0.00    +0.000 F 
ATOM     11  C   UNL     1       1.204   3.173  19.525  0.00  0.00    +0.000 C 
ATOM     12  F   UNL     1       0.392   2.422  18.731  0.00  0.00    +0.000 F 
ATOM     13  F   UNL     1       0.389   3.976  20.263  0.00  0.00    +0.000 F 
ENDBRANCH   3  11
ENDBRANCH   1   5
BRANCH   2  14
ATOM     14  N   UNL     1       2.016   9.271  18.032  0.00  0.00    +0.000 N 
ATOM     15  H   UNL     1       2.693   9.701  17.413  0.00  0.00    +0.000 HD
BRANCH  14  16
ATOM     16  C   UNL     1       0.865  10.009  18.349  0.00  0.00    +0.000 A 
ATOM     17  C   UNL     1       0.874  10.871  19.448  0.00  0.00    +0.000 A 
ATOM     18  C   UNL     1      -0.292  11.534  19.847  0.00  0.00    +0.000 A 
ATOM     19  C   UNL     1      -1.498  11.335  19.166  0.00  0.00    +0.000 A 
ATOM     20 CL   UNL     1      -2.873  12.187  19.765  0.00  0.00    +0.000 Cl
ATOM     21  C   UNL     1      -1.547  10.472  18.070  0.00  0.00    +0.000 A 
ATOM     22  C   UNL     1      -0.354   9.819  17.681  0.00  0.00    +0.000 A 
BRANCH  21  23
ATOM     23  C   UNL     1      -2.781  10.173  17.262  0.00  0.00    +0.000 C 
ATOM     24  F   UNL     1      -2.606   9.448  16.127  0.00  0.00    +0.000 F 
ATOM     25  F   UNL     1      -3.708   9.486  17.994  0.00  0.00    +0.000 F 
ATOM     26  F   UNL     1      -3.415  11.315  16.865  0.00  0.00    +0.000 F 
ENDBRANCH  21  23
ENDBRANCH  14  16
ENDBRANCH   2  14
TORSDOF 5
ENDMDL
MODEL 4
REMARK VINA RESULT:      -8.3      2.646      7.755
REMARK  Name = 
REMARK  5 active torsions:
REMARK  status: ('A' for Active; 'I' for Inactive)
REMARK    1  A    between atoms: C_2  and  C_5
REMARK    2  A    between atoms: C_7  and  N_8
REMARK    3  A    between atoms: N_9  and  N_10
REMARK    4  A    between atoms: N_10  and  C_11
REMARK    5  A    between atoms: C_16  and  C_17
REMARK                            x       y       z     vdW  Elec       q    Type
REMARK                         _______ _______ _______ _____ _____    ______ ____
ROOT
ATOM      1  N   UNL     1       3.162   7.435  17.909  0.00  0.00    +0.000 NA
ATOM      2  N   UNL     1       1.997   7.839  18.091  0.00  0.00    +0.000 NA
ENDROOT
BRANCH   1   5
ATOM      3  C   UNL     1       2.299   3.912  18.789  0.00  0.00    +0.000 A 
ATOM      4  C   UNL     1       2.259   5.318  18.670  0.00  0.00    +0.000 A 
ATOM      5  C   UNL     1       3.224   6.025  17.939  0.00  0.00    +0.000 A 
ATOM      6  C   UNL     1       4.251   5.298  17.321  0.00  0.00    +0.000 A 
ATOM      7  C   UNL     1       4.301   3.905  17.420  0.00  0.00    +0.000 A 
ATOM      8  C   UNL     1       3.333   3.215  18.152  0.00  0.00    +0.000 A 
ATOM      9 CL   UNL     1       3.481   1.498  18.244  0.00  0.00    +0.000 Cl
BRANCH   3  11
ATOM     10  F   UNL     1       0.447   2.396  18.826  0.00  0.00    +0.000 F 
ATOM     11  C   UNL     1       1.250   3.189  19.592  0.00  0.00    +0.000 C 
ATOM     12  F   UNL     1       0.405   4.033  20.245  0.00  0.00    +0.000 F 
ATOM     13  F   UNL     1       1.778   2.362  20.537  0.00  0.00    +0.000 F 
ENDBRANCH   3  11
ENDBRANCH   1   5
BRANCH   2  14
ATOM     14  N   UNL     1       2.024   9.180  17.984  0.00  0.00    +0.000 N 
ATOM     15  H   UNL     1       2.105   9.558  17.047  0.00  0.00    +0.000 HD
BRANCH  14  16
ATOM     16  C   UNL     1       1.364   9.961  18.946  0.00  0.00    +0.000 A 
ATOM     17  C   UNL     1       1.342  11.351  18.815  0.00  0.00    +0.000 A 
ATOM     18  C   UNL     1       0.785  12.156  19.815  0.00  0.00    +0.000 A 
ATOM     19  C   UNL     1       0.253  11.588  20.977  0.00  0.00    +0.000 A 
ATOM     20 CL   UNL     1      -0.385  12.681  22.149  0.00  0.00    +0.000 Cl
ATOM     21  C   UNL     1       0.267  10.202  21.148  0.00  0.00    +0.000 A 
ATOM     22  C   UNL     1       0.830   9.410  20.119  0.00  0.00    +0.000 A 
BRANCH  21  23
ATOM     23  C   UNL     1      -0.268   9.475  22.352  0.00  0.00    +0.000 C 
ATOM     24  F   UNL     1      -1.262  10.089  23.043  0.00  0.00    +0.000 F 
ATOM     25  F   UNL     1      -0.760   8.245  22.019  0.00  0.00    +0.000 F 
ATOM     26  F   UNL     1       0.712   9.231  23.272  0.00  0.00    +0.000 F 
ENDBRANCH  21  23
ENDBRANCH  14  16
ENDBRANCH   2  14
TORSDOF 5
ENDMDL
MODEL 5
REMARK VINA RESULT:      -8.3      0.288      1.104
REMARK  Name = 
REMARK  5 active torsions:
REMARK  status: ('A' for Active; 'I' for Inactive)
REMARK    1  A    between atoms: C_2  and  C_5
REMARK    2  A    between atoms: C_7  and  N_8
REMARK    3  A    between atoms: N_9  and  N_10
REMARK    4  A    between atoms: N_10  and  C_11
REMARK    5  A    between atoms: C_16  and  C_17
REMARK                            x       y       z     vdW  Elec       q    Type
REMARK                         _______ _______ _______ _____ _____    ______ ____
ROOT
ATOM      1  N   UNL     1       1.506   8.976  17.682  0.00  0.00    +0.000 NA
ATOM      2  N   UNL     1       2.099   8.370  18.596  0.00  0.00    +0.000 NA
ENDROOT
BRANCH   1   5
ATOM      3  C   UNL     1      -1.909  10.458  17.967  0.00  0.00    +0.000 A 
ATOM      4  C   UNL     1      -0.812   9.675  17.547  0.00  0.00    +0.000 A 
ATOM      5  C   UNL     1       0.432   9.740  18.189  0.00  0.00    +0.000 A 
ATOM      6  C   UNL     1       0.571  10.617  19.274  0.00  0.00    +0.000 A 
ATOM      7  C   UNL     1      -0.505  11.392  19.711  0.00  0.00    +0.000 A 
ATOM      8  C   UNL     1      -1.738  11.317  19.060  0.00  0.00    +0.000 A 
ATOM      9 CL   UNL     1      -3.009  12.325  19.647  0.00  0.00    +0.000 Cl
BRANCH   3  11
ATOM     10  F   UNL     1      -3.619  11.558  16.705  0.00  0.00    +0.000 F 
ATOM     11  C   UNL     1      -3.226  10.368  17.244  0.00  0.00    +0.000 C 
ATOM     12  F   UNL     1      -4.252   9.984  18.052  0.00  0.00    +0.000 F 
ATOM     13  F   UNL     1      -3.204   9.489  16.203  0.00  0.00    +0.000 F 
ENDBRANCH   3  11
ENDBRANCH   1   5
BRANCH   2  14
ATOM     14  N   UNL     1       3.135   7.724  18.032  0.00  0.00    +0.000 N 
ATOM     15  H   UNL     1       4.015   8.227  17.991  0.00  0.00    +0.000 HD
BRANCH  14  16
ATOM     16  C   UNL     1       3.190   6.323  18.094  0.00  0.00    +0.000 A 
ATOM     17  C   UNL     1       4.078   5.626  17.272  0.00  0.00    +0.000 A 
ATOM     18  C   UNL     1       4.074   4.227  17.239  0.00  0.00    +0.000 A 
ATOM     19  C   UNL     1       3.169   3.494  18.014  0.00  0.00    +0.000 A 
ATOM     20 CL   UNL     1       3.243   1.777  17.872  0.00  0.00    +0.000 Cl
ATOM     21  C   UNL     1       2.259   4.157  18.839  0.00  0.00    +0.000 A 
ATOM     22  C   UNL     1       2.287   5.572  18.861  0.00  0.00    +0.000 A 
BRANCH  21  23
ATOM     23  C   UNL     1       1.236   3.483  19.713  0.00  0.00    +0.000 C 
ATOM     24  F   UNL     1       0.347   2.666  19.093  0.00  0.00    +0.000 F 
ATOM     25  F   UNL     1       1.825   2.717  20.679  0.00  0.00    +0.000 F 
ATOM     26  F   UNL     1       0.476   4.391  20.394  0.00  0.00    +0.000 F 
ENDBRANCH  21  23
ENDBRANCH  14  16
ENDBRANCH   2  14
TORSDOF 5
ENDMDL
MODEL 6
REMARK VINA RESULT:      -8.3      2.641      7.700
REMARK  Name = 
REMARK  5 active torsions:
REMARK  status: ('A' for Active; 'I' for Inactive)
REMARK    1  A    between atoms: C_2  and  C_5
REMARK    2  A    between atoms: C_7  and  N_8
REMARK    3  A    between atoms: N_9  and  N_10
REMARK    4  A    between atoms: N_10  and  C_11
REMARK    5  A    between atoms: C_16  and  C_17
REMARK                            x       y       z     vdW  Elec       q    Type
REMARK                         _______ _______ _______ _____ _____    ______ ____
ROOT
ATOM      1  N   UNL     1       3.132   7.457  17.882  0.00  0.00    +0.000 NA
ATOM      2  N   UNL     1       1.973   7.865  18.090  0.00  0.00    +0.000 NA
ENDROOT
BRANCH   1   5
ATOM      3  C   UNL     1       2.266   3.934  18.764  0.00  0.00    +0.000 A 
ATOM      4  C   UNL     1       2.230   5.341  18.649  0.00  0.00    +0.000 A 
ATOM      5  C   UNL     1       3.189   6.046  17.908  0.00  0.00    +0.000 A 
ATOM      6  C   UNL     1       4.205   5.316  17.275  0.00  0.00    +0.000 A 
ATOM      7  C   UNL     1       4.250   3.924  17.369  0.00  0.00    +0.000 A 
ATOM      8  C   UNL     1       3.289   3.235  18.112  0.00  0.00    +0.000 A 
ATOM      9 CL   UNL     1       3.431   1.518  18.198  0.00  0.00    +0.000 Cl
BRANCH   3  11
ATOM     10  F   UNL     1       0.386   4.062  20.240  0.00  0.00    +0.000 F 
ATOM     11  C   UNL     1       1.225   3.213  19.579  0.00  0.00    +0.000 C 
ATOM     12  F   UNL     1       1.761   2.415  20.542  0.00  0.00    +0.000 F 
ATOM     13  F   UNL     1       0.414   2.419  18.825  0.00  0.00    +0.000 F 
ENDBRANCH   3  11
ENDBRANCH   1   5
BRANCH   2  14
ATOM     14  N   UNL     1       2.003   9.206  17.986  0.00  0.00    +0.000 N 
ATOM     15  H   UNL     1       2.081   9.586  17.049  0.00  0.00    +0.000 HD
BRANCH  14  16
ATOM     16  C   UNL     1       1.348   9.987  18.951  0.00  0.00    +0.000 A 
ATOM     17  C   UNL     1       1.316  11.376  18.815  0.00  0.00    +0.000 A 
ATOM     18  C   UNL     1       0.764  12.181  19.818  0.00  0.00    +0.000 A 
ATOM     19  C   UNL     1       0.248  11.615  20.988  0.00  0.00    +0.000 A 
ATOM     20 CL   UNL     1      -0.383  12.709  22.162  0.00  0.00    +0.000 Cl
ATOM     21  C   UNL     1       0.273  10.230  21.164  0.00  0.00    +0.000 A 
ATOM     22  C   UNL     1       0.830   9.437  20.133  0.00  0.00    +0.000 A 
BRANCH  21  23
ATOM     23  C   UNL     1      -0.244   9.505  22.376  0.00  0.00    +0.000 C 
ATOM     24  F   UNL     1       0.644   9.279  23.377  0.00  0.00    +0.000 F 
ATOM     25  F   UNL     1      -1.286  10.173  22.956  0.00  0.00    +0.000 F 
ATOM     26  F   UNL     1      -0.745   8.275  22.055  0.00  0.00    +0.000 F 
ENDBRANCH  21  23
ENDBRANCH  14  16
ENDBRANCH   2  14
TORSDOF 5
ENDMDL
MODEL 7
REMARK VINA RESULT:      -8.2      2.644      7.686
REMARK  Name = 
REMARK  5 active torsions:
REMARK  status: ('A' for Active; 'I' for Inactive)
REMARK    1  A    between atoms: C_2  and  C_5
REMARK    2  A    between atoms: C_7  and  N_8
REMARK    3  A    between atoms: N_9  and  N_10
REMARK    4  A    between atoms: N_10  and  C_11
REMARK    5  A    between atoms: C_16  and  C_17
REMARK                            x       y       z     vdW  Elec       q    Type
REMARK                         _______ _______ _______ _____ _____    ______ ____
ROOT
ATOM      1  N   UNL     1       3.036   7.633  17.934  0.00  0.00    +0.000 NA
ATOM      2  N   UNL     1       1.856   8.029  18.006  0.00  0.00    +0.000 NA
ENDROOT
BRANCH   1   5
ATOM      3  C   UNL     1       2.227   4.082  18.758  0.00  0.00    +0.000 A 
ATOM      4  C   UNL     1       2.180   5.491  18.682  0.00  0.00    +0.000 A 
ATOM      5  C   UNL     1       3.101   6.222  17.919  0.00  0.00    +0.000 A 
ATOM      6  C   UNL     1       4.092   5.516  17.223  0.00  0.00    +0.000 A 
ATOM      7  C   UNL     1       4.148   4.122  17.277  0.00  0.00    +0.000 A 
ATOM      8  C   UNL     1       3.225   3.407  18.043  0.00  0.00    +0.000 A 
ATOM      9 CL   UNL     1       3.379   1.689  18.075  0.00  0.00    +0.000 Cl
BRANCH   3  11
ATOM     10  F   UNL     1       1.813   2.506  20.510  0.00  0.00    +0.000 F 
ATOM     11  C   UNL     1       1.227   3.333  19.597  0.00  0.00    +0.000 C 
ATOM     12  F   UNL     1       0.408   2.533  18.862  0.00  0.00    +0.000 F 
ATOM     13  F   UNL     1       0.417   4.155  20.321  0.00  0.00    +0.000 F 
ENDBRANCH   3  11
ENDBRANCH   1   5
BRANCH   2  14
ATOM     14  N   UNL     1       1.888   9.372  17.952  0.00  0.00    +0.000 N 
ATOM     15  H   UNL     1       1.959   9.787  17.030  0.00  0.00    +0.000 HD
BRANCH  14  16
ATOM     16  C   UNL     1       1.244  10.118  18.952  0.00  0.00    +0.000 A 
ATOM     17  C   UNL     1       1.206  11.511  18.864  0.00  0.00    +0.000 A 
ATOM     18  C   UNL     1       0.665  12.279  19.901  0.00  0.00    +0.000 A 
ATOM     19  C   UNL     1       0.167  11.671  21.058  0.00  0.00    +0.000 A 
ATOM     20 CL   UNL     1      -0.453  12.723  22.277  0.00  0.00    +0.000 Cl
ATOM     21  C   UNL     1       0.198  10.282  21.186  0.00  0.00    +0.000 A 
ATOM     22  C   UNL     1       0.743   9.526  20.121  0.00  0.00    +0.000 A 
BRANCH  21  23
ATOM     23  C   UNL     1      -0.301   9.513  22.379  0.00  0.00    +0.000 C 
ATOM     24  F   UNL     1      -0.774   8.263  22.145  0.00  0.00    +0.000 F 
ATOM     25  F   UNL     1       0.672   9.365  23.326  0.00  0.00    +0.000 F 
ATOM     26  F   UNL     1      -1.318  10.170  23.014  0.00  0.00    +0.000 F 
ENDBRANCH  21  23
ENDBRANCH  14  16
ENDBRANCH   2  14
TORSDOF 5
ENDMDL
MODEL 8
REMARK VINA RESULT:      -8.1      0.569      7.911
REMARK  Name = 
REMARK  5 active torsions:
REMARK  status: ('A' for Active; 'I' for Inactive)
REMARK    1  A    between atoms: C_2  and  C_5
REMARK    2  A    between atoms: C_7  and  N_8
REMARK    3  A    between atoms: N_9  and  N_10
REMARK    4  A    between atoms: N_10  and  C_11
REMARK    5  A    between atoms: C_16  and  C_17
REMARK                            x       y       z     vdW  Elec       q    Type
REMARK                         _______ _______ _______ _____ _____    ______ ____
ROOT
ATOM      1  N   UNL     1       2.614   7.727  18.726  0.00  0.00    +0.000 NA
ATOM      2  N   UNL     1       2.174   8.345  17.736  0.00  0.00    +0.000 NA
ENDROOT
BRANCH   1   5
ATOM      3  C   UNL     1       2.054   4.044  18.969  0.00  0.00    +0.000 A 
ATOM      4  C   UNL     1       1.935   5.439  19.153  0.00  0.00    +0.000 A 
ATOM      5  C   UNL     1       2.740   6.348  18.451  0.00  0.00    +0.000 A 
ATOM      6  C   UNL     1       3.684   5.837  17.550  0.00  0.00    +0.000 A 
ATOM      7  C   UNL     1       3.808   4.461  17.347  0.00  0.00    +0.000 A 
ATOM      8  C   UNL     1       3.001   3.568  18.054  0.00  0.00    +0.000 A 
ATOM      9 CL   UNL     1       3.234   1.883  17.763  0.00  0.00    +0.000 Cl
BRANCH   3  11
ATOM     10  F   UNL     1       0.293   2.423  18.964  0.00  0.00    +0.000 F 
ATOM     11  C   UNL     1       1.179   3.099  19.750  0.00  0.00    +0.000 C 
ATOM     12  F   UNL     1       0.420   3.729  20.688  0.00  0.00    +0.000 F 
ATOM     13  F   UNL     1       1.886   2.138  20.406  0.00  0.00    +0.000 F 
ENDBRANCH   3  11
ENDBRANCH   1   5
BRANCH   2  14
ATOM     14  N   UNL     1       2.147   9.649  18.067  0.00  0.00    +0.000 N 
ATOM     15  H   UNL     1       2.873  10.233  17.668  0.00  0.00    +0.000 HD
BRANCH  14  16
ATOM     16  C   UNL     1       0.918  10.257  18.371  0.00  0.00    +0.000 A 
ATOM     17  C   UNL     1       0.831  11.143  19.447  0.00  0.00    +0.000 A 
ATOM     18  C   UNL     1      -0.403  11.677  19.835  0.00  0.00    +0.000 A 
ATOM     19  C   UNL     1      -1.580  11.321  19.168  0.00  0.00    +0.000 A 
ATOM     20 CL   UNL     1      -3.042  12.024  19.751  0.00  0.00    +0.000 Cl
ATOM     21  C   UNL     1      -1.532  10.428  18.095  0.00  0.00    +0.000 A 
ATOM     22  C   UNL     1      -0.272   9.908  17.717  0.00  0.00    +0.000 A 
BRANCH  21  23
ATOM     23  C   UNL     1      -2.725   9.966  17.304  0.00  0.00    +0.000 C 
ATOM     24  F   UNL     1      -3.578   9.113  17.927  0.00  0.00    +0.000 F 
ATOM     25  F   UNL     1      -3.495  11.017  16.893  0.00  0.00    +0.000 F 
ATOM     26  F   UNL     1      -2.353   9.327  16.155  0.00  0.00    +0.000 F 
ENDBRANCH  21  23
ENDBRANCH  14  16
ENDBRANCH   2  14
TORSDOF 5
ENDMDL
MODEL 9
REMARK VINA RESULT:      -8.1      2.022      2.711
REMARK  Name = 
REMARK  5 active torsions:
REMARK  status: ('A' for Active; 'I' for Inactive)
REMARK    1  A    between atoms: C_2  and  C_5
REMARK    2  A    between atoms: C_7  and  N_8
REMARK    3  A    between atoms: N_9  and  N_10
REMARK    4  A    between atoms: N_10  and  C_11
REMARK    5  A    between atoms: C_16  and  C_17
REMARK                            x       y       z     vdW  Elec       q    Type
REMARK                         _______ _______ _______ _____ _____    ______ ____
ROOT
ATOM      1  N   UNL     1       0.624   9.044  21.906  0.00  0.00    +0.000 NA
ATOM      2  N   UNL     1       1.103   8.570  20.857  0.00  0.00    +0.000 NA
ENDROOT
BRANCH   1   5
ATOM      3  C   UNL     1      -1.346  11.540  19.950  0.00  0.00    +0.000 A 
ATOM      4  C   UNL     1      -0.549  10.427  20.297  0.00  0.00    +0.000 A 
ATOM      5  C   UNL     1      -0.227  10.137  21.630  0.00  0.00    +0.000 A 
ATOM      6  C   UNL     1      -0.715  10.989  22.630  0.00  0.00    +0.000 A 
ATOM      7  C   UNL     1      -1.513  12.088  22.306  0.00  0.00    +0.000 A 
ATOM      8  C   UNL     1      -1.825  12.366  20.974  0.00  0.00    +0.000 A 
ATOM      9 CL   UNL     1      -2.796  13.757  20.658  0.00  0.00    +0.000 Cl
BRANCH   3  11
ATOM     10  F   UNL     1      -1.221  10.848  17.662  0.00  0.00    +0.000 F 
ATOM     11  C   UNL     1      -1.662  11.825  18.505  0.00  0.00    +0.000 C 
ATOM     12  F   UNL     1      -1.090  12.975  18.053  0.00  0.00    +0.000 F 
ATOM     13  F   UNL     1      -2.997  11.936  18.263  0.00  0.00    +0.000 F 
ENDBRANCH   3  11
ENDBRANCH   1   5
BRANCH   2  14
ATOM     14  N   UNL     1       1.845   7.504  21.210  0.00  0.00    +0.000 N 
ATOM     15  H   UNL     1       1.831   7.247  22.190  0.00  0.00    +0.000 HD
BRANCH  14  16
ATOM     16  C   UNL     1       2.073   6.483  20.273  0.00  0.00    +0.000 A 
ATOM     17  C   UNL     1       2.642   6.791  19.036  0.00  0.00    +0.000 A 
ATOM     18  C   UNL     1       2.779   5.809  18.048  0.00  0.00    +0.000 A 
ATOM     19  C   UNL     1       2.332   4.502  18.269  0.00  0.00    +0.000 A 
ATOM     20 CL   UNL     1       2.533   3.387  16.969  0.00  0.00    +0.000 Cl
ATOM     21  C   UNL     1       1.747   4.161  19.490  0.00  0.00    +0.000 A 
ATOM     22  C   UNL     1       1.626   5.169  20.476  0.00  0.00    +0.000 A 
BRANCH  21  23
ATOM     23  C   UNL     1       1.224   2.796  19.845  0.00  0.00    +0.000 C 
ATOM     24  F   UNL     1       0.193   2.325  19.098  0.00  0.00    +0.000 F 
ATOM     25  F   UNL     1       2.201   1.845  19.759  0.00  0.00    +0.000 F 
ATOM     26  F   UNL     1       0.787   2.742  21.138  0.00  0.00    +0.000 F 
ENDBRANCH  21  23
ENDBRANCH  14  16
ENDBRANCH   2  14
TORSDOF 5
ENDMDL
