MODEL 1
REMARK VINA RESULT:      -8.3      0.000      0.000
REMARK  Name = 
REMARK  6 active torsions:
REMARK  status: ('A' for Active; 'I' for Inactive)
REMARK    1  A    between atoms: C_1  and  C_2
REMARK    2  A    between atoms: C_5  and  C_7
REMARK    3  A    between atoms: C_9  and  C_10
REMARK    4  A    between atoms: C_10  and  N_11
REMARK    5  A    between atoms: N_29  and  C_30
REMARK    6  A    between atoms: C_30  and  C_31
REMARK                            x       y       z     vdW  Elec       q    Type
REMARK                         _______ _______ _______ _____ _____    ______ ____
ROOT
ATOM      1  C   UNL     1       0.979   9.202  19.161  0.00  0.00    +0.000 A 
ATOM      2  C   UNL     1       1.841   8.455  18.342  0.00  0.00    +0.000 A 
ATOM      3  C   UNL     1       2.528   7.331  18.847  0.00  0.00    +0.000 A 
ATOM      4  C   UNL     1       2.316   6.962  20.184  0.00  0.00    +0.000 A 
ATOM      5  C   UNL     1       1.482   7.719  21.006  0.00  0.00    +0.000 A 
ATOM      6  C   UNL     1       0.846   8.849  20.502  0.00  0.00    +0.000 A 
ATOM      7  F   UNL     1       0.095   9.575  21.343  0.00  0.00    +0.000 F 
ENDROOT
BRANCH   1  12
ATOM      8  C   UNL     1      -2.057  12.985  19.743  0.00  0.00    +0.000 C 
ATOM      9  C   UNL     1      -0.748  13.716  19.391  0.00  0.00    +0.000 C 
ATOM     10  C   UNL     1       0.063  12.850  18.389  0.00  0.00    +0.000 C 
ATOM     11  N   UNL     1       0.644  11.675  19.043  0.00  0.00    +0.000 N 
ATOM     12  C   UNL     1       0.301  10.401  18.605  0.00  0.00    +0.000 C 
ATOM     13  O   UNL     1      -0.581  10.198  17.769  0.00  0.00    +0.000 OA
ATOM     14  C   UNL     1       1.449  12.004  20.219  0.00  0.00    +0.000 C 
ATOM     15  C   UNL     1       0.690  12.917  21.203  0.00  0.00    +0.000 C 
ATOM     16  N   UNL     1       0.097  14.103  20.560  0.00  0.00    +0.000 NA
BRANCH  16  17
ATOM     17  C   UNL     1      -0.620  14.959  21.511  0.00  0.00    +0.000 C 
BRANCH  17  18
ATOM     18  C   UNL     1      -0.734  14.332  22.872  0.00  0.00    +0.000 C 
ATOM     19  C   UNL     1      -1.112  15.134  24.095  0.00  0.00    +0.000 C 
ATOM     20  C   UNL     1      -2.084  14.144  23.517  0.00  0.00    +0.000 C 
ENDBRANCH  17  18
ENDBRANCH  16  17
ENDBRANCH   1  12
BRANCH   3  21
ATOM     21  C   UNL     1       3.474   6.536  17.963  0.00  0.00    +0.000 C 
BRANCH  21  22
ATOM     22  N   UNL     1       3.798   5.222  18.513  0.00  0.00    +0.000 N 
ATOM     23  C   UNL     1       5.095   5.047  18.978  0.00  0.00    +0.000 A 
ATOM     24  O   UNL     1       5.941   5.940  19.012  0.00  0.00    +0.000 OA
ATOM     25  N   UNL     1       5.434   3.801  19.415  0.00  0.00    +0.000 N 
ATOM     26  C   UNL     1       4.640   2.693  19.428  0.00  0.00    +0.000 A 
ATOM     27  O   UNL     1       5.070   1.585  19.726  0.00  0.00    +0.000 OA
ATOM     28  C   UNL     1       3.232   2.911  19.066  0.00  0.00    +0.000 A 
ATOM     29  C   UNL     1       2.320   1.854  19.221  0.00  0.00    +0.000 A 
ATOM     30  C   UNL     1       0.980   2.047  18.907  0.00  0.00    +0.000 A 
ATOM     31  C   UNL     1       0.564   3.281  18.419  0.00  0.00    +0.000 A 
ATOM     32  C   UNL     1       1.481   4.330  18.259  0.00  0.00    +0.000 A 
ATOM     33  C   UNL     1       2.833   4.169  18.595  0.00  0.00    +0.000 A 
ATOM     34  H   UNL     1       6.394   3.678  19.699  0.00  0.00    +0.000 HD
ENDBRANCH  21  22
ENDBRANCH   3  21
TORSDOF 5
ENDMDL
MODEL 2
REMARK VINA RESULT:      -8.3      2.276      3.619
REMARK  Name = 
REMARK  6 active torsions:
REMARK  status: ('A' for Active; 'I' for Inactive)
REMARK    1  A    between atoms: C_1  and  C_2
REMARK    2  A    between atoms: C_5  and  C_7
REMARK    3  A    between atoms: C_9  and  C_10
REMARK    4  A    between atoms: C_10  and  N_11
REMARK    5  A    between atoms: N_29  and  C_30
REMARK    6  A    between atoms: C_30  and  C_31
REMARK                            x       y       z     vdW  Elec       q    Type
REMARK                         _______ _______ _______ _____ _____    ______ ____
ROOT
ATOM      1  C   UNL     1       0.627   9.751  19.379  0.00  0.00    +0.000 A 
ATOM      2  C   UNL     1       1.215   9.029  18.328  0.00  0.00    +0.000 A 
ATOM      3  C   UNL     1       1.980   7.871  18.582  0.00  0.00    +0.000 A 
ATOM      4  C   UNL     1       2.126   7.443  19.909  0.00  0.00    +0.000 A 
ATOM      5  C   UNL     1       1.566   8.175  20.957  0.00  0.00    +0.000 A 
ATOM      6  C   UNL     1       0.850   9.338  20.690  0.00  0.00    +0.000 A 
ATOM      7  F   UNL     1       0.375  10.035  21.732  0.00  0.00    +0.000 F 
ENDROOT
BRANCH   1  12
ATOM      8  C   UNL     1      -0.517  14.380  20.443  0.00  0.00    +0.000 C 
ATOM      9  C   UNL     1       0.066  14.544  19.028  0.00  0.00    +0.000 C 
ATOM     10  C   UNL     1      -0.283  13.285  18.187  0.00  0.00    +0.000 C 
ATOM     11  N   UNL     1       0.504  12.124  18.608  0.00  0.00    +0.000 N 
ATOM     12  C   UNL     1      -0.142  10.985  19.076  0.00  0.00    +0.000 C 
ATOM     13  O   UNL     1      -1.355  10.946  19.285  0.00  0.00    +0.000 OA
ATOM     14  C   UNL     1       1.947  12.370  18.608  0.00  0.00    +0.000 C 
ATOM     15  C   UNL     1       2.315  13.650  19.383  0.00  0.00    +0.000 C 
ATOM     16  N   UNL     1       1.531  14.828  18.972  0.00  0.00    +0.000 NA
BRANCH  16  17
ATOM     17  C   UNL     1       1.897  16.036  19.720  0.00  0.00    +0.000 C 
BRANCH  17  18
ATOM     18  C   UNL     1       2.696  17.002  18.891  0.00  0.00    +0.000 C 
ATOM     19  C   UNL     1       4.147  16.756  18.550  0.00  0.00    +0.000 C 
ATOM     20  C   UNL     1       3.096  16.649  17.481  0.00  0.00    +0.000 C 
ENDBRANCH  17  18
ENDBRANCH  16  17
ENDBRANCH   1  12
BRANCH   3  21
ATOM     21  C   UNL     1       2.630   7.104  17.443  0.00  0.00    +0.000 C 
BRANCH  21  22
ATOM     22  N   UNL     1       3.407   5.955  17.902  0.00  0.00    +0.000 N 
ATOM     23  C   UNL     1       2.689   4.810  18.223  0.00  0.00    +0.000 A 
ATOM     24  O   UNL     1       1.472   4.696  18.080  0.00  0.00    +0.000 OA
ATOM     25  N   UNL     1       3.394   3.760  18.733  0.00  0.00    +0.000 N 
ATOM     26  C   UNL     1       4.734   3.715  18.982  0.00  0.00    +0.000 A 
ATOM     27  O   UNL     1       5.259   2.769  19.556  0.00  0.00    +0.000 OA
ATOM     28  C   UNL     1       5.510   4.873  18.515  0.00  0.00    +0.000 A 
ATOM     29  C   UNL     1       6.911   4.822  18.583  0.00  0.00    +0.000 A 
ATOM     30  C   UNL     1       7.665   5.897  18.125  0.00  0.00    +0.000 A 
ATOM     31  C   UNL     1       7.016   7.021  17.625  0.00  0.00    +0.000 A 
ATOM     32  C   UNL     1       5.615   7.069  17.567  0.00  0.00    +0.000 A 
ATOM     33  C   UNL     1       4.834   5.986  17.998  0.00  0.00    +0.000 A 
ATOM     34  H   UNL     1       2.851   2.956  19.011  0.00  0.00    +0.000 HD
ENDBRANCH  21  22
ENDBRANCH   3  21
TORSDOF 5
ENDMDL
MODEL 3
REMARK VINA RESULT:      -8.1      1.475      2.756
REMARK  Name = 
REMARK  6 active torsions:
REMARK  status: ('A' for Active; 'I' for Inactive)
REMARK    1  A    between atoms: C_1  and  C_2
REMARK    2  A    between atoms: C_5  and  C_7
REMARK    3  A    between atoms: C_9  and  C_10
REMARK    4  A    between atoms: C_10  and  N_11
REMARK    5  A    between atoms: N_29  and  C_30
REMARK    6  A    between atoms: C_30  and  C_31
REMARK                            x       y       z     vdW  Elec       q    Type
REMARK                         _______ _______ _______ _____ _____    ______ ____
ROOT
ATOM      1  C   UNL     1       0.612   9.837  19.059  0.00  0.00    +0.000 A 
ATOM      2  C   UNL     1       1.369   9.195  18.066  0.00  0.00    +0.000 A 
ATOM      3  C   UNL     1       2.165   8.072  18.373  0.00  0.00    +0.000 A 
ATOM      4  C   UNL     1       2.171   7.596  19.692  0.00  0.00    +0.000 A 
ATOM      5  C   UNL     1       1.442   8.249  20.686  0.00  0.00    +0.000 A 
ATOM      6  C   UNL     1       0.696   9.380  20.372  0.00  0.00    +0.000 A 
ATOM      7  F   UNL     1       0.053  10.005  21.370  0.00  0.00    +0.000 F 
ENDROOT
BRANCH   1  12
ATOM      8  C   UNL     1      -2.384  13.457  20.396  0.00  0.00    +0.000 C 
ATOM      9  C   UNL     1      -1.178  14.257  19.873  0.00  0.00    +0.000 C 
ATOM     10  C   UNL     1      -0.529  13.484  18.693  0.00  0.00    +0.000 C 
ATOM     11  N   UNL     1       0.190  12.297  19.160  0.00  0.00    +0.000 N 
ATOM     12  C   UNL     1      -0.187  11.038  18.706  0.00  0.00    +0.000 C 
ATOM     13  O   UNL     1      -1.195  10.850  18.023  0.00  0.00    +0.000 OA
ATOM     14  C   UNL     1       1.178  12.589  20.199  0.00  0.00    +0.000 C 
ATOM     15  C   UNL     1       0.575  13.411  21.355  0.00  0.00    +0.000 C 
ATOM     16  N   UNL     1      -0.154  14.609  20.902  0.00  0.00    +0.000 NA
BRANCH  16  17
ATOM     17  C   UNL     1      -0.719  15.379  22.015  0.00  0.00    +0.000 C 
BRANCH  17  18
ATOM     18  C   UNL     1      -0.794  14.578  23.285  0.00  0.00    +0.000 C 
ATOM     19  C   UNL     1      -1.122  15.214  24.615  0.00  0.00    +0.000 C 
ATOM     20  C   UNL     1      -2.123  14.315  23.945  0.00  0.00    +0.000 C 
ENDBRANCH  17  18
ENDBRANCH  16  17
ENDBRANCH   1  12
BRANCH   3  21
ATOM     21  C   UNL     1       2.998   7.392  17.299  0.00  0.00    +0.000 C 
BRANCH  21  22
ATOM     22  N   UNL     1       3.668   6.185  17.777  0.00  0.00    +0.000 N 
ATOM     23  C   UNL     1       2.863   5.074  17.996  0.00  0.00    +0.000 A 
ATOM     24  O   UNL     1       1.658   5.037  17.750  0.00  0.00    +0.000 OA
ATOM     25  N   UNL     1       3.463   3.969  18.523  0.00  0.00    +0.000 N 
ATOM     26  C   UNL     1       4.773   3.838  18.879  0.00  0.00    +0.000 A 
ATOM     27  O   UNL     1       5.194   2.845  19.459  0.00  0.00    +0.000 OA
ATOM     28  C   UNL     1       5.649   4.963  18.521  0.00  0.00    +0.000 A 
ATOM     29  C   UNL     1       7.034   4.828  18.701  0.00  0.00    +0.000 A 
ATOM     30  C   UNL     1       7.882   5.870  18.346  0.00  0.00    +0.000 A 
ATOM     31  C   UNL     1       7.341   7.046  17.836  0.00  0.00    +0.000 A 
ATOM     32  C   UNL     1       5.955   7.178  17.666  0.00  0.00    +0.000 A 
ATOM     33  C   UNL     1       5.082   6.130  17.991  0.00  0.00    +0.000 A 
ATOM     34  H   UNL     1       2.854   3.190  18.726  0.00  0.00    +0.000 HD
ENDBRANCH  21  22
ENDBRANCH   3  21
TORSDOF 5
ENDMDL
MODEL 4
REMARK VINA RESULT:      -8.0      1.002      1.322
REMARK  Name = 
REMARK  6 active torsions:
REMARK  status: ('A' for Active; 'I' for Inactive)
REMARK    1  A    between atoms: C_1  and  C_2
REMARK    2  A    between atoms: C_5  and  C_7
REMARK    3  A    between atoms: C_9  and  C_10
REMARK    4  A    between atoms: C_10  and  N_11
REMARK    5  A    between atoms: N_29  and  C_30
REMARK    6  A    between atoms: C_30  and  C_31
REMARK                            x       y       z     vdW  Elec       q    Type
REMARK                         _______ _______ _______ _____ _____    ______ ____
ROOT
ATOM      1  C   UNL     1       0.932   9.407  19.189  0.00  0.00    +0.000 A 
ATOM      2  C   UNL     1       1.752   8.633  18.352  0.00  0.00    +0.000 A 
ATOM      3  C   UNL     1       2.427   7.497  18.845  0.00  0.00    +0.000 A 
ATOM      4  C   UNL     1       2.247   7.143  20.190  0.00  0.00    +0.000 A 
ATOM      5  C   UNL     1       1.456   7.926  21.031  0.00  0.00    +0.000 A 
ATOM      6  C   UNL     1       0.832   9.067  20.536  0.00  0.00    +0.000 A 
ATOM      7  F   UNL     1       0.123   9.816  21.394  0.00  0.00    +0.000 F 
ENDROOT
BRANCH   1  12
ATOM      8  C   UNL     1      -1.618  13.510  19.913  0.00  0.00    +0.000 C 
ATOM      9  C   UNL     1      -0.341  14.074  19.267  0.00  0.00    +0.000 C 
ATOM     10  C   UNL     1       0.197  13.050  18.230  0.00  0.00    +0.000 C 
ATOM     11  N   UNL     1       0.788  11.882  18.885  0.00  0.00    +0.000 N 
ATOM     12  C   UNL     1       0.265  10.616  18.644  0.00  0.00    +0.000 C 
ATOM     13  O   UNL     1      -0.769  10.434  18.001  0.00  0.00    +0.000 OA
ATOM     14  C   UNL     1       1.821  12.226  19.863  0.00  0.00    +0.000 C 
ATOM     15  C   UNL     1       1.334  13.288  20.868  0.00  0.00    +0.000 C 
ATOM     16  N   UNL     1       0.735  14.471  20.224  0.00  0.00    +0.000 NA
BRANCH  16  17
ATOM     17  C   UNL     1       0.279  15.471  21.196  0.00  0.00    +0.000 C 
BRANCH  17  18
ATOM     18  C   UNL     1       0.011  16.806  20.560  0.00  0.00    +0.000 C 
ATOM     19  C   UNL     1      -1.301  17.531  20.742  0.00  0.00    +0.000 C 
ATOM     20  C   UNL     1      -0.057  18.054  21.403  0.00  0.00    +0.000 C 
ENDBRANCH  17  18
ENDBRANCH  16  17
ENDBRANCH   1  12
BRANCH   3  21
ATOM     21  C   UNL     1       3.328   6.674  17.940  0.00  0.00    +0.000 C 
BRANCH  21  22
ATOM     22  N   UNL     1       3.693   5.384  18.521  0.00  0.00    +0.000 N 
ATOM     23  C   UNL     1       4.985   5.271  19.017  0.00  0.00    +0.000 A 
ATOM     24  O   UNL     1       5.793   6.199  19.053  0.00  0.00    +0.000 OA
ATOM     25  N   UNL     1       5.365   4.048  19.484  0.00  0.00    +0.000 N 
ATOM     26  C   UNL     1       4.617   2.908  19.500  0.00  0.00    +0.000 A 
ATOM     27  O   UNL     1       5.085   1.825  19.827  0.00  0.00    +0.000 OA
ATOM     28  C   UNL     1       3.209   3.061  19.103  0.00  0.00    +0.000 A 
ATOM     29  C   UNL     1       2.339   1.971  19.258  0.00  0.00    +0.000 A 
ATOM     30  C   UNL     1       0.999   2.102  18.912  0.00  0.00    +0.000 A 
ATOM     31  C   UNL     1       0.543   3.310  18.393  0.00  0.00    +0.000 A 
ATOM     32  C   UNL     1       1.421   4.393  18.232  0.00  0.00    +0.000 A 
ATOM     33  C   UNL     1       2.770   4.293  18.601  0.00  0.00    +0.000 A 
ATOM     34  H   UNL     1       6.323   3.970  19.790  0.00  0.00    +0.000 HD
ENDBRANCH  21  22
ENDBRANCH   3  21
TORSDOF 5
ENDMDL
MODEL 5
REMARK VINA RESULT:      -7.9      2.533      3.933
REMARK  Name = 
REMARK  6 active torsions:
REMARK  status: ('A' for Active; 'I' for Inactive)
REMARK    1  A    between atoms: C_1  and  C_2
REMARK    2  A    between atoms: C_5  and  C_7
REMARK    3  A    between atoms: C_9  and  C_10
REMARK    4  A    between atoms: C_10  and  N_11
REMARK    5  A    between atoms: N_29  and  C_30
REMARK    6  A    between atoms: C_30  and  C_31
REMARK                            x       y       z     vdW  Elec       q    Type
REMARK                         _______ _______ _______ _____ _____    ______ ____
ROOT
ATOM      1  C   UNL     1       2.260   6.362  19.483  0.00  0.00    +0.000 A 
ATOM      2  C   UNL     1       3.474   5.737  19.154  0.00  0.00    +0.000 A 
ATOM      3  C   UNL     1       3.806   4.473  19.685  0.00  0.00    +0.000 A 
ATOM      4  C   UNL     1       2.888   3.842  20.536  0.00  0.00    +0.000 A 
ATOM      5  C   UNL     1       1.694   4.473  20.887  0.00  0.00    +0.000 A 
ATOM      6  C   UNL     1       1.402   5.738  20.386  0.00  0.00    +0.000 A 
ATOM      7  F   UNL     1       0.267   6.327  20.791  0.00  0.00    +0.000 F 
ENDROOT
BRANCH   1  12
ATOM      8  C   UNL     1      -0.901  10.014  18.751  0.00  0.00    +0.000 C 
ATOM      9  C   UNL     1       0.181  10.729  19.579  0.00  0.00    +0.000 C 
ATOM     10  C   UNL     1       1.569  10.129  19.226  0.00  0.00    +0.000 C 
ATOM     11  N   UNL     1       1.730   8.784  19.783  0.00  0.00    +0.000 N 
ATOM     12  C   UNL     1       1.959   7.708  18.933  0.00  0.00    +0.000 C 
ATOM     13  O   UNL     1       1.903   7.804  17.706  0.00  0.00    +0.000 OA
ATOM     14  C   UNL     1       1.484   8.720  21.224  0.00  0.00    +0.000 C 
ATOM     15  C   UNL     1       0.140   9.366  21.610  0.00  0.00    +0.000 C 
ATOM     16  N   UNL     1      -0.038  10.720  21.057  0.00  0.00    +0.000 NA
BRANCH  16  17
ATOM     17  C   UNL     1      -1.323  11.319  21.436  0.00  0.00    +0.000 C 
BRANCH  17  18
ATOM     18  C   UNL     1      -1.352  11.746  22.877  0.00  0.00    +0.000 C 
ATOM     19  C   UNL     1      -1.508  13.193  23.281  0.00  0.00    +0.000 C 
ATOM     20  C   UNL     1      -2.635  12.225  23.507  0.00  0.00    +0.000 C 
ENDBRANCH  17  18
ENDBRANCH  16  17
ENDBRANCH   1  12
BRANCH   3  21
ATOM     21  C   UNL     1       5.129   3.810  19.342  0.00  0.00    +0.000 C 
BRANCH  21  22
ATOM     22  N   UNL     1       5.983   4.645  18.502  0.00  0.00    +0.000 N 
ATOM     23  C   UNL     1       6.923   5.430  19.158  0.00  0.00    +0.000 A 
ATOM     24  O   UNL     1       7.111   5.407  20.373  0.00  0.00    +0.000 OA
ATOM     25  N   UNL     1       7.667   6.276  18.391  0.00  0.00    +0.000 N 
ATOM     26  C   UNL     1       7.579   6.453  17.042  0.00  0.00    +0.000 A 
ATOM     27  O   UNL     1       8.206   7.326  16.455  0.00  0.00    +0.000 OA
ATOM     28  C   UNL     1       6.684   5.526  16.333  0.00  0.00    +0.000 A 
ATOM     29  C   UNL     1       6.672   5.536  14.929  0.00  0.00    +0.000 A 
ATOM     30  C   UNL     1       5.851   4.651  14.239  0.00  0.00    +0.000 A 
ATOM     31  C   UNL     1       5.033   3.781  14.953  0.00  0.00    +0.000 A 
ATOM     32  C   UNL     1       5.044   3.782  16.356  0.00  0.00    +0.000 A 
ATOM     33  C   UNL     1       5.884   4.646  17.074  0.00  0.00    +0.000 A 
ATOM     34  H   UNL     1       8.306   6.878  18.889  0.00  0.00    +0.000 HD
ENDBRANCH  21  22
ENDBRANCH   3  21
TORSDOF 5
ENDMDL
MODEL 6
REMARK VINA RESULT:      -7.8      2.815      9.450
REMARK  Name = 
REMARK  6 active torsions:
REMARK  status: ('A' for Active; 'I' for Inactive)
REMARK    1  A    between atoms: C_1  and  C_2
REMARK    2  A    between atoms: C_5  and  C_7
REMARK    3  A    between atoms: C_9  and  C_10
REMARK    4  A    between atoms: C_10  and  N_11
REMARK    5  A    between atoms: N_29  and  C_30
REMARK    6  A    between atoms: C_30  and  C_31
REMARK                            x       y       z     vdW  Elec       q    Type
REMARK                         _______ _______ _______ _____ _____    ______ ____
ROOT
ATOM      1  C   UNL     1       2.121   6.533  19.096  0.00  0.00    +0.000 A 
ATOM      2  C   UNL     1       1.993   7.688  18.309  0.00  0.00    +0.000 A 
ATOM      3  C   UNL     1       1.590   8.914  18.879  0.00  0.00    +0.000 A 
ATOM      4  C   UNL     1       1.337   8.960  20.257  0.00  0.00    +0.000 A 
ATOM      5  C   UNL     1       1.435   7.807  21.037  0.00  0.00    +0.000 A 
ATOM      6  C   UNL     1       1.794   6.598  20.449  0.00  0.00    +0.000 A 
ATOM      7  F   UNL     1       1.826   5.506  21.228  0.00  0.00    +0.000 F 
ENDROOT
BRANCH   1  12
ATOM      8  C   UNL     1       4.424   4.135  15.517  0.00  0.00    +0.000 C 
ATOM      9  C   UNL     1       5.176   3.605  16.751  0.00  0.00    +0.000 C 
ATOM     10  C   UNL     1       4.187   3.509  17.945  0.00  0.00    +0.000 C 
ATOM     11  N   UNL     1       3.839   4.835  18.461  0.00  0.00    +0.000 N 
ATOM     12  C   UNL     1       2.513   5.252  18.455  0.00  0.00    +0.000 C 
ATOM     13  O   UNL     1       1.615   4.609  17.910  0.00  0.00    +0.000 OA
ATOM     14  C   UNL     1       5.006   5.646  18.812  0.00  0.00    +0.000 C 
ATOM     15  C   UNL     1       6.034   5.705  17.666  0.00  0.00    +0.000 C 
ATOM     16  N   UNL     1       6.395   4.379  17.134  0.00  0.00    +0.000 NA
BRANCH  16  17
ATOM     17  C   UNL     1       7.375   4.456  16.045  0.00  0.00    +0.000 C 
BRANCH  17  18
ATOM     18  C   UNL     1       6.774   4.982  14.772  0.00  0.00    +0.000 C 
ATOM     19  C   UNL     1       7.625   5.376  13.588  0.00  0.00    +0.000 C 
ATOM     20  C   UNL     1       6.775   4.139  13.521  0.00  0.00    +0.000 C 
ENDBRANCH  17  18
ENDBRANCH  16  17
ENDBRANCH   1  12
BRANCH   3  21
ATOM     21  C   UNL     1       1.435  10.157  18.019  0.00  0.00    +0.000 C 
BRANCH  21  22
ATOM     22  N   UNL     1       0.398  11.062  18.509  0.00  0.00    +0.000 N 
ATOM     23  C   UNL     1       0.827  12.153  19.254  0.00  0.00    +0.000 A 
ATOM     24  O   UNL     1       2.010  12.425  19.459  0.00  0.00    +0.000 OA
ATOM     25  N   UNL     1      -0.136  12.956  19.788  0.00  0.00    +0.000 N 
ATOM     26  C   UNL     1      -1.486  12.796  19.686  0.00  0.00    +0.000 A 
ATOM     27  O   UNL     1      -2.275  13.502  20.303  0.00  0.00    +0.000 OA
ATOM     28  C   UNL     1      -1.938  11.724  18.787  0.00  0.00    +0.000 A 
ATOM     29  C   UNL     1      -3.307  11.610  18.501  0.00  0.00    +0.000 A 
ATOM     30  C   UNL     1      -3.752  10.619  17.634  0.00  0.00    +0.000 A 
ATOM     31  C   UNL     1      -2.832   9.736  17.078  0.00  0.00    +0.000 A 
ATOM     32  C   UNL     1      -1.465   9.850  17.374  0.00  0.00    +0.000 A 
ATOM     33  C   UNL     1      -0.990  10.859  18.225  0.00  0.00    +0.000 A 
ATOM     34  H   UNL     1       0.192  13.712  20.370  0.00  0.00    +0.000 HD
ENDBRANCH  21  22
ENDBRANCH   3  21
TORSDOF 5
ENDMDL
MODEL 7
REMARK VINA RESULT:      -7.7      2.892      9.894
REMARK  Name = 
REMARK  6 active torsions:
REMARK  status: ('A' for Active; 'I' for Inactive)
REMARK    1  A    between atoms: C_1  and  C_2
REMARK    2  A    between atoms: C_5  and  C_7
REMARK    3  A    between atoms: C_9  and  C_10
REMARK    4  A    between atoms: C_10  and  N_11
REMARK    5  A    between atoms: N_29  and  C_30
REMARK    6  A    between atoms: C_30  and  C_31
REMARK                            x       y       z     vdW  Elec       q    Type
REMARK                         _______ _______ _______ _____ _____    ______ ____
ROOT
ATOM      1  C   UNL     1       1.578   8.336  19.553  0.00  0.00    +0.000 A 
ATOM      2  C   UNL     1       1.550   9.301  20.574  0.00  0.00    +0.000 A 
ATOM      3  C   UNL     1       1.086  10.609  20.323  0.00  0.00    +0.000 A 
ATOM      4  C   UNL     1       0.634  10.924  19.033  0.00  0.00    +0.000 A 
ATOM      5  C   UNL     1       0.688   9.976  18.011  0.00  0.00    +0.000 A 
ATOM      6  C   UNL     1       1.187   8.703  18.267  0.00  0.00    +0.000 A 
ATOM      7  F   UNL     1       1.267   7.842  17.241  0.00  0.00    +0.000 F 
ENDROOT
BRANCH   1  12
ATOM      8  C   UNL     1       2.623   3.803  18.062  0.00  0.00    +0.000 C 
ATOM      9  C   UNL     1       4.019   4.300  18.478  0.00  0.00    +0.000 C 
ATOM     10  C   UNL     1       3.875   5.264  19.687  0.00  0.00    +0.000 C 
ATOM     11  N   UNL     1       3.303   6.550  19.284  0.00  0.00    +0.000 N 
ATOM     12  C   UNL     1       2.105   6.979  19.845  0.00  0.00    +0.000 C 
ATOM     13  O   UNL     1       1.419   6.266  20.577  0.00  0.00    +0.000 OA
ATOM     14  C   UNL     1       4.031   7.191  18.189  0.00  0.00    +0.000 C 
ATOM     15  C   UNL     1       4.244   6.236  16.998  0.00  0.00    +0.000 C 
ATOM     16  N   UNL     1       4.818   4.936  17.388  0.00  0.00    +0.000 NA
BRANCH  16  17
ATOM     17  C   UNL     1       5.014   4.041  16.242  0.00  0.00    +0.000 C 
BRANCH  17  18
ATOM     18  C   UNL     1       5.554   4.762  15.039  0.00  0.00    +0.000 C 
ATOM     19  C   UNL     1       7.026   4.764  14.700  0.00  0.00    +0.000 C 
ATOM     20  C   UNL     1       6.062   3.988  13.848  0.00  0.00    +0.000 C 
ENDBRANCH  17  18
ENDBRANCH  16  17
ENDBRANCH   1  12
BRANCH   3  21
ATOM     21  C   UNL     1       1.076  11.654  21.426  0.00  0.00    +0.000 C 
BRANCH  21  22
ATOM     22  N   UNL     1      -0.266  11.935  21.930  0.00  0.00    +0.000 N 
ATOM     23  C   UNL     1      -0.756  11.075  22.904  0.00  0.00    +0.000 A 
ATOM     24  O   UNL     1      -0.107  10.153  23.399  0.00  0.00    +0.000 OA
ATOM     25  N   UNL     1      -2.038  11.276  23.321  0.00  0.00    +0.000 N 
ATOM     26  C   UNL     1      -2.908  12.225  22.871  0.00  0.00    +0.000 A 
ATOM     27  O   UNL     1      -4.082  12.251  23.218  0.00  0.00    +0.000 OA
ATOM     28  C   UNL     1      -2.346  13.218  21.943  0.00  0.00    +0.000 A 
ATOM     29  C   UNL     1      -3.132  14.320  21.572  0.00  0.00    +0.000 A 
ATOM     30  C   UNL     1      -2.612  15.283  20.715  0.00  0.00    +0.000 A 
ATOM     31  C   UNL     1      -1.322  15.128  20.217  0.00  0.00    +0.000 A 
ATOM     32  C   UNL     1      -0.544  14.019  20.585  0.00  0.00    +0.000 A 
ATOM     33  C   UNL     1      -1.038  13.049  21.470  0.00  0.00    +0.000 A 
ATOM     34  H   UNL     1      -2.395  10.609  23.989  0.00  0.00    +0.000 HD
ENDBRANCH  21  22
ENDBRANCH   3  21
TORSDOF 5
ENDMDL
MODEL 8
REMARK VINA RESULT:      -7.7      3.022      9.517
REMARK  Name = 
REMARK  6 active torsions:
REMARK  status: ('A' for Active; 'I' for Inactive)
REMARK    1  A    between atoms: C_1  and  C_2
REMARK    2  A    between atoms: C_5  and  C_7
REMARK    3  A    between atoms: C_9  and  C_10
REMARK    4  A    between atoms: C_10  and  N_11
REMARK    5  A    between atoms: N_29  and  C_30
REMARK    6  A    between atoms: C_30  and  C_31
REMARK                            x       y       z     vdW  Elec       q    Type
REMARK                         _______ _______ _______ _____ _____    ______ ____
ROOT
ATOM      1  C   UNL     1       2.453   6.628  19.442  0.00  0.00    +0.000 A 
ATOM      2  C   UNL     1       2.288   7.741  18.602  0.00  0.00    +0.000 A 
ATOM      3  C   UNL     1       1.595   8.887  19.045  0.00  0.00    +0.000 A 
ATOM      4  C   UNL     1       1.088   8.900  20.352  0.00  0.00    +0.000 A 
ATOM      5  C   UNL     1       1.226   7.784  21.178  0.00  0.00    +0.000 A 
ATOM      6  C   UNL     1       1.876   6.647  20.710  0.00  0.00    +0.000 A 
ATOM      7  F   UNL     1       1.939   5.581  21.521  0.00  0.00    +0.000 F 
ENDROOT
BRANCH   1  12
ATOM      8  C   UNL     1       3.799   3.800  15.692  0.00  0.00    +0.000 C 
ATOM      9  C   UNL     1       5.172   4.216  16.249  0.00  0.00    +0.000 C 
ATOM     10  C   UNL     1       5.072   4.357  17.792  0.00  0.00    +0.000 C 
ATOM     11  N   UNL     1       4.317   5.552  18.174  0.00  0.00    +0.000 N 
ATOM     12  C   UNL     1       3.157   5.425  18.930  0.00  0.00    +0.000 C 
ATOM     13  O   UNL     1       2.648   4.334  19.189  0.00  0.00    +0.000 OA
ATOM     14  C   UNL     1       4.832   6.781  17.569  0.00  0.00    +0.000 C 
ATOM     15  C   UNL     1       5.001   6.648  16.043  0.00  0.00    +0.000 C 
ATOM     16  N   UNL     1       5.758   5.448  15.642  0.00  0.00    +0.000 NA
BRANCH  16  17
ATOM     17  C   UNL     1       5.909   5.339  14.187  0.00  0.00    +0.000 C 
BRANCH  17  18
ATOM     18  C   UNL     1       6.372   3.973  13.761  0.00  0.00    +0.000 C 
ATOM     19  C   UNL     1       5.738   3.238  12.604  0.00  0.00    +0.000 C 
ATOM     20  C   UNL     1       7.129   3.792  12.470  0.00  0.00    +0.000 C 
ENDBRANCH  17  18
ENDBRANCH  16  17
ENDBRANCH   1  12
BRANCH   3  21
ATOM     21  C   UNL     1       1.403  10.082  18.126  0.00  0.00    +0.000 C 
BRANCH  21  22
ATOM     22  N   UNL     1       0.376  11.006  18.601  0.00  0.00    +0.000 N 
ATOM     23  C   UNL     1       0.815  12.092  19.347  0.00  0.00    +0.000 A 
ATOM     24  O   UNL     1       1.999  12.345  19.564  0.00  0.00    +0.000 OA
ATOM     25  N   UNL     1      -0.141  12.913  19.867  0.00  0.00    +0.000 N 
ATOM     26  C   UNL     1      -1.493  12.775  19.751  0.00  0.00    +0.000 A 
ATOM     27  O   UNL     1      -2.276  13.496  20.357  0.00  0.00    +0.000 OA
ATOM     28  C   UNL     1      -1.952  11.708  18.850  0.00  0.00    +0.000 A 
ATOM     29  C   UNL     1      -3.319  11.616  18.550  0.00  0.00    +0.000 A 
ATOM     30  C   UNL     1      -3.771  10.629  17.681  0.00  0.00    +0.000 A 
ATOM     31  C   UNL     1      -2.860   9.728  17.138  0.00  0.00    +0.000 A 
ATOM     32  C   UNL     1      -1.495   9.821  17.450  0.00  0.00    +0.000 A 
ATOM     33  C   UNL     1      -1.012  10.825  18.302  0.00  0.00    +0.000 A 
ATOM     34  H   UNL     1       0.193  13.665  20.451  0.00  0.00    +0.000 HD
ENDBRANCH  21  22
ENDBRANCH   3  21
TORSDOF 5
ENDMDL
MODEL 9
REMARK VINA RESULT:      -7.6      5.964      9.880
REMARK  Name = 
REMARK  6 active torsions:
REMARK  status: ('A' for Active; 'I' for Inactive)
REMARK    1  A    between atoms: C_1  and  C_2
REMARK    2  A    between atoms: C_5  and  C_7
REMARK    3  A    between atoms: C_9  and  C_10
REMARK    4  A    between atoms: C_10  and  N_11
REMARK    5  A    between atoms: N_29  and  C_30
REMARK    6  A    between atoms: C_30  and  C_31
REMARK                            x       y       z     vdW  Elec       q    Type
REMARK                         _______ _______ _______ _____ _____    ______ ____
ROOT
ATOM      1  C   UNL     1      -2.761  11.324  18.423  0.00  0.00    +0.000 A 
ATOM      2  C   UNL     1      -3.851  12.014  18.978  0.00  0.00    +0.000 A 
ATOM      3  C   UNL     1      -5.021  12.248  18.226  0.00  0.00    +0.000 A 
ATOM      4  C   UNL     1      -5.082  11.759  16.913  0.00  0.00    +0.000 A 
ATOM      5  C   UNL     1      -3.990  11.099  16.349  0.00  0.00    +0.000 A 
ATOM      6  C   UNL     1      -2.829  10.914  17.093  0.00  0.00    +0.000 A 
ATOM      7  F   UNL     1      -1.786  10.320  16.493  0.00  0.00    +0.000 F 
ENDROOT
BRANCH   1  12
ATOM      8  C   UNL     1       2.070  11.819  18.953  0.00  0.00    +0.000 C 
ATOM      9  C   UNL     1       1.561  12.642  20.150  0.00  0.00    +0.000 C 
ATOM     10  C   UNL     1       0.259  11.994  20.695  0.00  0.00    +0.000 C 
ATOM     11  N   UNL     1      -0.870  12.216  19.790  0.00  0.00    +0.000 N 
ATOM     12  C   UNL     1      -1.532  11.127  19.233  0.00  0.00    +0.000 C 
ATOM     13  O   UNL     1      -1.132   9.969  19.357  0.00  0.00    +0.000 OA
ATOM     14  C   UNL     1      -1.085  13.626  19.464  0.00  0.00    +0.000 C 
ATOM     15  C   UNL     1       0.208  14.311  18.980  0.00  0.00    +0.000 C 
ATOM     16  N   UNL     1       1.355  14.097  19.880  0.00  0.00    +0.000 NA
BRANCH  16  17
ATOM     17  C   UNL     1       2.575  14.757  19.404  0.00  0.00    +0.000 C 
BRANCH  17  18
ATOM     18  C   UNL     1       2.385  15.413  18.065  0.00  0.00    +0.000 C 
ATOM     19  C   UNL     1       2.702  16.872  17.835  0.00  0.00    +0.000 C 
ATOM     20  C   UNL     1       3.578  15.810  17.232  0.00  0.00    +0.000 C 
ENDBRANCH  17  18
ENDBRANCH  16  17
ENDBRANCH   1  12
BRANCH   3  21
ATOM     21  C   UNL     1      -6.191  13.011  18.825  0.00  0.00    +0.000 C 
BRANCH  21  22
ATOM     22  N   UNL     1      -6.493  12.605  20.195  0.00  0.00    +0.000 N 
ATOM     23  C   UNL     1      -7.124  11.378  20.353  0.00  0.00    +0.000 A 
ATOM     24  O   UNL     1      -7.373  10.607  19.427  0.00  0.00    +0.000 OA
ATOM     25  N   UNL     1      -7.488  11.027  21.619  0.00  0.00    +0.000 N 
ATOM     26  C   UNL     1      -7.317  11.762  22.755  0.00  0.00    +0.000 A 
ATOM     27  O   UNL     1      -7.787  11.416  23.832  0.00  0.00    +0.000 OA
ATOM     28  C   UNL     1      -6.528  12.994  22.607  0.00  0.00    +0.000 A 
ATOM     29  C   UNL     1      -6.167  13.710  23.759  0.00  0.00    +0.000 A 
ATOM     30  C   UNL     1      -5.402  14.865  23.642  0.00  0.00    +0.000 A 
ATOM     31  C   UNL     1      -5.023  15.308  22.380  0.00  0.00    +0.000 A 
ATOM     32  C   UNL     1      -5.394  14.592  21.232  0.00  0.00    +0.000 A 
ATOM     33  C   UNL     1      -6.143  13.409  21.326  0.00  0.00    +0.000 A 
ATOM     34  H   UNL     1      -7.993  10.158  21.709  0.00  0.00    +0.000 HD
ENDBRANCH  21  22
ENDBRANCH   3  21
TORSDOF 5
ENDMDL
