MODEL 1
REMARK VINA RESULT:     -10.0      0.000      0.000
REMARK  Name = 
REMARK  5 active torsions:
REMARK  status: ('A' for Active; 'I' for Inactive)
REMARK    1  A    between atoms: C_2  and  C_3
REMARK    2  A    between atoms: C_21  and  C_22
REMARK    3  A    between atoms: C_22  and  O_23
REMARK    4  A    between atoms: C_22  and  C_24
REMARK    5  A    between atoms: C_22  and  C_28
REMARK                            x       y       z     vdW  Elec       q    Type
REMARK                         _______ _______ _______ _____ _____    ______ ____
ROOT
ATOM      1  O   UNL     1       6.123   5.914  15.641  0.00  0.00    +0.000 OA
ATOM      2  C   UNL     1       6.064   6.032  16.859  0.00  0.00    +0.000 C 
ATOM      3  N   UNL     1       5.110   5.339  17.629  0.00  0.00    +0.000 N 
ATOM      4  C   UNL     1       5.027   5.359  19.084  0.00  0.00    +0.000 C 
ATOM      5  C   UNL     1       4.859   3.970  19.668  0.00  0.00    +0.000 C 
ATOM      6  C   UNL     1       3.682   3.180  19.069  0.00  0.00    +0.000 C 
ATOM      7  C   UNL     1       3.843   3.223  17.527  0.00  0.00    +0.000 C 
ATOM      8  C   UNL     1       4.046   4.623  16.939  0.00  0.00    +0.000 C 
ENDROOT
BRANCH   2   9
ATOM      9  C   UNL     1       7.018   6.876  17.561  0.00  0.00    +0.000 A 
ATOM     10  C   UNL     1       7.872   6.599  18.650  0.00  0.00    +0.000 A 
ATOM     11  N   UNL     1       8.667   7.619  18.962  0.00  0.00    +0.000 NA
ATOM     12  N   UNL     1       8.220   8.656  18.192  0.00  0.00    +0.000 N 
ATOM     13  C   UNL     1       8.690   9.946  18.401  0.00  0.00    +0.000 A 
ATOM     14  N   UNL     1       8.372  10.964  17.653  0.00  0.00    +0.000 NA
ATOM     15  N   UNL     1       8.850  12.128  18.158  0.00  0.00    +0.000 N 
ATOM     16  C   UNL     1       8.882  13.340  17.524  0.00  0.00    +0.000 A 
ATOM     17  C   UNL     1       9.346  14.284  18.425  0.00  0.00    +0.000 A 
ATOM     18  C   UNL     1       9.599  13.613  19.643  0.00  0.00    +0.000 A 
ATOM     19  C   UNL     1       9.352  12.278  19.419  0.00  0.00    +0.000 A 
ATOM     20  C   UNL     1       9.507  11.133  20.234  0.00  0.00    +0.000 A 
ATOM     21  O   UNL     1       9.610  11.145  21.457  0.00  0.00    +0.000 OA
ATOM     22  N   UNL     1       9.493   9.975  19.513  0.00  0.00    +0.000 N 
ATOM     23  C   UNL     1       7.237   8.217  17.313  0.00  0.00    +0.000 A 
ATOM     24  H   UNL     1      10.433   9.732  19.257  0.00  0.00    +0.000 HD
ENDBRANCH   2   9
BRANCH   6  25
ATOM     25  C   UNL     1       2.262   3.567  19.645  0.00  0.00    +0.000 C 
BRANCH  25  26
ATOM     26  C   UNL     1       1.146   2.800  18.908  0.00  0.00    +0.000 C 
ATOM     27  F   UNL     1       1.483   1.523  18.630  0.00  0.00    +0.000 F 
ATOM     28  F   UNL     1      -0.061   2.777  19.496  0.00  0.00    +0.000 F 
ATOM     29  F   UNL     1       0.951   3.416  17.702  0.00  0.00    +0.000 F 
ENDBRANCH  25  26
BRANCH  25  30
ATOM     30  C   UNL     1       2.169   3.263  21.164  0.00  0.00    +0.000 C 
ATOM     31  F   UNL     1       3.091   2.354  21.565  0.00  0.00    +0.000 F 
ATOM     32  F   UNL     1       2.414   4.389  21.886  0.00  0.00    +0.000 F 
ATOM     33  F   UNL     1       0.985   2.798  21.598  0.00  0.00    +0.000 F 
ENDBRANCH  25  30
BRANCH  25  34
ATOM     34  O   UNL     1       2.108   5.008  19.414  0.00  0.00    +0.000 OA
ATOM     35  H   UNL     1       2.945   5.452  19.665  0.00  0.00    +0.000 HD
ENDBRANCH  25  34
ENDBRANCH   6  25
TORSDOF 5
ENDMDL
MODEL 2
REMARK VINA RESULT:      -9.6      0.790      1.187
REMARK  Name = 
REMARK  5 active torsions:
REMARK  status: ('A' for Active; 'I' for Inactive)
REMARK    1  A    between atoms: C_2  and  C_3
REMARK    2  A    between atoms: C_21  and  C_22
REMARK    3  A    between atoms: C_22  and  O_23
REMARK    4  A    between atoms: C_22  and  C_24
REMARK    5  A    between atoms: C_22  and  C_28
REMARK                            x       y       z     vdW  Elec       q    Type
REMARK                         _______ _______ _______ _____ _____    ______ ____
ROOT
ATOM      1  O   UNL     1       6.547   5.733  15.580  0.00  0.00    +0.000 OA
ATOM      2  C   UNL     1       6.319   5.938  16.766  0.00  0.00    +0.000 C 
ATOM      3  N   UNL     1       5.241   5.325  17.433  0.00  0.00    +0.000 N 
ATOM      4  C   UNL     1       4.951   5.451  18.856  0.00  0.00    +0.000 C 
ATOM      5  C   UNL     1       4.653   4.111  19.501  0.00  0.00    +0.000 C 
ATOM      6  C   UNL     1       3.548   3.310  18.791  0.00  0.00    +0.000 C 
ATOM      7  C   UNL     1       3.929   3.239  17.290  0.00  0.00    +0.000 C 
ATOM      8  C   UNL     1       4.262   4.589  16.646  0.00  0.00    +0.000 C 
ENDROOT
BRANCH   2   9
ATOM      9  C   UNL     1       7.191   6.806  17.542  0.00  0.00    +0.000 A 
ATOM     10  C   UNL     1       7.939   6.559  18.712  0.00  0.00    +0.000 A 
ATOM     11  N   UNL     1       8.689   7.594  19.081  0.00  0.00    +0.000 NA
ATOM     12  N   UNL     1       8.307   8.612  18.254  0.00  0.00    +0.000 N 
ATOM     13  C   UNL     1       8.740   9.911  18.484  0.00  0.00    +0.000 A 
ATOM     14  N   UNL     1       8.483  10.912  17.691  0.00  0.00    +0.000 NA
ATOM     15  N   UNL     1       8.897  12.090  18.219  0.00  0.00    +0.000 N 
ATOM     16  C   UNL     1       8.977  13.292  17.569  0.00  0.00    +0.000 A 
ATOM     17  C   UNL     1       9.342  14.257  18.494  0.00  0.00    +0.000 A 
ATOM     18  C   UNL     1       9.484  13.610  19.742  0.00  0.00    +0.000 A 
ATOM     19  C   UNL     1       9.275  12.268  19.519  0.00  0.00    +0.000 A 
ATOM     20  C   UNL     1       9.363  11.139  20.366  0.00  0.00    +0.000 A 
ATOM     21  O   UNL     1       9.348  11.172  21.593  0.00  0.00    +0.000 OA
ATOM     22  N   UNL     1       9.432   9.968  19.668  0.00  0.00    +0.000 N 
ATOM     23  C   UNL     1       7.418   8.146  17.292  0.00  0.00    +0.000 A 
ATOM     24  H   UNL     1      10.395   9.734  19.507  0.00  0.00    +0.000 HD
ENDBRANCH   2   9
BRANCH   6  25
ATOM     25  C   UNL     1       2.074   3.772  19.129  0.00  0.00    +0.000 C 
BRANCH  25  26
ATOM     26  C   UNL     1       1.229   2.581  19.623  0.00  0.00    +0.000 C 
ATOM     27  F   UNL     1       1.689   1.391  19.180  0.00  0.00    +0.000 F 
ATOM     28  F   UNL     1       1.053   2.474  20.949  0.00  0.00    +0.000 F 
ATOM     29  F   UNL     1      -0.028   2.724  19.100  0.00  0.00    +0.000 F 
ENDBRANCH  25  26
BRANCH  25  30
ATOM     30  C   UNL     1       2.066   4.883  20.211  0.00  0.00    +0.000 C 
ATOM     31  F   UNL     1       0.824   5.119  20.699  0.00  0.00    +0.000 F 
ATOM     32  F   UNL     1       2.823   4.509  21.277  0.00  0.00    +0.000 F 
ATOM     33  F   UNL     1       2.540   6.081  19.826  0.00  0.00    +0.000 F 
ENDBRANCH  25  30
BRANCH  25  34
ATOM     34  O   UNL     1       1.513   4.290  17.875  0.00  0.00    +0.000 OA
ATOM     35  H   UNL     1       2.233   4.723  17.372  0.00  0.00    +0.000 HD
ENDBRANCH  25  34
ENDBRANCH   6  25
TORSDOF 5
ENDMDL
MODEL 3
REMARK VINA RESULT:      -9.0      0.989      1.872
REMARK  Name = 
REMARK  5 active torsions:
REMARK  status: ('A' for Active; 'I' for Inactive)
REMARK    1  A    between atoms: C_2  and  C_3
REMARK    2  A    between atoms: C_21  and  C_22
REMARK    3  A    between atoms: C_22  and  O_23
REMARK    4  A    between atoms: C_22  and  C_24
REMARK    5  A    between atoms: C_22  and  C_28
REMARK                            x       y       z     vdW  Elec       q    Type
REMARK                         _______ _______ _______ _____ _____    ______ ____
ROOT
ATOM      1  O   UNL     1       6.088   5.342  15.672  0.00  0.00    +0.000 OA
ATOM      2  C   UNL     1       6.012   5.476  16.888  0.00  0.00    +0.000 C 
ATOM      3  N   UNL     1       5.072   4.762  17.657  0.00  0.00    +0.000 N 
ATOM      4  C   UNL     1       4.971   4.801  19.111  0.00  0.00    +0.000 C 
ATOM      5  C   UNL     1       4.843   3.416  19.714  0.00  0.00    +0.000 C 
ATOM      6  C   UNL     1       3.701   2.578  19.114  0.00  0.00    +0.000 C 
ATOM      7  C   UNL     1       3.878   2.604  17.574  0.00  0.00    +0.000 C 
ATOM      8  C   UNL     1       4.040   4.002  16.967  0.00  0.00    +0.000 C 
ENDROOT
BRANCH   2   9
ATOM      9  C   UNL     1       6.929   6.362  17.588  0.00  0.00    +0.000 A 
ATOM     10  C   UNL     1       7.740   6.145  18.721  0.00  0.00    +0.000 A 
ATOM     11  N   UNL     1       8.512   7.187  19.018  0.00  0.00    +0.000 NA
ATOM     12  N   UNL     1       8.088   8.182  18.183  0.00  0.00    +0.000 N 
ATOM     13  C   UNL     1       8.537   9.485  18.351  0.00  0.00    +0.000 A 
ATOM     14  N   UNL     1       8.240  10.464  17.545  0.00  0.00    +0.000 NA
ATOM     15  N   UNL     1       8.686  11.655  18.014  0.00  0.00    +0.000 N 
ATOM     16  C   UNL     1       8.733  12.837  17.325  0.00  0.00    +0.000 A 
ATOM     17  C   UNL     1       9.152  13.827  18.200  0.00  0.00    +0.000 A 
ATOM     18  C   UNL     1       9.362  13.215  19.457  0.00  0.00    +0.000 A 
ATOM     19  C   UNL     1       9.136  11.868  19.285  0.00  0.00    +0.000 A 
ATOM     20  C   UNL     1       9.268  10.765  20.159  0.00  0.00    +0.000 A 
ATOM     21  O   UNL     1       9.322  10.833  21.383  0.00  0.00    +0.000 OA
ATOM     22  N   UNL     1       9.294   9.574  19.492  0.00  0.00    +0.000 N 
ATOM     23  C   UNL     1       7.145   7.693  17.287  0.00  0.00    +0.000 A 
ATOM     24  H   UNL     1      10.246   9.330  19.285  0.00  0.00    +0.000 HD
ENDBRANCH   2   9
BRANCH   6  25
ATOM     25  C   UNL     1       2.262   2.926  19.669  0.00  0.00    +0.000 C 
BRANCH  25  26
ATOM     26  C   UNL     1       2.275   3.004  21.209  0.00  0.00    +0.000 C 
ATOM     27  F   UNL     1       3.175   2.168  21.769  0.00  0.00    +0.000 F 
ATOM     28  F   UNL     1       2.464   4.218  21.750  0.00  0.00    +0.000 F 
ATOM     29  F   UNL     1       1.046   2.596  21.651  0.00  0.00    +0.000 F 
ENDBRANCH  25  26
BRANCH  25  30
ATOM     30  C   UNL     1       1.748   4.273  19.097  0.00  0.00    +0.000 C 
ATOM     31  F   UNL     1       1.439   4.190  17.779  0.00  0.00    +0.000 F 
ATOM     32  F   UNL     1       0.601   4.646  19.727  0.00  0.00    +0.000 F 
ATOM     33  F   UNL     1       2.586   5.317  19.210  0.00  0.00    +0.000 F 
ENDBRANCH  25  30
BRANCH  25  34
ATOM     34  O   UNL     1       1.384   1.831  19.237  0.00  0.00    +0.000 OA
ATOM     35  H   UNL     1       1.564   1.647  18.291  0.00  0.00    +0.000 HD
ENDBRANCH  25  34
ENDBRANCH   6  25
TORSDOF 5
ENDMDL
MODEL 4
REMARK VINA RESULT:      -8.6      0.978      1.908
REMARK  Name = 
REMARK  5 active torsions:
REMARK  status: ('A' for Active; 'I' for Inactive)
REMARK    1  A    between atoms: C_2  and  C_3
REMARK    2  A    between atoms: C_21  and  C_22
REMARK    3  A    between atoms: C_22  and  O_23
REMARK    4  A    between atoms: C_22  and  C_24
REMARK    5  A    between atoms: C_22  and  C_28
REMARK                            x       y       z     vdW  Elec       q    Type
REMARK                         _______ _______ _______ _____ _____    ______ ____
ROOT
ATOM      1  O   UNL     1       6.087   6.116  15.535  0.00  0.00    +0.000 OA
ATOM      2  C   UNL     1       6.069   6.134  16.760  0.00  0.00    +0.000 C 
ATOM      3  N   UNL     1       5.169   5.345  17.502  0.00  0.00    +0.000 N 
ATOM      4  C   UNL     1       5.138   5.245  18.956  0.00  0.00    +0.000 C 
ATOM      5  C   UNL     1       5.040   3.808  19.430  0.00  0.00    +0.000 C 
ATOM      6  C   UNL     1       3.870   3.026  18.808  0.00  0.00    +0.000 C 
ATOM      7  C   UNL     1       3.972   3.199  17.271  0.00  0.00    +0.000 C 
ATOM      8  C   UNL     1       4.105   4.649  16.793  0.00  0.00    +0.000 C 
ENDROOT
BRANCH   2   9
ATOM      9  C   UNL     1       7.019   6.953  17.497  0.00  0.00    +0.000 A 
ATOM     10  C   UNL     1       7.848   6.646  18.595  0.00  0.00    +0.000 A 
ATOM     11  N   UNL     1       8.648   7.652  18.942  0.00  0.00    +0.000 NA
ATOM     12  N   UNL     1       8.227   8.708  18.184  0.00  0.00    +0.000 N 
ATOM     13  C   UNL     1       8.707   9.988  18.427  0.00  0.00    +0.000 A 
ATOM     14  N   UNL     1       8.413  11.024  17.693  0.00  0.00    +0.000 NA
ATOM     15  N   UNL     1       8.894  12.172  18.230  0.00  0.00    +0.000 N 
ATOM     16  C   UNL     1       8.951  13.396  17.619  0.00  0.00    +0.000 A 
ATOM     17  C   UNL     1       9.408  14.318  18.547  0.00  0.00    +0.000 A 
ATOM     18  C   UNL     1       9.631  13.621  19.757  0.00  0.00    +0.000 A 
ATOM     19  C   UNL     1       9.374  12.293  19.502  0.00  0.00    +0.000 A 
ATOM     20  C   UNL     1       9.501  11.131  20.298  0.00  0.00    +0.000 A 
ATOM     21  O   UNL     1       9.581  11.118  21.523  0.00  0.00    +0.000 OA
ATOM     22  N   UNL     1       9.489   9.987  19.555  0.00  0.00    +0.000 N 
ATOM     23  C   UNL     1       7.257   8.297  17.278  0.00  0.00    +0.000 A 
ATOM     24  H   UNL     1      10.431   9.738  19.311  0.00  0.00    +0.000 HD
ENDBRANCH   2   9
BRANCH   6  25
ATOM     25  C   UNL     1       2.460   3.311  19.463  0.00  0.00    +0.000 C 
BRANCH  25  26
ATOM     26  C   UNL     1       2.288   4.815  19.755  0.00  0.00    +0.000 C 
ATOM     27  F   UNL     1       3.184   5.281  20.651  0.00  0.00    +0.000 F 
ATOM     28  F   UNL     1       2.311   5.642  18.698  0.00  0.00    +0.000 F 
ATOM     29  F   UNL     1       1.055   4.985  20.323  0.00  0.00    +0.000 F 
ENDBRANCH  25  26
BRANCH  25  30
ATOM     30  C   UNL     1       1.305   2.838  18.541  0.00  0.00    +0.000 C 
ATOM     31  F   UNL     1       0.958   3.777  17.627  0.00  0.00    +0.000 F 
ATOM     32  F   UNL     1       1.688   1.745  17.828  0.00  0.00    +0.000 F 
ATOM     33  F   UNL     1       0.163   2.492  19.160  0.00  0.00    +0.000 F 
ENDBRANCH  25  30
BRANCH  25  34
ATOM     34  O   UNL     1       2.435   2.557  20.722  0.00  0.00    +0.000 OA
ATOM     35  H   UNL     1       1.506   2.317  20.919  0.00  0.00    +0.000 HD
ENDBRANCH  25  34
ENDBRANCH   6  25
TORSDOF 5
ENDMDL
MODEL 5
REMARK VINA RESULT:      -8.4      6.938      7.811
REMARK  Name = 
REMARK  5 active torsions:
REMARK  status: ('A' for Active; 'I' for Inactive)
REMARK    1  A    between atoms: C_2  and  C_3
REMARK    2  A    between atoms: C_21  and  C_22
REMARK    3  A    between atoms: C_22  and  O_23
REMARK    4  A    between atoms: C_22  and  C_24
REMARK    5  A    between atoms: C_22  and  C_28
REMARK                            x       y       z     vdW  Elec       q    Type
REMARK                         _______ _______ _______ _____ _____    ______ ____
ROOT
ATOM      1  O   UNL     1       2.152   9.535  18.530  0.00  0.00    +0.000 OA
ATOM      2  C   UNL     1       1.674   8.766  19.356  0.00  0.00    +0.000 C 
ATOM      3  N   UNL     1       1.947   7.385  19.331  0.00  0.00    +0.000 N 
ATOM      4  C   UNL     1       1.488   6.418  20.320  0.00  0.00    +0.000 C 
ATOM      5  C   UNL     1       2.598   5.491  20.775  0.00  0.00    +0.000 C 
ATOM      6  C   UNL     1       3.329   4.781  19.621  0.00  0.00    +0.000 C 
ATOM      7  C   UNL     1       3.766   5.877  18.616  0.00  0.00    +0.000 C 
ATOM      8  C   UNL     1       2.652   6.835  18.181  0.00  0.00    +0.000 C 
ENDROOT
BRANCH   2   9
ATOM      9  C   UNL     1       0.826   9.270  20.425  0.00  0.00    +0.000 A 
ATOM     10  C   UNL     1      -0.119   8.616  21.242  0.00  0.00    +0.000 A 
ATOM     11  N   UNL     1      -0.640   9.409  22.174  0.00  0.00    +0.000 NA
ATOM     12  N   UNL     1      -0.175  10.657  21.869  0.00  0.00    +0.000 N 
ATOM     13  C   UNL     1      -0.678  11.778  22.516  0.00  0.00    +0.000 A 
ATOM     14  N   UNL     1      -0.224  12.985  22.335  0.00  0.00    +0.000 NA
ATOM     15  N   UNL     1      -0.982  13.909  22.975  0.00  0.00    +0.000 N 
ATOM     16  C   UNL     1      -0.669  15.227  23.170  0.00  0.00    +0.000 A 
ATOM     17  C   UNL     1      -1.756  15.842  23.770  0.00  0.00    +0.000 A 
ATOM     18  C   UNL     1      -2.755  14.856  23.939  0.00  0.00    +0.000 A 
ATOM     19  C   UNL     1      -2.216  13.666  23.506  0.00  0.00    +0.000 A 
ATOM     20  C   UNL     1      -2.712  12.342  23.508  0.00  0.00    +0.000 A 
ATOM     21  O   UNL     1      -3.893  12.029  23.624  0.00  0.00    +0.000 OA
ATOM     22  N   UNL     1      -1.725  11.417  23.326  0.00  0.00    +0.000 N 
ATOM     23  C   UNL     1       0.741  10.590  20.826  0.00  0.00    +0.000 A 
ATOM     24  H   UNL     1      -1.374  11.125  24.221  0.00  0.00    +0.000 HD
ENDBRANCH   2   9
BRANCH   6  25
ATOM     25  C   UNL     1       2.566   3.532  19.023  0.00  0.00    +0.000 C 
BRANCH  25  26
ATOM     26  C   UNL     1       3.540   2.612  18.260  0.00  0.00    +0.000 C 
ATOM     27  F   UNL     1       2.907   1.670  17.528  0.00  0.00    +0.000 F 
ATOM     28  F   UNL     1       4.432   3.211  17.456  0.00  0.00    +0.000 F 
ATOM     29  F   UNL     1       4.283   1.939  19.191  0.00  0.00    +0.000 F 
ENDBRANCH  25  26
BRANCH  25  30
ATOM     30  C   UNL     1       1.863   2.714  20.138  0.00  0.00    +0.000 C 
ATOM     31  F   UNL     1       0.688   3.270  20.523  0.00  0.00    +0.000 F 
ATOM     32  F   UNL     1       1.557   1.468  19.687  0.00  0.00    +0.000 F 
ATOM     33  F   UNL     1       2.569   2.534  21.267  0.00  0.00    +0.000 F 
ENDBRANCH  25  30
BRANCH  25  34
ATOM     34  O   UNL     1       1.566   4.073  18.094  0.00  0.00    +0.000 OA
ATOM     35  H   UNL     1       0.675   3.855  18.438  0.00  0.00    +0.000 HD
ENDBRANCH  25  34
ENDBRANCH   6  25
TORSDOF 5
ENDMDL
MODEL 6
REMARK VINA RESULT:      -8.4      0.812      1.340
REMARK  Name = 
REMARK  5 active torsions:
REMARK  status: ('A' for Active; 'I' for Inactive)
REMARK    1  A    between atoms: C_2  and  C_3
REMARK    2  A    between atoms: C_21  and  C_22
REMARK    3  A    between atoms: C_22  and  O_23
REMARK    4  A    between atoms: C_22  and  C_24
REMARK    5  A    between atoms: C_22  and  C_28
REMARK                            x       y       z     vdW  Elec       q    Type
REMARK                         _______ _______ _______ _____ _____    ______ ____
ROOT
ATOM      1  O   UNL     1       6.982   5.906  15.641  0.00  0.00    +0.000 OA
ATOM      2  C   UNL     1       6.703   6.080  16.822  0.00  0.00    +0.000 C 
ATOM      3  N   UNL     1       5.644   5.393  17.445  0.00  0.00    +0.000 N 
ATOM      4  C   UNL     1       5.300   5.480  18.859  0.00  0.00    +0.000 C 
ATOM      5  C   UNL     1       5.064   4.115  19.476  0.00  0.00    +0.000 C 
ATOM      6  C   UNL     1       4.033   3.259  18.720  0.00  0.00    +0.000 C 
ATOM      7  C   UNL     1       4.466   3.234  17.231  0.00  0.00    +0.000 C 
ATOM      8  C   UNL     1       4.737   4.611  16.616  0.00  0.00    +0.000 C 
ENDROOT
BRANCH   2   9
ATOM      9  C   UNL     1       7.496   6.987  17.637  0.00  0.00    +0.000 A 
ATOM     10  C   UNL     1       8.171   6.783  18.858  0.00  0.00    +0.000 A 
ATOM     11  N   UNL     1       8.862   7.847  19.257  0.00  0.00    +0.000 NA
ATOM     12  N   UNL     1       8.506   8.838  18.387  0.00  0.00    +0.000 N 
ATOM     13  C   UNL     1       8.884  10.154  18.620  0.00  0.00    +0.000 A 
ATOM     14  N   UNL     1       8.651  11.134  17.793  0.00  0.00    +0.000 NA
ATOM     15  N   UNL     1       8.994  12.332  18.325  0.00  0.00    +0.000 N 
ATOM     16  C   UNL     1       9.081  13.526  17.659  0.00  0.00    +0.000 A 
ATOM     17  C   UNL     1       9.354  14.517  18.588  0.00  0.00    +0.000 A 
ATOM     18  C   UNL     1       9.431  13.895  19.855  0.00  0.00    +0.000 A 
ATOM     19  C   UNL     1       9.278  12.544  19.644  0.00  0.00    +0.000 A 
ATOM     20  C   UNL     1       9.343  11.433  20.516  0.00  0.00    +0.000 A 
ATOM     21  O   UNL     1       9.245  11.486  21.738  0.00  0.00    +0.000 OA
ATOM     22  N   UNL     1       9.494  10.253  19.846  0.00  0.00    +0.000 N 
ATOM     23  C   UNL     1       7.698   8.329  17.377  0.00  0.00    +0.000 A 
ATOM     24  H   UNL     1      10.472  10.046  19.754  0.00  0.00    +0.000 HD
ENDBRANCH   2   9
BRANCH   6  25
ATOM     25  C   UNL     1       2.524   3.626  19.014  0.00  0.00    +0.000 C 
BRANCH  25  26
ATOM     26  C   UNL     1       1.816   4.098  17.728  0.00  0.00    +0.000 C 
ATOM     27  F   UNL     1       0.471   4.014  17.808  0.00  0.00    +0.000 F 
ATOM     28  F   UNL     1       2.116   5.332  17.292  0.00  0.00    +0.000 F 
ATOM     29  F   UNL     1       2.193   3.254  16.719  0.00  0.00    +0.000 F 
ENDBRANCH  25  26
BRANCH  25  30
ATOM     30  C   UNL     1       1.754   2.414  19.601  0.00  0.00    +0.000 C 
ATOM     31  F   UNL     1       2.071   1.252  18.981  0.00  0.00    +0.000 F 
ATOM     32  F   UNL     1       2.076   2.240  20.911  0.00  0.00    +0.000 F 
ATOM     33  F   UNL     1       0.412   2.495  19.560  0.00  0.00    +0.000 F 
ENDBRANCH  25  30
BRANCH  25  34
ATOM     34  O   UNL     1       2.554   4.721  19.992  0.00  0.00    +0.000 OA
ATOM     35  H   UNL     1       1.688   4.750  20.449  0.00  0.00    +0.000 HD
ENDBRANCH  25  34
ENDBRANCH   6  25
TORSDOF 5
ENDMDL
MODEL 7
REMARK VINA RESULT:      -8.3      7.201      8.385
REMARK  Name = 
REMARK  5 active torsions:
REMARK  status: ('A' for Active; 'I' for Inactive)
REMARK    1  A    between atoms: C_2  and  C_3
REMARK    2  A    between atoms: C_21  and  C_22
REMARK    3  A    between atoms: C_22  and  O_23
REMARK    4  A    between atoms: C_22  and  C_24
REMARK    5  A    between atoms: C_22  and  C_28
REMARK                            x       y       z     vdW  Elec       q    Type
REMARK                         _______ _______ _______ _____ _____    ______ ____
ROOT
ATOM      1  O   UNL     1       2.214  10.062  17.527  0.00  0.00    +0.000 OA
ATOM      2  C   UNL     1       1.742   9.479  18.497  0.00  0.00    +0.000 C 
ATOM      3  N   UNL     1       1.939   8.100  18.703  0.00  0.00    +0.000 N 
ATOM      4  C   UNL     1       1.485   7.350  19.867  0.00  0.00    +0.000 C 
ATOM      5  C   UNL     1       2.567   6.447  20.426  0.00  0.00    +0.000 C 
ATOM      6  C   UNL     1       3.191   5.503  19.383  0.00  0.00    +0.000 C 
ATOM      7  C   UNL     1       3.630   6.378  18.181  0.00  0.00    +0.000 C 
ATOM      8  C   UNL     1       2.546   7.315  17.637  0.00  0.00    +0.000 C 
ENDROOT
BRANCH   2   9
ATOM      9  C   UNL     1       0.986  10.213  19.499  0.00  0.00    +0.000 A 
ATOM     10  C   UNL     1       1.244  10.445  20.866  0.00  0.00    +0.000 A 
ATOM     11  N   UNL     1       0.346  11.243  21.439  0.00  0.00    +0.000 NA
ATOM     12  N   UNL     1      -0.626  11.407  20.493  0.00  0.00    +0.000 N 
ATOM     13  C   UNL     1      -1.828  12.023  20.814  0.00  0.00    +0.000 A 
ATOM     14  N   UNL     1      -2.763  12.286  19.946  0.00  0.00    +0.000 NA
ATOM     15  N   UNL     1      -3.885  12.757  20.543  0.00  0.00    +0.000 N 
ATOM     16  C   UNL     1      -4.964  13.325  19.920  0.00  0.00    +0.000 A 
ATOM     17  C   UNL     1      -5.934  13.567  20.878  0.00  0.00    +0.000 A 
ATOM     18  C   UNL     1      -5.419  13.128  22.119  0.00  0.00    +0.000 A 
ATOM     19  C   UNL     1      -4.131  12.704  21.885  0.00  0.00    +0.000 A 
ATOM     20  C   UNL     1      -3.112  12.240  22.749  0.00  0.00    +0.000 A 
ATOM     21  O   UNL     1      -3.288  11.820  23.889  0.00  0.00    +0.000 OA
ATOM     22  N   UNL     1      -1.880  12.269  22.163  0.00  0.00    +0.000 N 
ATOM     23  C   UNL     1      -0.242  10.812  19.297  0.00  0.00    +0.000 A 
ATOM     24  H   UNL     1      -1.438  13.149  22.362  0.00  0.00    +0.000 HD
ENDBRANCH   2   9
BRANCH   6  25
ATOM     25  C   UNL     1       2.329   4.221  19.050  0.00  0.00    +0.000 C 
BRANCH  25  26
ATOM     26  C   UNL     1       3.225   3.082  18.523  0.00  0.00    +0.000 C 
ATOM     27  F   UNL     1       2.520   2.080  17.954  0.00  0.00    +0.000 F 
ATOM     28  F   UNL     1       4.196   3.427  17.664  0.00  0.00    +0.000 F 
ATOM     29  F   UNL     1       3.868   2.534  19.599  0.00  0.00    +0.000 F 
ENDBRANCH  25  26
BRANCH  25  30
ATOM     30  C   UNL     1       1.556   3.721  20.300  0.00  0.00    +0.000 C 
ATOM     31  F   UNL     1       2.245   3.930  21.449  0.00  0.00    +0.000 F 
ATOM     32  F   UNL     1       0.387   4.402  20.435  0.00  0.00    +0.000 F 
ATOM     33  F   UNL     1       1.226   2.418  20.304  0.00  0.00    +0.000 F 
ENDBRANCH  25  30
BRANCH  25  34
ATOM     34  O   UNL     1       1.380   4.628  18.006  0.00  0.00    +0.000 OA
ATOM     35  H   UNL     1       1.706   5.459  17.602  0.00  0.00    +0.000 HD
ENDBRANCH  25  34
ENDBRANCH   6  25
TORSDOF 5
ENDMDL
MODEL 8
REMARK VINA RESULT:      -8.2      7.205      8.343
REMARK  Name = 
REMARK  5 active torsions:
REMARK  status: ('A' for Active; 'I' for Inactive)
REMARK    1  A    between atoms: C_2  and  C_3
REMARK    2  A    between atoms: C_21  and  C_22
REMARK    3  A    between atoms: C_22  and  O_23
REMARK    4  A    between atoms: C_22  and  C_24
REMARK    5  A    between atoms: C_22  and  C_28
REMARK                            x       y       z     vdW  Elec       q    Type
REMARK                         _______ _______ _______ _____ _____    ______ ____
ROOT
ATOM      1  O   UNL     1       2.213  10.044  17.512  0.00  0.00    +0.000 OA
ATOM      2  C   UNL     1       1.758   9.461  18.490  0.00  0.00    +0.000 C 
ATOM      3  N   UNL     1       1.970   8.085  18.701  0.00  0.00    +0.000 N 
ATOM      4  C   UNL     1       1.536   7.337  19.874  0.00  0.00    +0.000 C 
ATOM      5  C   UNL     1       2.633   6.447  20.426  0.00  0.00    +0.000 C 
ATOM      6  C   UNL     1       3.254   5.504  19.381  0.00  0.00    +0.000 C 
ATOM      7  C   UNL     1       3.671   6.377  18.170  0.00  0.00    +0.000 C 
ATOM      8  C   UNL     1       2.573   7.301  17.632  0.00  0.00    +0.000 C 
ENDROOT
BRANCH   2   9
ATOM      9  C   UNL     1       1.005  10.193  19.496  0.00  0.00    +0.000 A 
ATOM     10  C   UNL     1       1.253  10.397  20.870  0.00  0.00    +0.000 A 
ATOM     11  N   UNL     1       0.365  11.202  21.447  0.00  0.00    +0.000 NA
ATOM     12  N   UNL     1      -0.593  11.401  20.494  0.00  0.00    +0.000 N 
ATOM     13  C   UNL     1      -1.787  12.036  20.812  0.00  0.00    +0.000 A 
ATOM     14  N   UNL     1      -2.707  12.332  19.939  0.00  0.00    +0.000 NA
ATOM     15  N   UNL     1      -3.826  12.815  20.532  0.00  0.00    +0.000 N 
ATOM     16  C   UNL     1      -4.886  13.415  19.907  0.00  0.00    +0.000 A 
ATOM     17  C   UNL     1      -5.862  13.661  20.859  0.00  0.00    +0.000 A 
ATOM     18  C   UNL     1      -5.369  13.190  22.098  0.00  0.00    +0.000 A 
ATOM     19  C   UNL     1      -4.087  12.744  21.870  0.00  0.00    +0.000 A 
ATOM     20  C   UNL     1      -3.088  12.246  22.737  0.00  0.00    +0.000 A 
ATOM     21  O   UNL     1      -3.284  11.810  23.868  0.00  0.00    +0.000 OA
ATOM     22  N   UNL     1      -1.848  12.260  22.165  0.00  0.00    +0.000 N 
ATOM     23  C   UNL     1      -0.209  10.820  19.291  0.00  0.00    +0.000 A 
ATOM     24  H   UNL     1      -1.391  13.127  22.384  0.00  0.00    +0.000 HD
ENDBRANCH   2   9
BRANCH   6  25
ATOM     25  C   UNL     1       2.401   4.212  19.063  0.00  0.00    +0.000 C 
BRANCH  25  26
ATOM     26  C   UNL     1       3.313   3.050  18.619  0.00  0.00    +0.000 C 
ATOM     27  F   UNL     1       4.581   3.444  18.374  0.00  0.00    +0.000 F 
ATOM     28  F   UNL     1       3.374   1.985  19.434  0.00  0.00    +0.000 F 
ATOM     29  F   UNL     1       2.823   2.574  17.434  0.00  0.00    +0.000 F 
ENDBRANCH  25  26
BRANCH  25  30
ATOM     30  C   UNL     1       1.576   3.765  20.299  0.00  0.00    +0.000 C 
ATOM     31  F   UNL     1       1.107   2.499  20.175  0.00  0.00    +0.000 F 
ATOM     32  F   UNL     1       2.355   3.768  21.413  0.00  0.00    +0.000 F 
ATOM     33  F   UNL     1       0.506   4.523  20.596  0.00  0.00    +0.000 F 
ENDBRANCH  25  30
BRANCH  25  34
ATOM     34  O   UNL     1       1.498   4.580  17.966  0.00  0.00    +0.000 OA
ATOM     35  H   UNL     1       1.998   5.129  17.327  0.00  0.00    +0.000 HD
ENDBRANCH  25  34
ENDBRANCH   6  25
TORSDOF 5
ENDMDL
MODEL 9
REMARK VINA RESULT:      -8.1      6.635      8.160
REMARK  Name = 
REMARK  5 active torsions:
REMARK  status: ('A' for Active; 'I' for Inactive)
REMARK    1  A    between atoms: C_2  and  C_3
REMARK    2  A    between atoms: C_21  and  C_22
REMARK    3  A    between atoms: C_22  and  O_23
REMARK    4  A    between atoms: C_22  and  C_24
REMARK    5  A    between atoms: C_22  and  C_28
REMARK                            x       y       z     vdW  Elec       q    Type
REMARK                         _______ _______ _______ _____ _____    ______ ____
ROOT
ATOM      1  O   UNL     1       2.932   8.844  16.926  0.00  0.00    +0.000 OA
ATOM      2  C   UNL     1       2.208   8.579  17.879  0.00  0.00    +0.000 C 
ATOM      3  N   UNL     1       2.258   7.330  18.527  0.00  0.00    +0.000 N 
ATOM      4  C   UNL     1       1.494   6.967  19.714  0.00  0.00    +0.000 C 
ATOM      5  C   UNL     1       2.353   6.286  20.762  0.00  0.00    +0.000 C 
ATOM      6  C   UNL     1       3.140   5.075  20.232  0.00  0.00    +0.000 C 
ATOM      7  C   UNL     1       3.906   5.546  18.969  0.00  0.00    +0.000 C 
ATOM      8  C   UNL     1       3.045   6.264  17.924  0.00  0.00    +0.000 C 
ENDROOT
BRANCH   2   9
ATOM      9  C   UNL     1       1.289   9.578  18.401  0.00  0.00    +0.000 A 
ATOM     10  C   UNL     1       1.385  10.428  19.523  0.00  0.00    +0.000 A 
ATOM     11  N   UNL     1       0.362  11.271  19.628  0.00  0.00    +0.000 NA
ATOM     12  N   UNL     1      -0.522  10.866  18.669  0.00  0.00    +0.000 N 
ATOM     13  C   UNL     1      -1.804  11.397  18.619  0.00  0.00    +0.000 A 
ATOM     14  N   UNL     1      -2.669  11.119  17.685  0.00  0.00    +0.000 NA
ATOM     15  N   UNL     1      -3.886  11.655  17.951  0.00  0.00    +0.000 N 
ATOM     16  C   UNL     1      -4.947  11.738  17.090  0.00  0.00    +0.000 A 
ATOM     17  C   UNL     1      -6.027  12.253  17.787  0.00  0.00    +0.000 A 
ATOM     18  C   UNL     1      -5.598  12.486  19.114  0.00  0.00    +0.000 A 
ATOM     19  C   UNL     1      -4.257  12.176  19.157  0.00  0.00    +0.000 A 
ATOM     20  C   UNL     1      -3.290  12.285  20.182  0.00  0.00    +0.000 A 
ATOM     21  O   UNL     1      -3.537  12.400  21.379  0.00  0.00    +0.000 OA
ATOM     22  N   UNL     1      -2.014  12.211  19.704  0.00  0.00    +0.000 N 
ATOM     23  C   UNL     1       0.034   9.856  17.893  0.00  0.00    +0.000 A 
ATOM     24  H   UNL     1      -1.681  13.137  19.500  0.00  0.00    +0.000 HD
ENDBRANCH   2   9
BRANCH   6  25
ATOM     25  C   UNL     1       2.296   3.744  20.095  0.00  0.00    +0.000 C 
BRANCH  25  26
ATOM     26  C   UNL     1       2.855   2.857  18.965  0.00  0.00    +0.000 C 
ATOM     27  F   UNL     1       2.428   3.236  17.741  0.00  0.00    +0.000 F 
ATOM     28  F   UNL     1       4.190   2.729  18.902  0.00  0.00    +0.000 F 
ATOM     29  F   UNL     1       2.377   1.591  19.162  0.00  0.00    +0.000 F 
ENDBRANCH  25  26
BRANCH  25  30
ATOM     30  C   UNL     1       2.298   2.938  21.421  0.00  0.00    +0.000 C 
ATOM     31  F   UNL     1       2.257   3.740  22.512  0.00  0.00    +0.000 F 
ATOM     32  F   UNL     1       1.192   2.150  21.494  0.00  0.00    +0.000 F 
ATOM     33  F   UNL     1       3.347   2.119  21.609  0.00  0.00    +0.000 F 
ENDBRANCH  25  30
BRANCH  25  34
ATOM     34  O   UNL     1       0.928   4.163  19.766  0.00  0.00    +0.000 OA
ATOM     35  H   UNL     1       0.418   4.232  20.599  0.00  0.00    +0.000 HD
ENDBRANCH  25  34
ENDBRANCH   6  25
TORSDOF 5
ENDMDL
