MODEL 1
REMARK VINA RESULT:      -8.0      0.000      0.000
REMARK  Name = 
REMARK  8 active torsions:
REMARK  status: ('A' for Active; 'I' for Inactive)
REMARK    1  A    between atoms: C_1  and  C_2
REMARK    2  A    between atoms: C_5  and  S_6
REMARK    3  A    between atoms: S_6  and  N_9
REMARK    4  A    between atoms: N_9  and  C_10
REMARK    5  A    between atoms: C_10  and  C_11
REMARK    6  A    between atoms: C_11  and  C_12
REMARK    7  A    between atoms: N_14  and  C_15
REMARK    8  A    between atoms: C_15  and  C_16
REMARK                            x       y       z     vdW  Elec       q    Type
REMARK                         _______ _______ _______ _____ _____    ______ ____
ROOT
ATOM      1  C   UNL     1       6.607   5.492  18.513  0.00  0.00    +0.000 C 
ENDROOT
BRANCH   1   2
ATOM      2  N   UNL     1       6.725   4.358  17.558  0.00  0.00    +0.000 NA
ATOM      3  H   UNL     1       7.656   4.238  17.156  0.00  0.00    +0.000 HD
BRANCH   2   4
ATOM      4  S   UNL     1       5.547   4.375  16.326  0.00  0.00    +0.000 S 
ATOM      5  O   UNL     1       5.844   3.317  15.400  0.00  0.00    +0.000 OA
ATOM      6  O   UNL     1       5.410   5.760  15.908  0.00  0.00    +0.000 OA
BRANCH   4  11
ATOM      7  C   UNL     1       0.699   2.831  19.650  0.00  0.00    +0.000 C 
ATOM      8  C   UNL     1       1.874   3.212  18.795  0.00  0.00    +0.000 A 
ATOM      9  C   UNL     1       2.814   2.245  18.412  0.00  0.00    +0.000 A 
ATOM     10  C   UNL     1       3.918   2.616  17.637  0.00  0.00    +0.000 A 
ATOM     11  C   UNL     1       4.081   3.933  17.238  0.00  0.00    +0.000 A 
ATOM     12  C   UNL     1       3.142   4.912  17.605  0.00  0.00    +0.000 A 
ATOM     13  C   UNL     1       2.039   4.541  18.381  0.00  0.00    +0.000 A 
ENDBRANCH   4  11
ENDBRANCH   2   4
ENDBRANCH   1   2
BRANCH   1  14
ATOM     14  C   UNL     1       7.917   6.235  18.698  0.00  0.00    +0.000 C 
BRANCH  14  15
ATOM     15  C   UNL     1       7.898   7.586  18.026  0.00  0.00    +0.000 C 
ATOM     16  O   UNL     1       7.368   7.761  16.930  0.00  0.00    +0.000 OA
ATOM     17  N   UNL     1       8.581   8.563  18.705  0.00  0.00    +0.000 N 
ATOM     18  H   UNL     1       8.783   8.395  19.682  0.00  0.00    +0.000 HD
BRANCH  17  19
ATOM     19  C   UNL     1       8.676   9.921  18.207  0.00  0.00    +0.000 C 
BRANCH  19  20
ATOM     20  C   UNL     1       9.713  10.757  18.900  0.00  0.00    +0.000 A 
ATOM     21  C   UNL     1      10.820  11.269  18.215  0.00  0.00    +0.000 A 
ATOM     22  C   UNL     1      11.732  12.092  18.873  0.00  0.00    +0.000 A 
ATOM     23  C   UNL     1      11.511  12.393  20.202  0.00  0.00    +0.000 A 
ATOM     24  N   UNL     1      10.455  11.930  20.901  0.00  0.00    +0.000 NA
ATOM     25  C   UNL     1       9.589  11.121  20.237  0.00  0.00    +0.000 A 
ENDBRANCH  19  20
ENDBRANCH  17  19
ENDBRANCH  14  15
ENDBRANCH   1  14
TORSDOF 7
ENDMDL
MODEL 2
REMARK VINA RESULT:      -7.8      1.241      1.454
REMARK  Name = 
REMARK  8 active torsions:
REMARK  status: ('A' for Active; 'I' for Inactive)
REMARK    1  A    between atoms: C_1  and  C_2
REMARK    2  A    between atoms: C_5  and  S_6
REMARK    3  A    between atoms: S_6  and  N_9
REMARK    4  A    between atoms: N_9  and  C_10
REMARK    5  A    between atoms: C_10  and  C_11
REMARK    6  A    between atoms: C_11  and  C_12
REMARK    7  A    between atoms: N_14  and  C_15
REMARK    8  A    between atoms: C_15  and  C_16
REMARK                            x       y       z     vdW  Elec       q    Type
REMARK                         _______ _______ _______ _____ _____    ______ ____
ROOT
ATOM      1  C   UNL     1       6.575   5.296  19.019  0.00  0.00    +0.000 C 
ENDROOT
BRANCH   1   2
ATOM      2  N   UNL     1       6.347   4.513  17.775  0.00  0.00    +0.000 NA
ATOM      3  H   UNL     1       7.080   4.612  17.072  0.00  0.00    +0.000 HD
BRANCH   2   4
ATOM      4  S   UNL     1       4.815   4.774  17.073  0.00  0.00    +0.000 S 
ATOM      5  O   UNL     1       4.689   3.916  15.927  0.00  0.00    +0.000 OA
ATOM      6  O   UNL     1       4.642   6.214  16.991  0.00  0.00    +0.000 OA
BRANCH   4  11
ATOM      7  C   UNL     1       1.341   2.684  21.601  0.00  0.00    +0.000 C 
ATOM      8  C   UNL     1       2.168   3.198  20.457  0.00  0.00    +0.000 A 
ATOM      9  C   UNL     1       3.056   2.344  19.786  0.00  0.00    +0.000 A 
ATOM     10  C   UNL     1       3.840   2.839  18.739  0.00  0.00    +0.000 A 
ATOM     11  C   UNL     1       3.735   4.167  18.354  0.00  0.00    +0.000 A 
ATOM     12  C   UNL     1       2.843   5.032  19.010  0.00  0.00    +0.000 A 
ATOM     13  C   UNL     1       2.060   4.537  20.058  0.00  0.00    +0.000 A 
ENDBRANCH   4  11
ENDBRANCH   2   4
ENDBRANCH   1   2
BRANCH   1  14
ATOM     14  C   UNL     1       7.926   5.985  19.033  0.00  0.00    +0.000 C 
BRANCH  14  15
ATOM     15  C   UNL     1       7.973   7.151  18.077  0.00  0.00    +0.000 C 
ATOM     16  O   UNL     1       7.716   7.026  16.881  0.00  0.00    +0.000 OA
ATOM     17  N   UNL     1       8.394   8.328  18.645  0.00  0.00    +0.000 N 
ATOM     18  H   UNL     1       8.362   8.395  19.654  0.00  0.00    +0.000 HD
BRANCH  17  19
ATOM     19  C   UNL     1       8.507   9.553  17.878  0.00  0.00    +0.000 C 
BRANCH  19  20
ATOM     20  C   UNL     1       9.102  10.701  18.641  0.00  0.00    +0.000 A 
ATOM     21  C   UNL     1       9.570  10.547  19.950  0.00  0.00    +0.000 A 
ATOM     22  C   UNL     1      10.173  11.617  20.610  0.00  0.00    +0.000 A 
ATOM     23  C   UNL     1      10.302  12.817  19.940  0.00  0.00    +0.000 A 
ATOM     24  N   UNL     1       9.873  13.011  18.676  0.00  0.00    +0.000 NA
ATOM     25  C   UNL     1       9.280  11.953  18.062  0.00  0.00    +0.000 A 
ENDBRANCH  19  20
ENDBRANCH  17  19
ENDBRANCH  14  15
ENDBRANCH   1  14
TORSDOF 7
ENDMDL
MODEL 3
REMARK VINA RESULT:      -7.7      2.051      2.749
REMARK  Name = 
REMARK  8 active torsions:
REMARK  status: ('A' for Active; 'I' for Inactive)
REMARK    1  A    between atoms: C_1  and  C_2
REMARK    2  A    between atoms: C_5  and  S_6
REMARK    3  A    between atoms: S_6  and  N_9
REMARK    4  A    between atoms: N_9  and  C_10
REMARK    5  A    between atoms: C_10  and  C_11
REMARK    6  A    between atoms: C_11  and  C_12
REMARK    7  A    between atoms: N_14  and  C_15
REMARK    8  A    between atoms: C_15  and  C_16
REMARK                            x       y       z     vdW  Elec       q    Type
REMARK                         _______ _______ _______ _____ _____    ______ ____
ROOT
ATOM      1  C   UNL     1       6.875   4.848  17.940  0.00  0.00    +0.000 C 
ENDROOT
BRANCH   1   2
ATOM      2  N   UNL     1       6.066   4.225  19.022  0.00  0.00    +0.000 NA
ATOM      3  H   UNL     1       6.536   3.468  19.519  0.00  0.00    +0.000 HD
BRANCH   2   4
ATOM      4  S   UNL     1       4.515   3.729  18.517  0.00  0.00    +0.000 S 
ATOM      5  O   UNL     1       4.011   2.778  19.470  0.00  0.00    +0.000 OA
ATOM      6  O   UNL     1       4.621   3.429  17.100  0.00  0.00    +0.000 OA
BRANCH   4  11
ATOM      7  C   UNL     1       1.529   8.966  19.289  0.00  0.00    +0.000 C 
ATOM      8  C   UNL     1       2.238   7.659  19.073  0.00  0.00    +0.000 A 
ATOM      9  C   UNL     1       2.154   6.641  20.035  0.00  0.00    +0.000 A 
ATOM     10  C   UNL     1       2.839   5.438  19.836  0.00  0.00    +0.000 A 
ATOM     11  C   UNL     1       3.590   5.243  18.687  0.00  0.00    +0.000 A 
ATOM     12  C   UNL     1       3.676   6.249  17.710  0.00  0.00    +0.000 A 
ATOM     13  C   UNL     1       2.992   7.453  17.910  0.00  0.00    +0.000 A 
ENDBRANCH   4  11
ENDBRANCH   2   4
ENDBRANCH   1   2
BRANCH   1  14
ATOM     14  C   UNL     1       7.860   5.875  18.468  0.00  0.00    +0.000 C 
BRANCH  14  15
ATOM     15  C   UNL     1       7.657   7.228  17.832  0.00  0.00    +0.000 C 
ATOM     16  O   UNL     1       6.978   7.378  16.818  0.00  0.00    +0.000 OA
ATOM     17  N   UNL     1       8.352   8.245  18.438  0.00  0.00    +0.000 N 
ATOM     18  H   UNL     1       8.692   8.080  19.377  0.00  0.00    +0.000 HD
BRANCH  17  19
ATOM     19  C   UNL     1       8.285   9.611  17.961  0.00  0.00    +0.000 C 
BRANCH  19  20
ATOM     20  C   UNL     1       9.292  10.531  18.589  0.00  0.00    +0.000 A 
ATOM     21  C   UNL     1       9.352  10.714  19.975  0.00  0.00    +0.000 A 
ATOM     22  C   UNL     1      10.338  11.528  20.532  0.00  0.00    +0.000 A 
ATOM     23  C   UNL     1      11.249  12.133  19.689  0.00  0.00    +0.000 A 
ATOM     24  N   UNL     1      11.234  11.981  18.350  0.00  0.00    +0.000 NA
ATOM     25  C   UNL     1      10.256  11.191  17.834  0.00  0.00    +0.000 A 
ENDBRANCH  19  20
ENDBRANCH  17  19
ENDBRANCH  14  15
ENDBRANCH   1  14
TORSDOF 7
ENDMDL
MODEL 4
REMARK VINA RESULT:      -7.5      4.701      7.771
REMARK  Name = 
REMARK  8 active torsions:
REMARK  status: ('A' for Active; 'I' for Inactive)
REMARK    1  A    between atoms: C_1  and  C_2
REMARK    2  A    between atoms: C_5  and  S_6
REMARK    3  A    between atoms: S_6  and  N_9
REMARK    4  A    between atoms: N_9  and  C_10
REMARK    5  A    between atoms: C_10  and  C_11
REMARK    6  A    between atoms: C_11  and  C_12
REMARK    7  A    between atoms: N_14  and  C_15
REMARK    8  A    between atoms: C_15  and  C_16
REMARK                            x       y       z     vdW  Elec       q    Type
REMARK                         _______ _______ _______ _____ _____    ______ ____
ROOT
ATOM      1  C   UNL     1       4.765   6.859  17.009  0.00  0.00    +0.000 C 
ENDROOT
BRANCH   1   2
ATOM      2  N   UNL     1       5.555   5.941  17.874  0.00  0.00    +0.000 NA
ATOM      3  H   UNL     1       5.601   6.219  18.855  0.00  0.00    +0.000 HD
BRANCH   2   4
ATOM      4  S   UNL     1       7.118   5.616  17.277  0.00  0.00    +0.000 S 
ATOM      5  O   UNL     1       7.733   4.635  18.130  0.00  0.00    +0.000 OA
ATOM      6  O   UNL     1       7.730   6.904  17.005  0.00  0.00    +0.000 OA
BRANCH   4  11
ATOM      7  C   UNL     1       5.615   3.138  11.935  0.00  0.00    +0.000 C 
ATOM      8  C   UNL     1       6.018   3.724  13.259  0.00  0.00    +0.000 A 
ATOM      9  C   UNL     1       5.331   3.368  14.429  0.00  0.00    +0.000 A 
ATOM     10  C   UNL     1       5.698   3.940  15.651  0.00  0.00    +0.000 A 
ATOM     11  C   UNL     1       6.743   4.848  15.714  0.00  0.00    +0.000 A 
ATOM     12  C   UNL     1       7.447   5.207  14.551  0.00  0.00    +0.000 A 
ATOM     13  C   UNL     1       7.080   4.636  13.328  0.00  0.00    +0.000 A 
ENDBRANCH   4  11
ENDBRANCH   2   4
ENDBRANCH   1   2
BRANCH   1  14
ATOM     14  C   UNL     1       3.668   7.577  17.774  0.00  0.00    +0.000 C 
BRANCH  14  15
ATOM     15  C   UNL     1       2.663   6.613  18.353  0.00  0.00    +0.000 C 
ATOM     16  O   UNL     1       2.069   6.843  19.405  0.00  0.00    +0.000 OA
ATOM     17  N   UNL     1       2.532   5.443  17.647  0.00  0.00    +0.000 N 
ATOM     18  H   UNL     1       2.875   5.434  16.695  0.00  0.00    +0.000 HD
BRANCH  17  19
ATOM     19  C   UNL     1       1.618   4.396  18.057  0.00  0.00    +0.000 C 
BRANCH  19  20
ATOM     20  C   UNL     1       2.005   3.711  19.337  0.00  0.00    +0.000 A 
ATOM     21  C   UNL     1       1.093   3.547  20.385  0.00  0.00    +0.000 A 
ATOM     22  C   UNL     1       1.465   2.853  21.536  0.00  0.00    +0.000 A 
ATOM     23  C   UNL     1       2.741   2.330  21.607  0.00  0.00    +0.000 A 
ATOM     24  N   UNL     1       3.651   2.457  20.620  0.00  0.00    +0.000 NA
ATOM     25  C   UNL     1       3.263   3.147  19.516  0.00  0.00    +0.000 A 
ENDBRANCH  19  20
ENDBRANCH  17  19
ENDBRANCH  14  15
ENDBRANCH   1  14
TORSDOF 7
ENDMDL
MODEL 5
REMARK VINA RESULT:      -7.3      1.032      1.552
REMARK  Name = 
REMARK  8 active torsions:
REMARK  status: ('A' for Active; 'I' for Inactive)
REMARK    1  A    between atoms: C_1  and  C_2
REMARK    2  A    between atoms: C_5  and  S_6
REMARK    3  A    between atoms: S_6  and  N_9
REMARK    4  A    between atoms: N_9  and  C_10
REMARK    5  A    between atoms: C_10  and  C_11
REMARK    6  A    between atoms: C_11  and  C_12
REMARK    7  A    between atoms: N_14  and  C_15
REMARK    8  A    between atoms: C_15  and  C_16
REMARK                            x       y       z     vdW  Elec       q    Type
REMARK                         _______ _______ _______ _____ _____    ______ ____
ROOT
ATOM      1  C   UNL     1       7.618   5.631  17.985  0.00  0.00    +0.000 C 
ENDROOT
BRANCH   1   2
ATOM      2  N   UNL     1       6.144   5.497  18.127  0.00  0.00    +0.000 NA
ATOM      3  H   UNL     1       5.844   4.961  18.942  0.00  0.00    +0.000 HD
BRANCH   2   4
ATOM      4  S   UNL     1       5.370   4.920  16.722  0.00  0.00    +0.000 S 
ATOM      5  O   UNL     1       6.207   3.916  16.124  0.00  0.00    +0.000 OA
ATOM      6  O   UNL     1       4.918   6.092  15.992  0.00  0.00    +0.000 OA
BRANCH   4  11
ATOM      7  C   UNL     1       0.350   2.240  18.856  0.00  0.00    +0.000 C 
ATOM      8  C   UNL     1       1.608   2.900  18.366  0.00  0.00    +0.000 A 
ATOM      9  C   UNL     1       1.657   4.292  18.195  0.00  0.00    +0.000 A 
ATOM     10  C   UNL     1       2.824   4.893  17.714  0.00  0.00    +0.000 A 
ATOM     11  C   UNL     1       3.936   4.121  17.415  0.00  0.00    +0.000 A 
ATOM     12  C   UNL     1       3.906   2.727  17.589  0.00  0.00    +0.000 A 
ATOM     13  C   UNL     1       2.738   2.125  18.069  0.00  0.00    +0.000 A 
ENDBRANCH   4  11
ENDBRANCH   2   4
ENDBRANCH   1   2
BRANCH   1  14
ATOM     14  C   UNL     1       8.175   6.800  18.776  0.00  0.00    +0.000 C 
BRANCH  14  15
ATOM     15  C   UNL     1       8.020   8.105  18.035  0.00  0.00    +0.000 C 
ATOM     16  O   UNL     1       7.336   8.200  17.017  0.00  0.00    +0.000 OA
ATOM     17  N   UNL     1       8.760   9.139  18.553  0.00  0.00    +0.000 N 
ATOM     18  H   UNL     1       9.102   9.036  19.500  0.00  0.00    +0.000 HD
BRANCH  17  19
ATOM     19  C   UNL     1       8.742  10.464  17.968  0.00  0.00    +0.000 C 
BRANCH  19  20
ATOM     20  C   UNL     1       9.352  11.526  18.837  0.00  0.00    +0.000 A 
ATOM     21  C   UNL     1      10.183  11.204  19.914  0.00  0.00    +0.000 A 
ATOM     22  C   UNL     1      10.783  12.215  20.665  0.00  0.00    +0.000 A 
ATOM     23  C   UNL     1      10.543  13.528  20.313  0.00  0.00    +0.000 A 
ATOM     24  N   UNL     1       9.755  13.887  19.279  0.00  0.00    +0.000 NA
ATOM     25  C   UNL     1       9.176  12.881  18.573  0.00  0.00    +0.000 A 
ENDBRANCH  19  20
ENDBRANCH  17  19
ENDBRANCH  14  15
ENDBRANCH   1  14
TORSDOF 7
ENDMDL
MODEL 6
REMARK VINA RESULT:      -7.3      3.560      5.963
REMARK  Name = 
REMARK  8 active torsions:
REMARK  status: ('A' for Active; 'I' for Inactive)
REMARK    1  A    between atoms: C_1  and  C_2
REMARK    2  A    between atoms: C_5  and  S_6
REMARK    3  A    between atoms: S_6  and  N_9
REMARK    4  A    between atoms: N_9  and  C_10
REMARK    5  A    between atoms: C_10  and  C_11
REMARK    6  A    between atoms: C_11  and  C_12
REMARK    7  A    between atoms: N_14  and  C_15
REMARK    8  A    between atoms: C_15  and  C_16
REMARK                            x       y       z     vdW  Elec       q    Type
REMARK                         _______ _______ _______ _____ _____    ______ ____
ROOT
ATOM      1  C   UNL     1       2.671   3.409  18.289  0.00  0.00    +0.000 C 
ENDROOT
BRANCH   1   2
ATOM      2  N   UNL     1       2.185   4.807  18.440  0.00  0.00    +0.000 NA
ATOM      3  H   UNL     1       2.313   5.391  17.614  0.00  0.00    +0.000 HD
BRANCH   2   4
ATOM      4  S   UNL     1       2.790   5.596  19.824  0.00  0.00    +0.000 S 
ATOM      5  O   UNL     1       4.224   5.634  19.734  0.00  0.00    +0.000 OA
ATOM      6  O   UNL     1       2.097   5.018  20.963  0.00  0.00    +0.000 OA
BRANCH   4  11
ATOM      7  C   UNL     1       0.463  11.129  18.869  0.00  0.00    +0.000 C 
ATOM      8  C   UNL     1       1.071   9.778  19.122  0.00  0.00    +0.000 A 
ATOM      9  C   UNL     1       1.704   9.081  18.083  0.00  0.00    +0.000 A 
ATOM     10  C   UNL     1       2.244   7.814  18.323  0.00  0.00    +0.000 A 
ATOM     11  C   UNL     1       2.166   7.248  19.586  0.00  0.00    +0.000 A 
ATOM     12  C   UNL     1       1.544   7.939  20.640  0.00  0.00    +0.000 A 
ATOM     13  C   UNL     1       1.003   9.206  20.400  0.00  0.00    +0.000 A 
ENDBRANCH   4  11
ENDBRANCH   2   4
ENDBRANCH   1   2
BRANCH   1  14
ATOM     14  C   UNL     1       3.216   3.131  16.900  0.00  0.00    +0.000 C 
BRANCH  14  15
ATOM     15  C   UNL     1       4.336   4.075  16.536  0.00  0.00    +0.000 C 
ATOM     16  O   UNL     1       4.175   5.293  16.496  0.00  0.00    +0.000 OA
ATOM     17  N   UNL     1       5.507   3.451  16.186  0.00  0.00    +0.000 N 
ATOM     18  H   UNL     1       5.619   2.484  16.463  0.00  0.00    +0.000 HD
BRANCH  17  19
ATOM     19  C   UNL     1       6.688   4.196  15.800  0.00  0.00    +0.000 C 
BRANCH  19  20
ATOM     20  C   UNL     1       7.218   5.104  16.872  0.00  0.00    +0.000 A 
ATOM     21  C   UNL     1       7.263   6.492  16.702  0.00  0.00    +0.000 A 
ATOM     22  C   UNL     1       7.703   7.312  17.739  0.00  0.00    +0.000 A 
ATOM     23  C   UNL     1       8.082   6.725  18.930  0.00  0.00    +0.000 A 
ATOM     24  N   UNL     1       8.049   5.394  19.143  0.00  0.00    +0.000 NA
ATOM     25  C   UNL     1       7.626   4.619  18.110  0.00  0.00    +0.000 A 
ENDBRANCH  19  20
ENDBRANCH  17  19
ENDBRANCH  14  15
ENDBRANCH   1  14
TORSDOF 7
ENDMDL
MODEL 7
REMARK VINA RESULT:      -7.3      4.350      7.747
REMARK  Name = 
REMARK  8 active torsions:
REMARK  status: ('A' for Active; 'I' for Inactive)
REMARK    1  A    between atoms: C_1  and  C_2
REMARK    2  A    between atoms: C_5  and  S_6
REMARK    3  A    between atoms: S_6  and  N_9
REMARK    4  A    between atoms: N_9  and  C_10
REMARK    5  A    between atoms: C_10  and  C_11
REMARK    6  A    between atoms: C_11  and  C_12
REMARK    7  A    between atoms: N_14  and  C_15
REMARK    8  A    between atoms: C_15  and  C_16
REMARK                            x       y       z     vdW  Elec       q    Type
REMARK                         _______ _______ _______ _____ _____    ______ ____
ROOT
ATOM      1  C   UNL     1       5.279   7.039  17.940  0.00  0.00    +0.000 C 
ENDROOT
BRANCH   1   2
ATOM      2  N   UNL     1       5.704   5.625  17.758  0.00  0.00    +0.000 NA
ATOM      3  H   UNL     1       5.743   5.080  18.619  0.00  0.00    +0.000 HD
BRANCH   2   4
ATOM      4  S   UNL     1       7.159   5.455  16.885  0.00  0.00    +0.000 S 
ATOM      5  O   UNL     1       7.954   4.441  17.523  0.00  0.00    +0.000 OA
ATOM      6  O   UNL     1       7.655   6.800  16.649  0.00  0.00    +0.000 OA
BRANCH   4  11
ATOM      7  C   UNL     1       5.299   3.063  11.617  0.00  0.00    +0.000 C 
ATOM      8  C   UNL     1       5.736   3.687  12.912  0.00  0.00    +0.000 A 
ATOM      9  C   UNL     1       6.998   4.292  13.015  0.00  0.00    +0.000 A 
ATOM     10  C   UNL     1       7.405   4.848  14.232  0.00  0.00    +0.000 A 
ATOM     11  C   UNL     1       6.564   4.813  15.333  0.00  0.00    +0.000 A 
ATOM     12  C   UNL     1       5.294   4.219  15.243  0.00  0.00    +0.000 A 
ATOM     13  C   UNL     1       4.886   3.662  14.026  0.00  0.00    +0.000 A 
ENDBRANCH   4  11
ENDBRANCH   2   4
ENDBRANCH   1   2
BRANCH   1  14
ATOM     14  C   UNL     1       3.886   7.301  17.398  0.00  0.00    +0.000 C 
BRANCH  14  15
ATOM     15  C   UNL     1       2.843   6.470  18.103  0.00  0.00    +0.000 C 
ATOM     16  O   UNL     1       2.347   6.816  19.174  0.00  0.00    +0.000 OA
ATOM     17  N   UNL     1       2.560   5.277  17.485  0.00  0.00    +0.000 N 
ATOM     18  H   UNL     1       2.834   5.180  16.515  0.00  0.00    +0.000 HD
BRANCH  17  19
ATOM     19  C   UNL     1       1.588   4.346  18.021  0.00  0.00    +0.000 C 
BRANCH  19  20
ATOM     20  C   UNL     1       2.007   3.697  19.310  0.00  0.00    +0.000 A 
ATOM     21  C   UNL     1       1.135   3.602  20.399  0.00  0.00    +0.000 A 
ATOM     22  C   UNL     1       1.533   2.941  21.560  0.00  0.00    +0.000 A 
ATOM     23  C   UNL     1       2.794   2.380  21.601  0.00  0.00    +0.000 A 
ATOM     24  N   UNL     1       3.666   2.440  20.574  0.00  0.00    +0.000 NA
ATOM     25  C   UNL     1       3.254   3.101  19.460  0.00  0.00    +0.000 A 
ENDBRANCH  19  20
ENDBRANCH  17  19
ENDBRANCH  14  15
ENDBRANCH   1  14
TORSDOF 7
ENDMDL
MODEL 8
REMARK VINA RESULT:      -7.3      4.531      6.900
REMARK  Name = 
REMARK  8 active torsions:
REMARK  status: ('A' for Active; 'I' for Inactive)
REMARK    1  A    between atoms: C_1  and  C_2
REMARK    2  A    between atoms: C_5  and  S_6
REMARK    3  A    between atoms: S_6  and  N_9
REMARK    4  A    between atoms: N_9  and  C_10
REMARK    5  A    between atoms: C_10  and  C_11
REMARK    6  A    between atoms: C_11  and  C_12
REMARK    7  A    between atoms: N_14  and  C_15
REMARK    8  A    between atoms: C_15  and  C_16
REMARK                            x       y       z     vdW  Elec       q    Type
REMARK                         _______ _______ _______ _____ _____    ______ ____
ROOT
ATOM      1  C   UNL     1       1.247   2.291  19.384  0.00  0.00    +0.000 C 
ENDROOT
BRANCH   1   2
ATOM      2  N   UNL     1       2.113   2.830  18.301  0.00  0.00    +0.000 NA
ATOM      3  H   UNL     1       1.747   2.693  17.358  0.00  0.00    +0.000 HD
BRANCH   2   4
ATOM      4  S   UNL     1       3.730   2.300  18.391  0.00  0.00    +0.000 S 
ATOM      5  O   UNL     1       3.976   1.405  17.293  0.00  0.00    +0.000 OA
ATOM      6  O   UNL     1       3.960   1.917  19.773  0.00  0.00    +0.000 OA
BRANCH   4  11
ATOM      7  C   UNL     1       6.969   7.337  17.354  0.00  0.00    +0.000 C 
ATOM      8  C   UNL     1       6.135   6.115  17.618  0.00  0.00    +0.000 A 
ATOM      9  C   UNL     1       6.216   5.457  18.854  0.00  0.00    +0.000 A 
ATOM     10  C   UNL     1       5.455   4.305  19.079  0.00  0.00    +0.000 A 
ATOM     11  C   UNL     1       4.614   3.818  18.091  0.00  0.00    +0.000 A 
ATOM     12  C   UNL     1       4.515   4.472  16.851  0.00  0.00    +0.000 A 
ATOM     13  C   UNL     1       5.277   5.623  16.625  0.00  0.00    +0.000 A 
ENDBRANCH   4  11
ENDBRANCH   2   4
ENDBRANCH   1   2
BRANCH   1  14
ATOM     14  C   UNL     1       0.699   3.381  20.286  0.00  0.00    +0.000 C 
BRANCH  14  15
ATOM     15  C   UNL     1       1.725   4.452  20.561  0.00  0.00    +0.000 C 
ATOM     16  O   UNL     1       2.402   4.460  21.588  0.00  0.00    +0.000 OA
ATOM     17  N   UNL     1       1.778   5.440  19.609  0.00  0.00    +0.000 N 
ATOM     18  H   UNL     1       1.363   5.239  18.708  0.00  0.00    +0.000 HD
BRANCH  17  19
ATOM     19  C   UNL     1       2.698   6.555  19.709  0.00  0.00    +0.000 C 
BRANCH  19  20
ATOM     20  C   UNL     1       2.130   7.864  19.241  0.00  0.00    +0.000 A 
ATOM     21  C   UNL     1       1.354   8.668  20.082  0.00  0.00    +0.000 A 
ATOM     22  C   UNL     1       0.892   9.906  19.638  0.00  0.00    +0.000 A 
ATOM     23  C   UNL     1       1.225  10.316  18.362  0.00  0.00    +0.000 A 
ATOM     24  N   UNL     1       1.975   9.578  17.519  0.00  0.00    +0.000 NA
ATOM     25  C   UNL     1       2.403   8.371  17.976  0.00  0.00    +0.000 A 
ENDBRANCH  19  20
ENDBRANCH  17  19
ENDBRANCH  14  15
ENDBRANCH   1  14
TORSDOF 7
ENDMDL
MODEL 9
REMARK VINA RESULT:      -7.3      1.324      1.834
REMARK  Name = 
REMARK  8 active torsions:
REMARK  status: ('A' for Active; 'I' for Inactive)
REMARK    1  A    between atoms: C_1  and  C_2
REMARK    2  A    between atoms: C_5  and  S_6
REMARK    3  A    between atoms: S_6  and  N_9
REMARK    4  A    between atoms: N_9  and  C_10
REMARK    5  A    between atoms: C_10  and  C_11
REMARK    6  A    between atoms: C_11  and  C_12
REMARK    7  A    between atoms: N_14  and  C_15
REMARK    8  A    between atoms: C_15  and  C_16
REMARK                            x       y       z     vdW  Elec       q    Type
REMARK                         _______ _______ _______ _____ _____    ______ ____
ROOT
ATOM      1  C   UNL     1       6.167   7.085  17.435  0.00  0.00    +0.000 C 
ENDROOT
BRANCH   1   2
ATOM      2  N   UNL     1       6.360   5.611  17.460  0.00  0.00    +0.000 NA
ATOM      3  H   UNL     1       7.335   5.312  17.488  0.00  0.00    +0.000 HD
BRANCH   2   4
ATOM      4  S   UNL     1       5.526   4.791  16.219  0.00  0.00    +0.000 S 
ATOM      5  O   UNL     1       6.333   3.684  15.785  0.00  0.00    +0.000 OA
ATOM      6  O   UNL     1       5.047   5.811  15.303  0.00  0.00    +0.000 OA
BRANCH   4  11
ATOM      7  C   UNL     1       0.581   2.652  19.032  0.00  0.00    +0.000 C 
ATOM      8  C   UNL     1       1.823   3.179  18.372  0.00  0.00    +0.000 A 
ATOM      9  C   UNL     1       1.967   4.552  18.126  0.00  0.00    +0.000 A 
ATOM     10  C   UNL     1       3.117   5.028  17.489  0.00  0.00    +0.000 A 
ATOM     11  C   UNL     1       4.120   4.150  17.107  0.00  0.00    +0.000 A 
ATOM     12  C   UNL     1       3.995   2.773  17.354  0.00  0.00    +0.000 A 
ATOM     13  C   UNL     1       2.844   2.296  17.992  0.00  0.00    +0.000 A 
ENDBRANCH   4  11
ENDBRANCH   2   4
ENDBRANCH   1   2
BRANCH   1  14
ATOM     14  C   UNL     1       7.430   7.830  17.045  0.00  0.00    +0.000 C 
BRANCH  14  15
ATOM     15  C   UNL     1       8.255   8.209  18.250  0.00  0.00    +0.000 C 
ATOM     16  O   UNL     1       8.618   7.377  19.080  0.00  0.00    +0.000 OA
ATOM     17  N   UNL     1       8.493   9.555  18.369  0.00  0.00    +0.000 N 
ATOM     18  H   UNL     1       8.361  10.126  17.544  0.00  0.00    +0.000 HD
BRANCH  17  19
ATOM     19  C   UNL     1       9.262  10.104  19.468  0.00  0.00    +0.000 C 
BRANCH  19  20
ATOM     20  C   UNL     1      10.231  11.178  19.062  0.00  0.00    +0.000 A 
ATOM     21  C   UNL     1      11.091  11.777  19.988  0.00  0.00    +0.000 A 
ATOM     22  C   UNL     1      12.021  12.728  19.569  0.00  0.00    +0.000 A 
ATOM     23  C   UNL     1      12.074  13.052  18.228  0.00  0.00    +0.000 A 
ATOM     24  N   UNL     1      11.270  12.497  17.299  0.00  0.00    +0.000 NA
ATOM     25  C   UNL     1      10.367  11.582  17.738  0.00  0.00    +0.000 A 
ENDBRANCH  19  20
ENDBRANCH  17  19
ENDBRANCH  14  15
ENDBRANCH   1  14
TORSDOF 7
ENDMDL
