MODEL 1
REMARK VINA RESULT:      -7.7      0.000      0.000
REMARK  Name = 
REMARK  7 active torsions:
REMARK  status: ('A' for Active; 'I' for Inactive)
REMARK    1  A    between atoms: C_1  and  C_2
REMARK    2  A    between atoms: N_4  and  C_5
REMARK    3  A    between atoms: C_5  and  C_6
REMARK    4  A    between atoms: C_6  and  C_7
REMARK    5  A    between atoms: C_6  and  O_8
REMARK    6  A    between atoms: C_6  and  C_9
REMARK    7  A    between atoms: C_9  and  N_10
REMARK                            x       y       z     vdW  Elec       q    Type
REMARK                         _______ _______ _______ _____ _____    ______ ____
ROOT
ATOM      1  N   UNL     1       2.791   6.454  18.975  0.00  0.00    +0.000 N 
ATOM      2  C   UNL     1       3.746   6.277  17.962  0.00  0.00    +0.000 A 
ATOM      3  C   UNL     1       4.728   7.138  17.432  0.00  0.00    +0.000 A 
ATOM      4  C   UNL     1       5.533   6.659  16.386  0.00  0.00    +0.000 A 
ATOM      5  C   UNL     1       5.356   5.379  15.881  0.00  0.00    +0.000 A 
ATOM      6  F   UNL     1       6.138   4.944  14.884  0.00  0.00    +0.000 F 
ATOM      7  C   UNL     1       4.392   4.530  16.399  0.00  0.00    +0.000 A 
ATOM      8  C   UNL     1       3.583   4.984  17.456  0.00  0.00    +0.000 A 
ATOM      9  C   UNL     1       2.555   4.352  18.194  0.00  0.00    +0.000 A 
ATOM     10  C   UNL     1       1.960   3.077  18.087  0.00  0.00    +0.000 A 
ATOM     11  C   UNL     1       0.993   2.695  18.999  0.00  0.00    +0.000 A 
ATOM     12  F   UNL     1       0.369   1.519  18.862  0.00  0.00    +0.000 F 
ATOM     13  C   UNL     1       0.680   3.503  20.064  0.00  0.00    +0.000 A 
ATOM     14  C   UNL     1       1.285   4.753  20.202  0.00  0.00    +0.000 A 
ATOM     15  C   UNL     1       2.169   5.227  19.215  0.00  0.00    +0.000 A 
ENDROOT
BRANCH   1  16
ATOM     16  C   UNL     1       2.515   7.794  19.548  0.00  0.00    +0.000 C 
BRANCH  16  17
ATOM     17  C   UNL     1       1.655   8.831  18.753  0.00  0.00    +0.000 C 
ATOM     18  C   UNL     1       0.956   8.189  17.542  0.00  0.00    +0.000 C 
BRANCH  17  19
ATOM     19  O   UNL     1       2.636   9.692  18.184  0.00  0.00    +0.000 OA
ATOM     20  H   UNL     1       2.822  10.435  18.795  0.00  0.00    +0.000 HD
ENDBRANCH  17  19
BRANCH  17  21
ATOM     21  C   UNL     1       0.556   9.427  19.701  0.00  0.00    +0.000 C 
BRANCH  21  25
ATOM     22  C   UNL     1      -0.449  13.386  21.882  0.00  0.00    +0.000 C 
ATOM     23  C   UNL     1      -0.416  11.925  21.449  0.00  0.00    +0.000 C 
ATOM     24  C   UNL     1       1.002  11.408  21.130  0.00  0.00    +0.000 C 
ATOM     25  N   UNL     1       0.888   9.899  21.092  0.00  0.00    +0.000 NA
ATOM     26  S   UNL     1       0.004   9.516  22.507  0.00  0.00    +0.000 S 
ATOM     27  O   UNL     1       0.928   9.608  23.611  0.00  0.00    +0.000 OA
ATOM     28  O   UNL     1      -0.817   8.346  22.314  0.00  0.00    +0.000 OA
ATOM     29  C   UNL     1      -0.987  11.005  22.534  0.00  0.00    +0.000 C 
ENDBRANCH  21  25
ENDBRANCH  17  21
ENDBRANCH  16  17
ENDBRANCH   1  16
TORSDOF 5
ENDMDL
MODEL 2
REMARK VINA RESULT:      -7.7      4.260      8.213
REMARK  Name = 
REMARK  7 active torsions:
REMARK  status: ('A' for Active; 'I' for Inactive)
REMARK    1  A    between atoms: C_1  and  C_2
REMARK    2  A    between atoms: N_4  and  C_5
REMARK    3  A    between atoms: C_5  and  C_6
REMARK    4  A    between atoms: C_6  and  C_7
REMARK    5  A    between atoms: C_6  and  O_8
REMARK    6  A    between atoms: C_6  and  C_9
REMARK    7  A    between atoms: C_9  and  N_10
REMARK                            x       y       z     vdW  Elec       q    Type
REMARK                         _______ _______ _______ _____ _____    ______ ____
ROOT
ATOM      1  N   UNL     1      -0.376  10.759  20.197  0.00  0.00    +0.000 N 
ATOM      2  C   UNL     1      -1.173  10.689  19.044  0.00  0.00    +0.000 A 
ATOM      3  C   UNL     1      -1.073   9.907  17.875  0.00  0.00    +0.000 A 
ATOM      4  C   UNL     1      -2.039  10.089  16.874  0.00  0.00    +0.000 A 
ATOM      5  C   UNL     1      -3.055  11.022  17.024  0.00  0.00    +0.000 A 
ATOM      6  F   UNL     1      -3.966  11.176  16.054  0.00  0.00    +0.000 F 
ATOM      7  C   UNL     1      -3.155  11.793  18.171  0.00  0.00    +0.000 A 
ATOM      8  C   UNL     1      -2.206  11.618  19.193  0.00  0.00    +0.000 A 
ATOM      9  C   UNL     1      -2.067  12.226  20.463  0.00  0.00    +0.000 A 
ATOM     10  C   UNL     1      -2.799  13.246  21.110  0.00  0.00    +0.000 A 
ATOM     11  C   UNL     1      -2.467  13.610  22.402  0.00  0.00    +0.000 A 
ATOM     12  F   UNL     1      -3.104  14.626  22.996  0.00  0.00    +0.000 F 
ATOM     13  C   UNL     1      -1.501  12.923  23.095  0.00  0.00    +0.000 A 
ATOM     14  C   UNL     1      -0.792  11.890  22.480  0.00  0.00    +0.000 A 
ATOM     15  C   UNL     1      -1.011  11.589  21.124  0.00  0.00    +0.000 A 
ENDROOT
BRANCH   1  16
ATOM     16  C   UNL     1       0.948  10.094  20.260  0.00  0.00    +0.000 C 
BRANCH  16  17
ATOM     17  C   UNL     1       1.085   8.663  20.876  0.00  0.00    +0.000 C 
ATOM     18  C   UNL     1      -0.246   8.161  21.463  0.00  0.00    +0.000 C 
BRANCH  17  19
ATOM     19  O   UNL     1       1.916   8.879  22.010  0.00  0.00    +0.000 OA
ATOM     20  H   UNL     1       1.975   8.059  22.542  0.00  0.00    +0.000 HD
ENDBRANCH  17  19
BRANCH  17  21
ATOM     21  C   UNL     1       1.542   7.660  19.759  0.00  0.00    +0.000 C 
BRANCH  21  25
ATOM     22  C   UNL     1       1.071   3.079  20.243  0.00  0.00    +0.000 C 
ATOM     23  C   UNL     1       1.415   4.462  19.705  0.00  0.00    +0.000 C 
ATOM     24  C   UNL     1       1.933   5.433  20.786  0.00  0.00    +0.000 C 
ATOM     25  N   UNL     1       2.561   6.586  20.033  0.00  0.00    +0.000 NA
ATOM     26  S   UNL     1       3.542   5.824  18.855  0.00  0.00    +0.000 S 
ATOM     27  O   UNL     1       4.731   5.371  19.534  0.00  0.00    +0.000 OA
ATOM     28  O   UNL     1       3.623   6.611  17.649  0.00  0.00    +0.000 OA
ATOM     29  C   UNL     1       2.498   4.390  18.623  0.00  0.00    +0.000 C 
ENDBRANCH  21  25
ENDBRANCH  17  21
ENDBRANCH  16  17
ENDBRANCH   1  16
TORSDOF 5
ENDMDL
MODEL 3
REMARK VINA RESULT:      -7.6      0.566      3.675
REMARK  Name = 
REMARK  7 active torsions:
REMARK  status: ('A' for Active; 'I' for Inactive)
REMARK    1  A    between atoms: C_1  and  C_2
REMARK    2  A    between atoms: N_4  and  C_5
REMARK    3  A    between atoms: C_5  and  C_6
REMARK    4  A    between atoms: C_6  and  C_7
REMARK    5  A    between atoms: C_6  and  O_8
REMARK    6  A    between atoms: C_6  and  C_9
REMARK    7  A    between atoms: C_9  and  N_10
REMARK                            x       y       z     vdW  Elec       q    Type
REMARK                         _______ _______ _______ _____ _____    ______ ____
ROOT
ATOM      1  N   UNL     1       2.671   6.641  18.855  0.00  0.00    +0.000 N 
ATOM      2  C   UNL     1       2.194   5.409  19.328  0.00  0.00    +0.000 A 
ATOM      3  C   UNL     1       1.213   5.083  20.286  0.00  0.00    +0.000 A 
ATOM      4  C   UNL     1       0.976   3.726  20.556  0.00  0.00    +0.000 A 
ATOM      5  C   UNL     1       1.698   2.735  19.908  0.00  0.00    +0.000 A 
ATOM      6  F   UNL     1       1.453   1.447  20.181  0.00  0.00    +0.000 F 
ATOM      7  C   UNL     1       2.665   3.051  18.967  0.00  0.00    +0.000 A 
ATOM      8  C   UNL     1       2.909   4.404  18.671  0.00  0.00    +0.000 A 
ATOM      9  C   UNL     1       3.794   5.023  17.758  0.00  0.00    +0.000 A 
ATOM     10  C   UNL     1       4.764   4.499  16.875  0.00  0.00    +0.000 A 
ATOM     11  C   UNL     1       5.459   5.353  16.039  0.00  0.00    +0.000 A 
ATOM     12  F   UNL     1       6.432   4.876  15.254  0.00  0.00    +0.000 F 
ATOM     13  C   UNL     1       5.146   6.688  15.987  0.00  0.00    +0.000 A 
ATOM     14  C   UNL     1       4.167   7.216  16.830  0.00  0.00    +0.000 A 
ATOM     15  C   UNL     1       3.539   6.398  17.788  0.00  0.00    +0.000 A 
ENDROOT
BRANCH   1  16
ATOM     16  C   UNL     1       2.313   7.914  19.525  0.00  0.00    +0.000 C 
BRANCH  16  17
ATOM     17  C   UNL     1       1.510   9.014  18.754  0.00  0.00    +0.000 C 
ATOM     18  C   UNL     1       0.761   8.434  17.542  0.00  0.00    +0.000 C 
BRANCH  17  19
ATOM     19  O   UNL     1       2.535   9.822  18.187  0.00  0.00    +0.000 OA
ATOM     20  H   UNL     1       2.436  10.748  18.490  0.00  0.00    +0.000 HD
ENDBRANCH  17  19
BRANCH  17  21
ATOM     21  C   UNL     1       0.459   9.661  19.723  0.00  0.00    +0.000 C 
BRANCH  21  25
ATOM     22  C   UNL     1      -0.618  13.412  22.215  0.00  0.00    +0.000 C 
ATOM     23  C   UNL     1      -0.546  11.989  21.677  0.00  0.00    +0.000 C 
ATOM     24  C   UNL     1       0.879  11.553  21.277  0.00  0.00    +0.000 C 
ATOM     25  N   UNL     1       0.820  10.047  21.133  0.00  0.00    +0.000 NA
ATOM     26  S   UNL     1       0.001   9.530  22.545  0.00  0.00    +0.000 S 
ATOM     27  O   UNL     1       0.958   9.580  23.622  0.00  0.00    +0.000 OA
ATOM     28  O   UNL     1      -0.782   8.344  22.293  0.00  0.00    +0.000 OA
ATOM     29  C   UNL     1      -1.044  10.972  22.709  0.00  0.00    +0.000 C 
ENDBRANCH  21  25
ENDBRANCH  17  21
ENDBRANCH  16  17
ENDBRANCH   1  16
TORSDOF 5
ENDMDL
MODEL 4
REMARK VINA RESULT:      -7.6      1.882      2.119
REMARK  Name = 
REMARK  7 active torsions:
REMARK  status: ('A' for Active; 'I' for Inactive)
REMARK    1  A    between atoms: C_1  and  C_2
REMARK    2  A    between atoms: N_4  and  C_5
REMARK    3  A    between atoms: C_5  and  C_6
REMARK    4  A    between atoms: C_6  and  C_7
REMARK    5  A    between atoms: C_6  and  O_8
REMARK    6  A    between atoms: C_6  and  C_9
REMARK    7  A    between atoms: C_9  and  N_10
REMARK                            x       y       z     vdW  Elec       q    Type
REMARK                         _______ _______ _______ _____ _____    ______ ____
ROOT
ATOM      1  N   UNL     1       3.332   6.779  18.350  0.00  0.00    +0.000 N 
ATOM      2  C   UNL     1       4.112   6.160  17.361  0.00  0.00    +0.000 A 
ATOM      3  C   UNL     1       5.050   6.673  16.442  0.00  0.00    +0.000 A 
ATOM      4  C   UNL     1       5.660   5.776  15.550  0.00  0.00    +0.000 A 
ATOM      5  C   UNL     1       5.337   4.427  15.565  0.00  0.00    +0.000 A 
ATOM      6  F   UNL     1       5.934   3.592  14.705  0.00  0.00    +0.000 F 
ATOM      7  C   UNL     1       4.415   3.920  16.466  0.00  0.00    +0.000 A 
ATOM      8  C   UNL     1       3.802   4.797  17.378  0.00  0.00    +0.000 A 
ATOM      9  C   UNL     1       2.863   4.575  18.412  0.00  0.00    +0.000 A 
ATOM     10  C   UNL     1       2.187   3.413  18.843  0.00  0.00    +0.000 A 
ATOM     11  C   UNL     1       1.349   3.478  19.942  0.00  0.00    +0.000 A 
ATOM     12  F   UNL     1       0.646   2.402  20.313  0.00  0.00    +0.000 F 
ATOM     13  C   UNL     1       1.246   4.635  20.674  0.00  0.00    +0.000 A 
ATOM     14  C   UNL     1       1.934   5.783  20.279  0.00  0.00    +0.000 A 
ATOM     15  C   UNL     1       2.685   5.786  19.089  0.00  0.00    +0.000 A 
ENDROOT
BRANCH   1  16
ATOM     16  C   UNL     1       3.222   8.256  18.431  0.00  0.00    +0.000 C 
BRANCH  16  17
ATOM     17  C   UNL     1       1.857   8.963  18.140  0.00  0.00    +0.000 C 
ATOM     18  C   UNL     1       0.890   8.050  17.367  0.00  0.00    +0.000 C 
BRANCH  17  19
ATOM     19  O   UNL     1       2.213   9.977  17.207  0.00  0.00    +0.000 OA
ATOM     20  H   UNL     1       2.309  10.836  17.668  0.00  0.00    +0.000 HD
ENDBRANCH  17  19
BRANCH  17  21
ATOM     21  C   UNL     1       1.181   9.362  19.499  0.00  0.00    +0.000 C 
BRANCH  21  25
ATOM     22  C   UNL     1      -1.104  11.167  23.099  0.00  0.00    +0.000 C 
ATOM     23  C   UNL     1      -0.196  10.985  21.889  0.00  0.00    +0.000 C 
ATOM     24  C   UNL     1      -0.811  10.102  20.784  0.00  0.00    +0.000 C 
ATOM     25  N   UNL     1       0.037  10.339  19.552  0.00  0.00    +0.000 NA
ATOM     26  S   UNL     1       0.181  12.043  19.473  0.00  0.00    +0.000 S 
ATOM     27  O   UNL     1      -1.064  12.541  18.944  0.00  0.00    +0.000 OA
ATOM     28  O   UNL     1       1.447  12.437  18.904  0.00  0.00    +0.000 OA
ATOM     29  C   UNL     1       0.148  12.329  21.238  0.00  0.00    +0.000 C 
ENDBRANCH  21  25
ENDBRANCH  17  21
ENDBRANCH  16  17
ENDBRANCH   1  16
TORSDOF 5
ENDMDL
MODEL 5
REMARK VINA RESULT:      -7.5      1.477      1.666
REMARK  Name = 
REMARK  7 active torsions:
REMARK  status: ('A' for Active; 'I' for Inactive)
REMARK    1  A    between atoms: C_1  and  C_2
REMARK    2  A    between atoms: N_4  and  C_5
REMARK    3  A    between atoms: C_5  and  C_6
REMARK    4  A    between atoms: C_6  and  C_7
REMARK    5  A    between atoms: C_6  and  O_8
REMARK    6  A    between atoms: C_6  and  C_9
REMARK    7  A    between atoms: C_9  and  N_10
REMARK                            x       y       z     vdW  Elec       q    Type
REMARK                         _______ _______ _______ _____ _____    ______ ____
ROOT
ATOM      1  N   UNL     1       3.337   6.771  18.313  0.00  0.00    +0.000 N 
ATOM      2  C   UNL     1       4.118   6.137  17.334  0.00  0.00    +0.000 A 
ATOM      3  C   UNL     1       5.051   6.637  16.404  0.00  0.00    +0.000 A 
ATOM      4  C   UNL     1       5.663   5.727  15.527  0.00  0.00    +0.000 A 
ATOM      5  C   UNL     1       5.346   4.377  15.567  0.00  0.00    +0.000 A 
ATOM      6  F   UNL     1       5.945   3.529  14.721  0.00  0.00    +0.000 F 
ATOM      7  C   UNL     1       4.428   3.882  16.479  0.00  0.00    +0.000 A 
ATOM      8  C   UNL     1       3.813   4.774  17.376  0.00  0.00    +0.000 A 
ATOM      9  C   UNL     1       2.877   4.567  18.416  0.00  0.00    +0.000 A 
ATOM     10  C   UNL     1       2.207   3.410  18.870  0.00  0.00    +0.000 A 
ATOM     11  C   UNL     1       1.371   3.492  19.969  0.00  0.00    +0.000 A 
ATOM     12  F   UNL     1       0.673   2.419  20.361  0.00  0.00    +0.000 F 
ATOM     13  C   UNL     1       1.264   4.661  20.680  0.00  0.00    +0.000 A 
ATOM     14  C   UNL     1       1.947   5.805  20.263  0.00  0.00    +0.000 A 
ATOM     15  C   UNL     1       2.695   5.789  19.071  0.00  0.00    +0.000 A 
ENDROOT
BRANCH   1  16
ATOM     16  C   UNL     1       3.221   8.248  18.368  0.00  0.00    +0.000 C 
BRANCH  16  17
ATOM     17  C   UNL     1       1.841   8.942  18.121  0.00  0.00    +0.000 C 
ATOM     18  C   UNL     1       0.857   8.017  17.383  0.00  0.00    +0.000 C 
BRANCH  17  19
ATOM     19  O   UNL     1       2.155   9.957  17.174  0.00  0.00    +0.000 OA
ATOM     20  H   UNL     1       1.809  10.819  17.483  0.00  0.00    +0.000 HD
ENDBRANCH  17  19
BRANCH  17  21
ATOM     21  C   UNL     1       1.207   9.338  19.501  0.00  0.00    +0.000 C 
BRANCH  21  25
ATOM     22  C   UNL     1      -2.532  12.026  19.021  0.00  0.00    +0.000 C 
ATOM     23  C   UNL     1      -1.418  11.167  19.604  0.00  0.00    +0.000 C 
ATOM     24  C   UNL     1      -0.043  11.411  18.948  0.00  0.00    +0.000 C 
ATOM     25  N   UNL     1       0.971  10.777  19.875  0.00  0.00    +0.000 NA
ATOM     26  S   UNL     1       0.517  11.338  21.428  0.00  0.00    +0.000 S 
ATOM     27  O   UNL     1       0.988  12.697  21.533  0.00  0.00    +0.000 OA
ATOM     28  O   UNL     1       0.815  10.362  22.447  0.00  0.00    +0.000 OA
ATOM     29  C   UNL     1      -1.241  11.420  21.105  0.00  0.00    +0.000 C 
ENDBRANCH  21  25
ENDBRANCH  17  21
ENDBRANCH  16  17
ENDBRANCH   1  16
TORSDOF 5
ENDMDL
MODEL 6
REMARK VINA RESULT:      -7.4      1.425      3.975
REMARK  Name = 
REMARK  7 active torsions:
REMARK  status: ('A' for Active; 'I' for Inactive)
REMARK    1  A    between atoms: C_1  and  C_2
REMARK    2  A    between atoms: N_4  and  C_5
REMARK    3  A    between atoms: C_5  and  C_6
REMARK    4  A    between atoms: C_6  and  C_7
REMARK    5  A    between atoms: C_6  and  O_8
REMARK    6  A    between atoms: C_6  and  C_9
REMARK    7  A    between atoms: C_9  and  N_10
REMARK                            x       y       z     vdW  Elec       q    Type
REMARK                         _______ _______ _______ _____ _____    ______ ____
ROOT
ATOM      1  N   UNL     1       3.055   6.067  18.516  0.00  0.00    +0.000 N 
ATOM      2  C   UNL     1       2.398   4.877  18.865  0.00  0.00    +0.000 A 
ATOM      3  C   UNL     1       1.351   4.609  19.770  0.00  0.00    +0.000 A 
ATOM      4  C   UNL     1       0.921   3.280  19.909  0.00  0.00    +0.000 A 
ATOM      5  C   UNL     1       1.520   2.259  19.186  0.00  0.00    +0.000 A 
ATOM      6  F   UNL     1       1.091   0.999  19.335  0.00  0.00    +0.000 F 
ATOM      7  C   UNL     1       2.550   2.518  18.296  0.00  0.00    +0.000 A 
ATOM      8  C   UNL     1       2.988   3.844  18.131  0.00  0.00    +0.000 A 
ATOM      9  C   UNL     1       3.978   4.412  17.296  0.00  0.00    +0.000 A 
ATOM     10  C   UNL     1       4.893   3.837  16.388  0.00  0.00    +0.000 A 
ATOM     11  C   UNL     1       5.726   4.656  15.647  0.00  0.00    +0.000 A 
ATOM     12  F   UNL     1       6.648   4.119  14.839  0.00  0.00    +0.000 F 
ATOM     13  C   UNL     1       5.602   6.022  15.713  0.00  0.00    +0.000 A 
ATOM     14  C   UNL     1       4.678   6.605  16.581  0.00  0.00    +0.000 A 
ATOM     15  C   UNL     1       3.914   5.801  17.448  0.00  0.00    +0.000 A 
ENDROOT
BRANCH   1  16
ATOM     16  C   UNL     1       2.854   7.314  19.294  0.00  0.00    +0.000 C 
BRANCH  16  17
ATOM     17  C   UNL     1       1.979   8.474  18.716  0.00  0.00    +0.000 C 
ATOM     18  C   UNL     1       1.027   7.980  17.612  0.00  0.00    +0.000 C 
BRANCH  17  19
ATOM     19  O   UNL     1       2.928   9.284  18.032  0.00  0.00    +0.000 OA
ATOM     20  H   UNL     1       2.492  10.089  17.685  0.00  0.00    +0.000 HD
ENDBRANCH  17  19
BRANCH  17  21
ATOM     21  C   UNL     1       1.116   9.096  19.870  0.00  0.00    +0.000 C 
BRANCH  21  25
ATOM     22  C   UNL     1      -2.163  12.007  18.383  0.00  0.00    +0.000 C 
ATOM     23  C   UNL     1      -1.271  11.138  19.261  0.00  0.00    +0.000 C 
ATOM     24  C   UNL     1       0.217  11.179  18.860  0.00  0.00    +0.000 C 
ATOM     25  N   UNL     1       0.973  10.586  20.030  0.00  0.00    +0.000 NA
ATOM     26  S   UNL     1       0.307  11.378  21.394  0.00  0.00    +0.000 S 
ATOM     27  O   UNL     1       0.895  12.695  21.438  0.00  0.00    +0.000 OA
ATOM     28  O   UNL     1       0.309  10.519  22.554  0.00  0.00    +0.000 OA
ATOM     29  C   UNL     1      -1.344  11.566  20.731  0.00  0.00    +0.000 C 
ENDBRANCH  21  25
ENDBRANCH  17  21
ENDBRANCH  16  17
ENDBRANCH   1  16
TORSDOF 5
ENDMDL
MODEL 7
REMARK VINA RESULT:      -7.4      4.166      8.263
REMARK  Name = 
REMARK  7 active torsions:
REMARK  status: ('A' for Active; 'I' for Inactive)
REMARK    1  A    between atoms: C_1  and  C_2
REMARK    2  A    between atoms: N_4  and  C_5
REMARK    3  A    between atoms: C_5  and  C_6
REMARK    4  A    between atoms: C_6  and  C_7
REMARK    5  A    between atoms: C_6  and  O_8
REMARK    6  A    between atoms: C_6  and  C_9
REMARK    7  A    between atoms: C_9  and  N_10
REMARK                            x       y       z     vdW  Elec       q    Type
REMARK                         _______ _______ _______ _____ _____    ______ ____
ROOT
ATOM      1  N   UNL     1      -0.150  10.922  19.988  0.00  0.00    +0.000 N 
ATOM      2  C   UNL     1      -0.686  11.888  20.852  0.00  0.00    +0.000 A 
ATOM      3  C   UNL     1      -0.175  12.503  22.013  0.00  0.00    +0.000 A 
ATOM      4  C   UNL     1      -0.984  13.438  22.677  0.00  0.00    +0.000 A 
ATOM      5  C   UNL     1      -2.256  13.737  22.212  0.00  0.00    +0.000 A 
ATOM      6  F   UNL     1      -3.008  14.634  22.863  0.00  0.00    +0.000 F 
ATOM      7  C   UNL     1      -2.763  13.134  21.072  0.00  0.00    +0.000 A 
ATOM      8  C   UNL     1      -1.964  12.204  20.383  0.00  0.00    +0.000 A 
ATOM      9  C   UNL     1      -2.192  11.462  19.200  0.00  0.00    +0.000 A 
ATOM     10  C   UNL     1      -3.310  11.364  18.345  0.00  0.00    +0.000 A 
ATOM     11  C   UNL     1      -3.231  10.587  17.203  0.00  0.00    +0.000 A 
ATOM     12  F   UNL     1      -4.308  10.427  16.425  0.00  0.00    +0.000 F 
ATOM     13  C   UNL     1      -2.046   9.994  16.843  0.00  0.00    +0.000 A 
ATOM     14  C   UNL     1      -0.922  10.109  17.662  0.00  0.00    +0.000 A 
ATOM     15  C   UNL     1      -1.010  10.777  18.897  0.00  0.00    +0.000 A 
ENDROOT
BRANCH   1  16
ATOM     16  C   UNL     1       1.085  10.178  20.336  0.00  0.00    +0.000 C 
BRANCH  16  17
ATOM     17  C   UNL     1       0.997   8.736  20.936  0.00  0.00    +0.000 C 
ATOM     18  C   UNL     1      -0.420   8.410  21.440  0.00  0.00    +0.000 C 
BRANCH  17  19
ATOM     19  O   UNL     1       1.783   8.832  22.119  0.00  0.00    +0.000 OA
ATOM     20  H   UNL     1       2.551   9.419  21.962  0.00  0.00    +0.000 HD
ENDBRANCH  17  19
BRANCH  17  21
ATOM     21  C   UNL     1       1.383   7.691  19.831  0.00  0.00    +0.000 C 
BRANCH  21  25
ATOM     22  C   UNL     1       0.998   3.088  20.156  0.00  0.00    +0.000 C 
ATOM     23  C   UNL     1       1.320   4.495  19.669  0.00  0.00    +0.000 C 
ATOM     24  C   UNL     1       1.808   5.439  20.787  0.00  0.00    +0.000 C 
ATOM     25  N   UNL     1       2.420   6.629  20.080  0.00  0.00    +0.000 NA
ATOM     26  S   UNL     1       3.427   5.926  18.887  0.00  0.00    +0.000 S 
ATOM     27  O   UNL     1       4.619   5.474  19.562  0.00  0.00    +0.000 OA
ATOM     28  O   UNL     1       3.504   6.755  17.709  0.00  0.00    +0.000 OA
ATOM     29  C   UNL     1       2.414   4.481  18.595  0.00  0.00    +0.000 C 
ENDBRANCH  21  25
ENDBRANCH  17  21
ENDBRANCH  16  17
ENDBRANCH   1  16
TORSDOF 5
ENDMDL
MODEL 8
REMARK VINA RESULT:      -7.4      1.868      4.181
REMARK  Name = 
REMARK  7 active torsions:
REMARK  status: ('A' for Active; 'I' for Inactive)
REMARK    1  A    between atoms: C_1  and  C_2
REMARK    2  A    between atoms: N_4  and  C_5
REMARK    3  A    between atoms: C_5  and  C_6
REMARK    4  A    between atoms: C_6  and  C_7
REMARK    5  A    between atoms: C_6  and  O_8
REMARK    6  A    between atoms: C_6  and  C_9
REMARK    7  A    between atoms: C_9  and  N_10
REMARK                            x       y       z     vdW  Elec       q    Type
REMARK                         _______ _______ _______ _____ _____    ______ ____
ROOT
ATOM      1  N   UNL     1       3.118   6.028  18.426  0.00  0.00    +0.000 N 
ATOM      2  C   UNL     1       2.433   4.855  18.777  0.00  0.00    +0.000 A 
ATOM      3  C   UNL     1       1.375   4.616  19.678  0.00  0.00    +0.000 A 
ATOM      4  C   UNL     1       0.914   3.298  19.821  0.00  0.00    +0.000 A 
ATOM      5  C   UNL     1       1.494   2.260  19.107  0.00  0.00    +0.000 A 
ATOM      6  F   UNL     1       1.035   1.010  19.260  0.00  0.00    +0.000 F 
ATOM      7  C   UNL     1       2.534   2.491  18.222  0.00  0.00    +0.000 A 
ATOM      8  C   UNL     1       3.003   3.806  18.052  0.00  0.00    +0.000 A 
ATOM      9  C   UNL     1       4.010   4.346  17.220  0.00  0.00    +0.000 A 
ATOM     10  C   UNL     1       4.917   3.746  16.319  0.00  0.00    +0.000 A 
ATOM     11  C   UNL     1       5.772   4.541  15.579  0.00  0.00    +0.000 A 
ATOM     12  F   UNL     1       6.687   3.979  14.779  0.00  0.00    +0.000 F 
ATOM     13  C   UNL     1       5.679   5.910  15.637  0.00  0.00    +0.000 A 
ATOM     14  C   UNL     1       4.764   6.518  16.497  0.00  0.00    +0.000 A 
ATOM     15  C   UNL     1       3.978   5.737  17.364  0.00  0.00    +0.000 A 
ENDROOT
BRANCH   1  16
ATOM     16  C   UNL     1       2.942   7.284  19.196  0.00  0.00    +0.000 C 
BRANCH  16  17
ATOM     17  C   UNL     1       2.042   8.434  18.637  0.00  0.00    +0.000 C 
ATOM     18  C   UNL     1       1.032   7.919  17.596  0.00  0.00    +0.000 C 
BRANCH  17  19
ATOM     19  O   UNL     1       2.957   9.223  17.886  0.00  0.00    +0.000 OA
ATOM     20  H   UNL     1       3.773   8.710  17.709  0.00  0.00    +0.000 HD
ENDBRANCH  17  19
BRANCH  17  21
ATOM     21  C   UNL     1       1.243   9.087  19.819  0.00  0.00    +0.000 C 
BRANCH  21  25
ATOM     22  C   UNL     1      -1.051  11.798  22.790  0.00  0.00    +0.000 C 
ATOM     23  C   UNL     1      -0.084  11.284  21.731  0.00  0.00    +0.000 C 
ATOM     24  C   UNL     1      -0.725  10.289  20.742  0.00  0.00    +0.000 C 
ATOM     25  N   UNL     1       0.242  10.186  19.582  0.00  0.00    +0.000 NA
ATOM     26  S   UNL     1       0.625  11.815  19.218  0.00  0.00    +0.000 S 
ATOM     27  O   UNL     1      -0.495  12.351  18.484  0.00  0.00    +0.000 OA
ATOM     28  O   UNL     1       1.973  11.940  18.722  0.00  0.00    +0.000 OA
ATOM     29  C   UNL     1       0.492  12.430  20.893  0.00  0.00    +0.000 C 
ENDBRANCH  21  25
ENDBRANCH  17  21
ENDBRANCH  16  17
ENDBRANCH   1  16
TORSDOF 5
ENDMDL
MODEL 9
REMARK VINA RESULT:      -7.2      4.470      6.176
REMARK  Name = 
REMARK  7 active torsions:
REMARK  status: ('A' for Active; 'I' for Inactive)
REMARK    1  A    between atoms: C_1  and  C_2
REMARK    2  A    between atoms: N_4  and  C_5
REMARK    3  A    between atoms: C_5  and  C_6
REMARK    4  A    between atoms: C_6  and  C_7
REMARK    5  A    between atoms: C_6  and  O_8
REMARK    6  A    between atoms: C_6  and  C_9
REMARK    7  A    between atoms: C_9  and  N_10
REMARK                            x       y       z     vdW  Elec       q    Type
REMARK                         _______ _______ _______ _____ _____    ______ ____
ROOT
ATOM      1  N   UNL     1       0.192  10.667  19.232  0.00  0.00    +0.000 N 
ATOM      2  C   UNL     1       1.048   9.648  18.786  0.00  0.00    +0.000 A 
ATOM      3  C   UNL     1       1.604   9.370  17.521  0.00  0.00    +0.000 A 
ATOM      4  C   UNL     1       2.426   8.239  17.394  0.00  0.00    +0.000 A 
ATOM      5  C   UNL     1       2.671   7.411  18.479  0.00  0.00    +0.000 A 
ATOM      6  F   UNL     1       3.459   6.339  18.333  0.00  0.00    +0.000 F 
ATOM      7  C   UNL     1       2.125   7.680  19.724  0.00  0.00    +0.000 A 
ATOM      8  C   UNL     1       1.310   8.816  19.878  0.00  0.00    +0.000 A 
ATOM      9  C   UNL     1       0.648   9.353  21.007  0.00  0.00    +0.000 A 
ATOM     10  C   UNL     1       0.539   8.908  22.342  0.00  0.00    +0.000 A 
ATOM     11  C   UNL     1      -0.138   9.681  23.267  0.00  0.00    +0.000 A 
ATOM     12  F   UNL     1      -0.312   9.233  24.516  0.00  0.00    +0.000 F 
ATOM     13  C   UNL     1      -0.618  10.921  22.924  0.00  0.00    +0.000 A 
ATOM     14  C   UNL     1      -0.488  11.390  21.616  0.00  0.00    +0.000 A 
ATOM     15  C   UNL     1       0.073  10.569  20.620  0.00  0.00    +0.000 A 
ENDROOT
BRANCH   1  16
ATOM     16  C   UNL     1      -0.489  11.573  18.276  0.00  0.00    +0.000 C 
BRANCH  16  17
ATOM     17  C   UNL     1      -1.986  11.336  17.891  0.00  0.00    +0.000 C 
ATOM     18  C   UNL     1      -2.342   9.839  17.867  0.00  0.00    +0.000 C 
BRANCH  17  19
ATOM     19  O   UNL     1      -2.034  11.735  16.526  0.00  0.00    +0.000 OA
ATOM     20  H   UNL     1      -2.361  10.996  15.973  0.00  0.00    +0.000 HD
ENDBRANCH  17  19
BRANCH  17  21
ATOM     21  C   UNL     1      -2.910  12.048  18.940  0.00  0.00    +0.000 C 
BRANCH  21  25
ATOM     22  C   UNL     1      -6.431  14.286  20.949  0.00  0.00    +0.000 C 
ATOM     23  C   UNL     1      -5.495  13.659  19.923  0.00  0.00    +0.000 C 
ATOM     24  C   UNL     1      -4.937  12.287  20.355  0.00  0.00    +0.000 C 
ATOM     25  N   UNL     1      -4.358  11.668  19.100  0.00  0.00    +0.000 NA
ATOM     26  S   UNL     1      -5.581  11.900  17.924  0.00  0.00    +0.000 S 
ATOM     27  O   UNL     1      -6.593  10.904  18.177  0.00  0.00    +0.000 OA
ATOM     28  O   UNL     1      -5.017  12.077  16.608  0.00  0.00    +0.000 OA
ATOM     29  C   UNL     1      -6.198  13.446  18.578  0.00  0.00    +0.000 C 
ENDBRANCH  21  25
ENDBRANCH  17  21
ENDBRANCH  16  17
ENDBRANCH   1  16
TORSDOF 5
ENDMDL
