MODEL 1
REMARK VINA RESULT:      -8.6      0.000      0.000
REMARK  Name = 
REMARK  5 active torsions:
REMARK  status: ('A' for Active; 'I' for Inactive)
REMARK    1  A    between atoms: C_1  and  N_2
REMARK    2  A    between atoms: C_4  and  C_5
REMARK    3  A    between atoms: N_7  and  C_8
REMARK    4  A    between atoms: C_11  and  C_12
REMARK    5  A    between atoms: C_18  and  C_19
REMARK                            x       y       z     vdW  Elec       q    Type
REMARK                         _______ _______ _______ _____ _____    ______ ____
ROOT
ATOM      1  C   UNL     1       1.867   8.022  19.427  0.00  0.00    +0.000 C 
ATOM      2  O   UNL     1       2.192   9.024  18.800  0.00  0.00    +0.000 OA
ATOM      3  N   UNL     1       1.058   8.006  20.554  0.00  0.00    +0.000 N 
ATOM      4  H   UNL     1       0.963   7.111  21.041  0.00  0.00    +0.000 HD
ENDROOT
BRANCH   1   8
ATOM      5  C   UNL     1       4.910   5.627  16.430  0.00  0.00    +0.000 C 
ATOM      6  N   UNL     1       3.936   5.536  17.516  0.00  0.00    +0.000 N 
ATOM      7  C   UNL     1       3.330   6.662  18.035  0.00  0.00    +0.000 A 
ATOM      8  C   UNL     1       2.404   6.697  19.015  0.00  0.00    +0.000 A 
ATOM      9  C   UNL     1       2.012   5.399  19.612  0.00  0.00    +0.000 A 
ATOM     10  O   UNL     1       1.232   5.350  20.558  0.00  0.00    +0.000 OA
ATOM     11  C   UNL     1       2.598   4.169  19.029  0.00  0.00    +0.000 A 
ATOM     12  C   UNL     1       2.173   2.928  19.523  0.00  0.00    +0.000 A 
ATOM     13  C   UNL     1       2.716   1.755  19.011  0.00  0.00    +0.000 A 
ATOM     14  C   UNL     1       3.688   1.825  18.018  0.00  0.00    +0.000 A 
ATOM     15  C   UNL     1       4.110   3.065  17.523  0.00  0.00    +0.000 A 
ATOM     16  C   UNL     1       3.566   4.265  18.005  0.00  0.00    +0.000 A 
ENDBRANCH   1   8
BRANCH   3  17
ATOM     17  C   UNL     1       0.524   9.149  21.184  0.00  0.00    +0.000 A 
ATOM     18  C   UNL     1       0.464   9.283  22.562  0.00  0.00    +0.000 A 
ATOM     19  C   UNL     1      -0.248  10.330  23.142  0.00  0.00    +0.000 A 
ATOM     20  C   UNL     1      -0.906  11.318  22.379  0.00  0.00    +0.000 A 
ATOM     21  C   UNL     1      -0.724  11.265  20.974  0.00  0.00    +0.000 A 
ATOM     22  C   UNL     1      -0.012  10.172  20.400  0.00  0.00    +0.000 A 
BRANCH  20  23
ATOM     23  C   UNL     1      -1.758  12.285  23.119  0.00  0.00    +0.000 A 
ATOM     24  C   UNL     1      -3.092  11.987  23.455  0.00  0.00    +0.000 A 
ATOM     25  C   UNL     1      -3.905  12.927  24.086  0.00  0.00    +0.000 A 
ATOM     26  C   UNL     1      -3.360  14.157  24.398  0.00  0.00    +0.000 A 
ATOM     27  N   UNL     1      -2.101  14.511  24.078  0.00  0.00    +0.000 NA
ATOM     28  C   UNL     1      -1.348  13.582  23.434  0.00  0.00    +0.000 A 
ENDBRANCH  20  23
BRANCH  21  29
ATOM     29  C   UNL     1      -1.265  12.271  19.978  0.00  0.00    +0.000 C 
ATOM     30  F   UNL     1      -0.847  13.552  20.138  0.00  0.00    +0.000 F 
ATOM     31  F   UNL     1      -0.936  11.952  18.692  0.00  0.00    +0.000 F 
ATOM     32  F   UNL     1      -2.628  12.317  20.003  0.00  0.00    +0.000 F 
ENDBRANCH  21  29
ENDBRANCH   3  17
TORSDOF 4
ENDMDL
MODEL 2
REMARK VINA RESULT:      -8.5      0.520      1.097
REMARK  Name = 
REMARK  5 active torsions:
REMARK  status: ('A' for Active; 'I' for Inactive)
REMARK    1  A    between atoms: C_1  and  N_2
REMARK    2  A    between atoms: C_4  and  C_5
REMARK    3  A    between atoms: N_7  and  C_8
REMARK    4  A    between atoms: C_11  and  C_12
REMARK    5  A    between atoms: C_18  and  C_19
REMARK                            x       y       z     vdW  Elec       q    Type
REMARK                         _______ _______ _______ _____ _____    ______ ____
ROOT
ATOM      1  C   UNL     1       1.839   8.036  19.457  0.00  0.00    +0.000 C 
ATOM      2  O   UNL     1       2.154   9.034  18.817  0.00  0.00    +0.000 OA
ATOM      3  N   UNL     1       1.041   8.028  20.592  0.00  0.00    +0.000 N 
ATOM      4  H   UNL     1       0.955   7.138  21.088  0.00  0.00    +0.000 HD
ENDROOT
BRANCH   1   8
ATOM      5  C   UNL     1       4.874   5.627  16.464  0.00  0.00    +0.000 C 
ATOM      6  N   UNL     1       3.906   5.541  17.555  0.00  0.00    +0.000 N 
ATOM      7  C   UNL     1       3.299   6.670  18.069  0.00  0.00    +0.000 A 
ATOM      8  C   UNL     1       2.378   6.710  19.053  0.00  0.00    +0.000 A 
ATOM      9  C   UNL     1       1.995   5.416  19.663  0.00  0.00    +0.000 A 
ATOM     10  O   UNL     1       1.220   5.372  20.614  0.00  0.00    +0.000 OA
ATOM     11  C   UNL     1       2.582   4.183  19.087  0.00  0.00    +0.000 A 
ATOM     12  C   UNL     1       2.164   2.945  19.594  0.00  0.00    +0.000 A 
ATOM     13  C   UNL     1       2.709   1.769  19.089  0.00  0.00    +0.000 A 
ATOM     14  C   UNL     1       3.675   1.835  18.090  0.00  0.00    +0.000 A 
ATOM     15  C   UNL     1       4.089   3.071  17.583  0.00  0.00    +0.000 A 
ATOM     16  C   UNL     1       3.544   4.274  18.057  0.00  0.00    +0.000 A 
ENDBRANCH   1   8
BRANCH   3  17
ATOM     17  C   UNL     1       0.508   9.175  21.215  0.00  0.00    +0.000 A 
ATOM     18  C   UNL     1       0.328   9.264  22.586  0.00  0.00    +0.000 A 
ATOM     19  C   UNL     1      -0.383  10.326  23.140  0.00  0.00    +0.000 A 
ATOM     20  C   UNL     1      -0.920  11.373  22.361  0.00  0.00    +0.000 A 
ATOM     21  C   UNL     1      -0.613  11.358  20.977  0.00  0.00    +0.000 A 
ATOM     22  C   UNL     1       0.095  10.250  20.427  0.00  0.00    +0.000 A 
BRANCH  20  23
ATOM     23  C   UNL     1      -1.787  12.356  23.059  0.00  0.00    +0.000 A 
ATOM     24  C   UNL     1      -1.307  13.622  23.444  0.00  0.00    +0.000 A 
ATOM     25  C   UNL     1      -2.106  14.510  24.162  0.00  0.00    +0.000 A 
ATOM     26  C   UNL     1      -3.397  14.126  24.467  0.00  0.00    +0.000 A 
ATOM     27  N   UNL     1      -3.905  12.919  24.151  0.00  0.00    +0.000 NA
ATOM     28  C   UNL     1      -3.086  12.067  23.482  0.00  0.00    +0.000 A 
ENDBRANCH  20  23
BRANCH  21  29
ATOM     29  C   UNL     1      -1.011  12.425  19.977  0.00  0.00    +0.000 C 
ATOM     30  F   UNL     1      -2.339  12.691  19.885  0.00  0.00    +0.000 F 
ATOM     31  F   UNL     1      -0.429  13.629  20.248  0.00  0.00    +0.000 F 
ATOM     32  F   UNL     1      -0.607  12.102  18.714  0.00  0.00    +0.000 F 
ENDBRANCH  21  29
ENDBRANCH   3  17
TORSDOF 4
ENDMDL
MODEL 3
REMARK VINA RESULT:      -8.4      1.860      2.894
REMARK  Name = 
REMARK  5 active torsions:
REMARK  status: ('A' for Active; 'I' for Inactive)
REMARK    1  A    between atoms: C_1  and  N_2
REMARK    2  A    between atoms: C_4  and  C_5
REMARK    3  A    between atoms: N_7  and  C_8
REMARK    4  A    between atoms: C_11  and  C_12
REMARK    5  A    between atoms: C_18  and  C_19
REMARK                            x       y       z     vdW  Elec       q    Type
REMARK                         _______ _______ _______ _____ _____    ______ ____
ROOT
ATOM      1  C   UNL     1       1.841   7.984  19.629  0.00  0.00    +0.000 C 
ATOM      2  O   UNL     1       1.492   7.773  20.785  0.00  0.00    +0.000 OA
ATOM      3  N   UNL     1       1.489   9.094  18.874  0.00  0.00    +0.000 N 
ATOM      4  H   UNL     1       1.759   9.084  17.887  0.00  0.00    +0.000 HD
ENDROOT
BRANCH   1   8
ATOM      5  C   UNL     1       3.422   3.350  19.576  0.00  0.00    +0.000 C 
ATOM      6  N   UNL     1       3.426   4.654  18.915  0.00  0.00    +0.000 N 
ATOM      7  C   UNL     1       2.715   5.722  19.426  0.00  0.00    +0.000 A 
ATOM      8  C   UNL     1       2.664   6.970  18.918  0.00  0.00    +0.000 A 
ATOM      9  C   UNL     1       3.428   7.217  17.673  0.00  0.00    +0.000 A 
ATOM     10  O   UNL     1       3.374   8.304  17.106  0.00  0.00    +0.000 OA
ATOM     11  C   UNL     1       4.251   6.106  17.139  0.00  0.00    +0.000 A 
ATOM     12  C   UNL     1       5.048   6.349  16.011  0.00  0.00    +0.000 A 
ATOM     13  C   UNL     1       5.818   5.324  15.473  0.00  0.00    +0.000 A 
ATOM     14  C   UNL     1       5.781   4.060  16.055  0.00  0.00    +0.000 A 
ATOM     15  C   UNL     1       4.988   3.821  17.183  0.00  0.00    +0.000 A 
ATOM     16  C   UNL     1       4.215   4.839  17.761  0.00  0.00    +0.000 A 
ENDBRANCH   1   8
BRANCH   3  17
ATOM     17  C   UNL     1       0.634  10.128  19.305  0.00  0.00    +0.000 A 
ATOM     18  C   UNL     1       0.958  10.980  20.348  0.00  0.00    +0.000 A 
ATOM     19  C   UNL     1       0.008  11.854  20.871  0.00  0.00    +0.000 A 
ATOM     20  C   UNL     1      -1.303  11.950  20.358  0.00  0.00    +0.000 A 
ATOM     21  C   UNL     1      -1.592  11.186  19.199  0.00  0.00    +0.000 A 
ATOM     22  C   UNL     1      -0.613  10.280  18.696  0.00  0.00    +0.000 A 
BRANCH  20  23
ATOM     23  C   UNL     1      -2.259  12.806  21.107  0.00  0.00    +0.000 A 
ATOM     24  C   UNL     1      -2.997  12.307  22.198  0.00  0.00    +0.000 A 
ATOM     25  C   UNL     1      -3.944  13.096  22.850  0.00  0.00    +0.000 A 
ATOM     26  C   UNL     1      -4.125  14.393  22.413  0.00  0.00    +0.000 A 
ATOM     27  N   UNL     1      -3.471  14.918  21.359  0.00  0.00    +0.000 NA
ATOM     28  C   UNL     1      -2.580  14.110  20.727  0.00  0.00    +0.000 A 
ENDBRANCH  20  23
BRANCH  21  29
ATOM     29  C   UNL     1      -2.901  11.205  18.436  0.00  0.00    +0.000 C 
ATOM     30  F   UNL     1      -3.972  11.705  19.102  0.00  0.00    +0.000 F 
ATOM     31  F   UNL     1      -2.819  11.946  17.292  0.00  0.00    +0.000 F 
ATOM     32  F   UNL     1      -3.263   9.953  18.032  0.00  0.00    +0.000 F 
ENDBRANCH  21  29
ENDBRANCH   3  17
TORSDOF 4
ENDMDL
MODEL 4
REMARK VINA RESULT:      -8.4      3.599      9.876
REMARK  Name = 
REMARK  5 active torsions:
REMARK  status: ('A' for Active; 'I' for Inactive)
REMARK    1  A    between atoms: C_1  and  N_2
REMARK    2  A    between atoms: C_4  and  C_5
REMARK    3  A    between atoms: N_7  and  C_8
REMARK    4  A    between atoms: C_11  and  C_12
REMARK    5  A    between atoms: C_18  and  C_19
REMARK                            x       y       z     vdW  Elec       q    Type
REMARK                         _______ _______ _______ _____ _____    ______ ____
ROOT
ATOM      1  C   UNL     1       0.465  10.540  19.162  0.00  0.00    +0.000 C 
ATOM      2  O   UNL     1       1.428  11.274  19.355  0.00  0.00    +0.000 OA
ATOM      3  N   UNL     1       0.534   9.203  18.795  0.00  0.00    +0.000 N 
ATOM      4  H   UNL     1      -0.349   8.744  18.558  0.00  0.00    +0.000 HD
ENDROOT
BRANCH   1   8
ATOM      5  C   UNL     1      -2.665  13.155  21.871  0.00  0.00    +0.000 C 
ATOM      6  N   UNL     1      -2.441  12.412  20.632  0.00  0.00    +0.000 N 
ATOM      7  C   UNL     1      -1.223  11.823  20.357  0.00  0.00    +0.000 A 
ATOM      8  C   UNL     1      -0.910  11.098  19.264  0.00  0.00    +0.000 A 
ATOM      9  C   UNL     1      -1.971  10.934  18.243  0.00  0.00    +0.000 A 
ATOM     10  O   UNL     1      -1.745  10.352  17.187  0.00  0.00    +0.000 OA
ATOM     11  C   UNL     1      -3.308  11.500  18.543  0.00  0.00    +0.000 A 
ATOM     12  C   UNL     1      -4.346  11.279  17.628  0.00  0.00    +0.000 A 
ATOM     13  C   UNL     1      -5.608  11.812  17.870  0.00  0.00    +0.000 A 
ATOM     14  C   UNL     1      -5.824  12.572  19.015  0.00  0.00    +0.000 A 
ATOM     15  C   UNL     1      -4.787  12.789  19.930  0.00  0.00    +0.000 A 
ATOM     16  C   UNL     1      -3.508  12.248  19.724  0.00  0.00    +0.000 A 
ENDBRANCH   1   8
BRANCH   3  17
ATOM     17  C   UNL     1       1.726   8.494  18.539  0.00  0.00    +0.000 A 
ATOM     18  C   UNL     1       2.647   8.901  17.588  0.00  0.00    +0.000 A 
ATOM     19  C   UNL     1       3.706   8.072  17.226  0.00  0.00    +0.000 A 
ATOM     20  C   UNL     1       3.922   6.810  17.820  0.00  0.00    +0.000 A 
ATOM     21  C   UNL     1       3.067   6.455  18.893  0.00  0.00    +0.000 A 
ATOM     22  C   UNL     1       1.975   7.308  19.231  0.00  0.00    +0.000 A 
BRANCH  20  23
ATOM     23  C   UNL     1       4.991   5.963  17.232  0.00  0.00    +0.000 A 
ATOM     24  C   UNL     1       4.691   4.819  16.468  0.00  0.00    +0.000 A 
ATOM     25  C   UNL     1       5.701   3.990  15.981  0.00  0.00    +0.000 A 
ATOM     26  C   UNL     1       7.012   4.334  16.246  0.00  0.00    +0.000 A 
ATOM     27  N   UNL     1       7.362   5.399  16.992  0.00  0.00    +0.000 NA
ATOM     28  C   UNL     1       6.351   6.164  17.479  0.00  0.00    +0.000 A 
ENDBRANCH  20  23
BRANCH  21  29
ATOM     29  C   UNL     1       3.176   5.194  19.725  0.00  0.00    +0.000 C 
ATOM     30  F   UNL     1       4.429   4.830  20.096  0.00  0.00    +0.000 F 
ATOM     31  F   UNL     1       2.476   5.285  20.894  0.00  0.00    +0.000 F 
ATOM     32  F   UNL     1       2.651   4.117  19.072  0.00  0.00    +0.000 F 
ENDBRANCH  21  29
ENDBRANCH   3  17
TORSDOF 4
ENDMDL
MODEL 5
REMARK VINA RESULT:      -8.3      1.266      2.124
REMARK  Name = 
REMARK  5 active torsions:
REMARK  status: ('A' for Active; 'I' for Inactive)
REMARK    1  A    between atoms: C_1  and  N_2
REMARK    2  A    between atoms: C_4  and  C_5
REMARK    3  A    between atoms: N_7  and  C_8
REMARK    4  A    between atoms: C_11  and  C_12
REMARK    5  A    between atoms: C_18  and  C_19
REMARK                            x       y       z     vdW  Elec       q    Type
REMARK                         _______ _______ _______ _____ _____    ______ ____
ROOT
ATOM      1  C   UNL     1       1.627   7.641  20.175  0.00  0.00    +0.000 C 
ATOM      2  O   UNL     1       2.322   8.552  19.740  0.00  0.00    +0.000 OA
ATOM      3  N   UNL     1       0.532   7.797  21.014  0.00  0.00    +0.000 N 
ATOM      4  H   UNL     1       0.114   6.941  21.390  0.00  0.00    +0.000 HD
ENDROOT
BRANCH   1   8
ATOM      5  C   UNL     1       1.565   2.985  21.688  0.00  0.00    +0.000 C 
ATOM      6  N   UNL     1       1.923   3.923  20.627  0.00  0.00    +0.000 N 
ATOM      7  C   UNL     1       1.672   5.276  20.747  0.00  0.00    +0.000 A 
ATOM      8  C   UNL     1       1.978   6.233  19.848  0.00  0.00    +0.000 A 
ATOM      9  C   UNL     1       2.629   5.789  18.594  0.00  0.00    +0.000 A 
ATOM     10  O   UNL     1       2.873   6.588  17.694  0.00  0.00    +0.000 OA
ATOM     11  C   UNL     1       2.970   4.353  18.467  0.00  0.00    +0.000 A 
ATOM     12  C   UNL     1       3.664   3.930  17.324  0.00  0.00    +0.000 A 
ATOM     13  C   UNL     1       3.983   2.586  17.164  0.00  0.00    +0.000 A 
ATOM     14  C   UNL     1       3.597   1.669  18.137  0.00  0.00    +0.000 A 
ATOM     15  C   UNL     1       2.907   2.093  19.279  0.00  0.00    +0.000 A 
ATOM     16  C   UNL     1       2.589   3.445  19.479  0.00  0.00    +0.000 A 
ENDBRANCH   1   8
BRANCH   3  17
ATOM     17  C   UNL     1       0.080   9.025  21.537  0.00  0.00    +0.000 A 
ATOM     18  C   UNL     1      -0.040   9.259  22.897  0.00  0.00    +0.000 A 
ATOM     19  C   UNL     1      -0.675  10.406  23.366  0.00  0.00    +0.000 A 
ATOM     20  C   UNL     1      -1.192  11.397  22.504  0.00  0.00    +0.000 A 
ATOM     21  C   UNL     1      -0.942  11.230  21.119  0.00  0.00    +0.000 A 
ATOM     22  C   UNL     1      -0.311  10.037  20.659  0.00  0.00    +0.000 A 
BRANCH  20  23
ATOM     23  C   UNL     1      -1.982  12.488  23.130  0.00  0.00    +0.000 A 
ATOM     24  C   UNL     1      -1.401  13.729  23.452  0.00  0.00    +0.000 A 
ATOM     25  C   UNL     1      -2.132  14.722  24.104  0.00  0.00    +0.000 A 
ATOM     26  C   UNL     1      -3.454  14.466  24.406  0.00  0.00    +0.000 A 
ATOM     27  N   UNL     1      -4.059  13.290  24.149  0.00  0.00    +0.000 NA
ATOM     28  C   UNL     1      -3.307  12.335  23.544  0.00  0.00    +0.000 A 
ENDBRANCH  20  23
BRANCH  21  29
ATOM     29  C   UNL     1      -1.328  12.212  20.031  0.00  0.00    +0.000 C 
ATOM     30  F   UNL     1      -0.798  13.457  20.135  0.00  0.00    +0.000 F 
ATOM     31  F   UNL     1      -0.961  11.776  18.790  0.00  0.00    +0.000 F 
ATOM     32  F   UNL     1      -2.680  12.384  19.970  0.00  0.00    +0.000 F 
ENDBRANCH  21  29
ENDBRANCH   3  17
TORSDOF 4
ENDMDL
MODEL 6
REMARK VINA RESULT:      -8.2      1.093      2.546
REMARK  Name = 
REMARK  5 active torsions:
REMARK  status: ('A' for Active; 'I' for Inactive)
REMARK    1  A    between atoms: C_1  and  N_2
REMARK    2  A    between atoms: C_4  and  C_5
REMARK    3  A    between atoms: N_7  and  C_8
REMARK    4  A    between atoms: C_11  and  C_12
REMARK    5  A    between atoms: C_18  and  C_19
REMARK                            x       y       z     vdW  Elec       q    Type
REMARK                         _______ _______ _______ _____ _____    ______ ____
ROOT
ATOM      1  C   UNL     1       1.777   7.253  20.240  0.00  0.00    +0.000 C 
ATOM      2  O   UNL     1       1.138   6.708  21.133  0.00  0.00    +0.000 OA
ATOM      3  N   UNL     1       1.835   8.620  20.013  0.00  0.00    +0.000 N 
ATOM      4  H   UNL     1       2.317   8.926  19.163  0.00  0.00    +0.000 HD
ENDROOT
BRANCH   1   8
ATOM      5  C   UNL     1       3.041   2.713  18.911  0.00  0.00    +0.000 C 
ATOM      6  N   UNL     1       3.128   4.143  18.622  0.00  0.00    +0.000 N 
ATOM      7  C   UNL     1       2.495   5.077  19.418  0.00  0.00    +0.000 A 
ATOM      8  C   UNL     1       2.526   6.417  19.264  0.00  0.00    +0.000 A 
ATOM      9  C   UNL     1       3.295   6.940  18.111  0.00  0.00    +0.000 A 
ATOM     10  O   UNL     1       3.311   8.141  17.857  0.00  0.00    +0.000 OA
ATOM     11  C   UNL     1       4.038   5.964  17.280  0.00  0.00    +0.000 A 
ATOM     12  C   UNL     1       4.842   6.449  16.238  0.00  0.00    +0.000 A 
ATOM     13  C   UNL     1       5.537   5.559  15.427  0.00  0.00    +0.000 A 
ATOM     14  C   UNL     1       5.419   4.191  15.651  0.00  0.00    +0.000 A 
ATOM     15  C   UNL     1       4.619   3.708  16.693  0.00  0.00    +0.000 A 
ATOM     16  C   UNL     1       3.921   4.581  17.541  0.00  0.00    +0.000 A 
ENDBRANCH   1   8
BRANCH   3  17
ATOM     17  C   UNL     1       1.125   9.594  20.744  0.00  0.00    +0.000 A 
ATOM     18  C   UNL     1       0.857   9.463  22.097  0.00  0.00    +0.000 A 
ATOM     19  C   UNL     1      -0.014  10.343  22.736  0.00  0.00    +0.000 A 
ATOM     20  C   UNL     1      -0.635  11.420  22.067  0.00  0.00    +0.000 A 
ATOM     21  C   UNL     1      -0.250  11.641  20.721  0.00  0.00    +0.000 A 
ATOM     22  C   UNL     1       0.624  10.715  20.080  0.00  0.00    +0.000 A 
BRANCH  20  23
ATOM     23  C   UNL     1      -1.659  12.183  22.826  0.00  0.00    +0.000 A 
ATOM     24  C   UNL     1      -1.425  13.500  23.263  0.00  0.00    +0.000 A 
ATOM     25  C   UNL     1      -2.363  14.183  24.035  0.00  0.00    +0.000 A 
ATOM     26  C   UNL     1      -3.546  13.541  24.343  0.00  0.00    +0.000 A 
ATOM     27  N   UNL     1      -3.817  12.273  23.978  0.00  0.00    +0.000 NA
ATOM     28  C   UNL     1      -2.866  11.627  23.255  0.00  0.00    +0.000 A 
ENDBRANCH  20  23
BRANCH  21  29
ATOM     29  C   UNL     1      -0.723  12.786  19.848  0.00  0.00    +0.000 C 
ATOM     30  F   UNL     1      -2.065  12.975  19.788  0.00  0.00    +0.000 F 
ATOM     31  F   UNL     1      -0.216  13.987  20.253  0.00  0.00    +0.000 F 
ATOM     32  F   UNL     1      -0.308  12.635  18.557  0.00  0.00    +0.000 F 
ENDBRANCH  21  29
ENDBRANCH   3  17
TORSDOF 4
ENDMDL
MODEL 7
REMARK VINA RESULT:      -8.2      2.138      3.414
REMARK  Name = 
REMARK  5 active torsions:
REMARK  status: ('A' for Active; 'I' for Inactive)
REMARK    1  A    between atoms: C_1  and  N_2
REMARK    2  A    between atoms: C_4  and  C_5
REMARK    3  A    between atoms: N_7  and  C_8
REMARK    4  A    between atoms: C_11  and  C_12
REMARK    5  A    between atoms: C_18  and  C_19
REMARK                            x       y       z     vdW  Elec       q    Type
REMARK                         _______ _______ _______ _____ _____    ______ ____
ROOT
ATOM      1  C   UNL     1       1.557   8.201  19.826  0.00  0.00    +0.000 C 
ATOM      2  O   UNL     1       1.410   8.149  21.041  0.00  0.00    +0.000 OA
ATOM      3  N   UNL     1       0.916   9.092  18.977  0.00  0.00    +0.000 N 
ATOM      4  H   UNL     1       1.048   8.948  17.972  0.00  0.00    +0.000 HD
ENDROOT
BRANCH   1   8
ATOM      5  C   UNL     1       3.424   3.677  19.951  0.00  0.00    +0.000 C 
ATOM      6  N   UNL     1       3.348   4.951  19.240  0.00  0.00    +0.000 N 
ATOM      7  C   UNL     1       2.571   5.992  19.710  0.00  0.00    +0.000 A 
ATOM      8  C   UNL     1       2.443   7.213  19.153  0.00  0.00    +0.000 A 
ATOM      9  C   UNL     1       3.192   7.459  17.899  0.00  0.00    +0.000 A 
ATOM     10  O   UNL     1       3.071   8.518  17.291  0.00  0.00    +0.000 OA
ATOM     11  C   UNL     1       4.084   6.382  17.408  0.00  0.00    +0.000 A 
ATOM     12  C   UNL     1       4.866   6.630  16.271  0.00  0.00    +0.000 A 
ATOM     13  C   UNL     1       5.700   5.635  15.773  0.00  0.00    +0.000 A 
ATOM     14  C   UNL     1       5.741   4.395  16.403  0.00  0.00    +0.000 A 
ATOM     15  C   UNL     1       4.962   4.151  17.540  0.00  0.00    +0.000 A 
ATOM     16  C   UNL     1       4.126   5.141  18.079  0.00  0.00    +0.000 A 
ENDBRANCH   1   8
BRANCH   3  17
ATOM     17  C   UNL     1      -0.043  10.045  19.377  0.00  0.00    +0.000 A 
ATOM     18  C   UNL     1      -0.767  10.802  18.470  0.00  0.00    +0.000 A 
ATOM     19  C   UNL     1      -1.554  11.866  18.903  0.00  0.00    +0.000 A 
ATOM     20  C   UNL     1      -1.689  12.208  20.266  0.00  0.00    +0.000 A 
ATOM     21  C   UNL     1      -1.066  11.347  21.204  0.00  0.00    +0.000 A 
ATOM     22  C   UNL     1      -0.246  10.279  20.738  0.00  0.00    +0.000 A 
BRANCH  20  23
ATOM     23  C   UNL     1      -2.430  13.458  20.576  0.00  0.00    +0.000 A 
ATOM     24  C   UNL     1      -1.764  14.682  20.771  0.00  0.00    +0.000 A 
ATOM     25  C   UNL     1      -2.460  15.835  21.132  0.00  0.00    +0.000 A 
ATOM     26  C   UNL     1      -3.831  15.751  21.272  0.00  0.00    +0.000 A 
ATOM     27  N   UNL     1      -4.522  14.605  21.127  0.00  0.00    +0.000 NA
ATOM     28  C   UNL     1      -3.807  13.495  20.808  0.00  0.00    +0.000 A 
ENDBRANCH  20  23
BRANCH  21  29
ATOM     29  C   UNL     1      -1.156  11.476  22.711  0.00  0.00    +0.000 C 
ATOM     30  F   UNL     1      -2.405  11.441  23.240  0.00  0.00    +0.000 F 
ATOM     31  F   UNL     1      -0.473  10.485  23.355  0.00  0.00    +0.000 F 
ATOM     32  F   UNL     1      -0.597  12.643  23.147  0.00  0.00    +0.000 F 
ENDBRANCH  21  29
ENDBRANCH   3  17
TORSDOF 4
ENDMDL
MODEL 8
REMARK VINA RESULT:      -8.2      2.155      3.329
REMARK  Name = 
REMARK  5 active torsions:
REMARK  status: ('A' for Active; 'I' for Inactive)
REMARK    1  A    between atoms: C_1  and  N_2
REMARK    2  A    between atoms: C_4  and  C_5
REMARK    3  A    between atoms: N_7  and  C_8
REMARK    4  A    between atoms: C_11  and  C_12
REMARK    5  A    between atoms: C_18  and  C_19
REMARK                            x       y       z     vdW  Elec       q    Type
REMARK                         _______ _______ _______ _____ _____    ______ ____
ROOT
ATOM      1  C   UNL     1       1.463   8.410  19.929  0.00  0.00    +0.000 C 
ATOM      2  O   UNL     1       1.400   8.433  21.153  0.00  0.00    +0.000 OA
ATOM      3  N   UNL     1       0.756   9.242  19.072  0.00  0.00    +0.000 N 
ATOM      4  H   UNL     1       0.821   9.035  18.072  0.00  0.00    +0.000 HD
ENDROOT
BRANCH   1   8
ATOM      5  C   UNL     1       3.181   3.827  20.081  0.00  0.00    +0.000 C 
ATOM      6  N   UNL     1       3.143   5.098  19.360  0.00  0.00    +0.000 N 
ATOM      7  C   UNL     1       2.403   6.167  19.826  0.00  0.00    +0.000 A 
ATOM      8  C   UNL     1       2.313   7.388  19.260  0.00  0.00    +0.000 A 
ATOM      9  C   UNL     1       3.063   7.600  18.001  0.00  0.00    +0.000 A 
ATOM     10  O   UNL     1       2.974   8.657  17.384  0.00  0.00    +0.000 OA
ATOM     11  C   UNL     1       3.917   6.490  17.514  0.00  0.00    +0.000 A 
ATOM     12  C   UNL     1       4.700   6.704  16.371  0.00  0.00    +0.000 A 
ATOM     13  C   UNL     1       5.499   5.678  15.877  0.00  0.00    +0.000 A 
ATOM     14  C   UNL     1       5.502   4.442  16.516  0.00  0.00    +0.000 A 
ATOM     15  C   UNL     1       4.721   4.232  17.659  0.00  0.00    +0.000 A 
ATOM     16  C   UNL     1       3.921   5.253  18.194  0.00  0.00    +0.000 A 
ENDBRANCH   1   8
BRANCH   3  17
ATOM     17  C   UNL     1      -0.185  10.210  19.477  0.00  0.00    +0.000 A 
ATOM     18  C   UNL     1      -0.881  10.997  18.575  0.00  0.00    +0.000 A 
ATOM     19  C   UNL     1      -1.648  12.073  19.016  0.00  0.00    +0.000 A 
ATOM     20  C   UNL     1      -1.789  12.398  20.383  0.00  0.00    +0.000 A 
ATOM     21  C   UNL     1      -1.196  11.509  21.314  0.00  0.00    +0.000 A 
ATOM     22  C   UNL     1      -0.396  10.428  20.840  0.00  0.00    +0.000 A 
BRANCH  20  23
ATOM     23  C   UNL     1      -2.503  13.660  20.704  0.00  0.00    +0.000 A 
ATOM     24  C   UNL     1      -3.899  13.692  20.891  0.00  0.00    +0.000 A 
ATOM     25  C   UNL     1      -4.570  14.891  21.122  0.00  0.00    +0.000 A 
ATOM     26  C   UNL     1      -3.826  16.053  21.188  0.00  0.00    +0.000 A 
ATOM     27  N   UNL     1      -2.494  16.092  20.990  0.00  0.00    +0.000 NA
ATOM     28  C   UNL     1      -1.879  14.908  20.734  0.00  0.00    +0.000 A 
ENDBRANCH  20  23
BRANCH  21  29
ATOM     29  C   UNL     1      -1.297  11.618  22.821  0.00  0.00    +0.000 C 
ATOM     30  F   UNL     1      -0.834  12.770  23.369  0.00  0.00    +0.000 F 
ATOM     31  F   UNL     1      -2.586  11.513  23.260  0.00  0.00    +0.000 F 
ATOM     32  F   UNL     1      -0.619  10.610  23.443  0.00  0.00    +0.000 F 
ENDBRANCH  21  29
ENDBRANCH   3  17
TORSDOF 4
ENDMDL
MODEL 9
REMARK VINA RESULT:      -8.2      1.185      2.064
REMARK  Name = 
REMARK  5 active torsions:
REMARK  status: ('A' for Active; 'I' for Inactive)
REMARK    1  A    between atoms: C_1  and  N_2
REMARK    2  A    between atoms: C_4  and  C_5
REMARK    3  A    between atoms: N_7  and  C_8
REMARK    4  A    between atoms: C_11  and  C_12
REMARK    5  A    between atoms: C_18  and  C_19
REMARK                            x       y       z     vdW  Elec       q    Type
REMARK                         _______ _______ _______ _____ _____    ______ ____
ROOT
ATOM      1  C   UNL     1       1.622   7.619  20.145  0.00  0.00    +0.000 C 
ATOM      2  O   UNL     1       2.289   8.531  19.670  0.00  0.00    +0.000 OA
ATOM      3  N   UNL     1       0.558   7.773  21.021  0.00  0.00    +0.000 N 
ATOM      4  H   UNL     1       0.166   6.919  21.426  0.00  0.00    +0.000 HD
ENDROOT
BRANCH   1   8
ATOM      5  C   UNL     1       1.560   2.969  21.678  0.00  0.00    +0.000 C 
ATOM      6  N   UNL     1       1.925   3.904  20.616  0.00  0.00    +0.000 N 
ATOM      7  C   UNL     1       1.669   5.256  20.728  0.00  0.00    +0.000 A 
ATOM      8  C   UNL     1       1.981   6.210  19.828  0.00  0.00    +0.000 A 
ATOM      9  C   UNL     1       2.645   5.762  18.581  0.00  0.00    +0.000 A 
ATOM     10  O   UNL     1       2.894   6.557  17.680  0.00  0.00    +0.000 OA
ATOM     11  C   UNL     1       2.990   4.326  18.463  0.00  0.00    +0.000 A 
ATOM     12  C   UNL     1       3.696   3.901  17.329  0.00  0.00    +0.000 A 
ATOM     13  C   UNL     1       4.020   2.557  17.178  0.00  0.00    +0.000 A 
ATOM     14  C   UNL     1       3.629   1.643  18.152  0.00  0.00    +0.000 A 
ATOM     15  C   UNL     1       2.927   2.070  19.285  0.00  0.00    +0.000 A 
ATOM     16  C   UNL     1       2.603   3.422  19.476  0.00  0.00    +0.000 A 
ENDBRANCH   1   8
BRANCH   3  17
ATOM     17  C   UNL     1       0.109   9.004  21.541  0.00  0.00    +0.000 A 
ATOM     18  C   UNL     1      -0.000   9.245  22.901  0.00  0.00    +0.000 A 
ATOM     19  C   UNL     1      -0.633  10.395  23.369  0.00  0.00    +0.000 A 
ATOM     20  C   UNL     1      -1.158  11.380  22.506  0.00  0.00    +0.000 A 
ATOM     21  C   UNL     1      -0.920  11.206  21.119  0.00  0.00    +0.000 A 
ATOM     22  C   UNL     1      -0.292  10.011  20.661  0.00  0.00    +0.000 A 
BRANCH  20  23
ATOM     23  C   UNL     1      -1.945  12.474  23.132  0.00  0.00    +0.000 A 
ATOM     24  C   UNL     1      -3.330  12.353  23.354  0.00  0.00    +0.000 A 
ATOM     25  C   UNL     1      -4.073  13.411  23.876  0.00  0.00    +0.000 A 
ATOM     26  C   UNL     1      -3.409  14.580  24.194  0.00  0.00    +0.000 A 
ATOM     27  N   UNL     1      -2.093  14.766  23.979  0.00  0.00    +0.000 NA
ATOM     28  C   UNL     1      -1.408  13.725  23.438  0.00  0.00    +0.000 A 
ENDBRANCH  20  23
BRANCH  21  29
ATOM     29  C   UNL     1      -1.316  12.180  20.029  0.00  0.00    +0.000 C 
ATOM     30  F   UNL     1      -1.020  11.807  18.758  0.00  0.00    +0.000 F 
ATOM     31  F   UNL     1      -2.659  12.425  20.020  0.00  0.00    +0.000 F 
ATOM     32  F   UNL     1      -0.727  13.398  20.208  0.00  0.00    +0.000 F 
ENDBRANCH  21  29
ENDBRANCH   3  17
TORSDOF 4
ENDMDL
