MODEL 1
REMARK VINA RESULT:      -8.7      0.000      0.000
REMARK  Name = 
REMARK  9 active torsions:
REMARK  status: ('A' for Active; 'I' for Inactive)
REMARK    1  A    between atoms: C_1  and  C_2
REMARK    2  A    between atoms: C_4  and  N_5
REMARK    3  A    between atoms: N_5  and  C_6
REMARK    4  A    between atoms: C_9  and  C_10
REMARK    5  A    between atoms: C_14  and  C_15
REMARK    6  A    between atoms: C_15  and  O_17
REMARK    7  A    between atoms: C_20  and  C_21
REMARK    8  A    between atoms: C_25  and  O_26
REMARK    9  A    between atoms: O_26  and  C_27
REMARK                            x       y       z     vdW  Elec       q    Type
REMARK                         _______ _______ _______ _____ _____    ______ ____
ROOT
ATOM      1  C   UNL     1      -0.140   8.675  22.115  0.00  0.00    +0.000 C 
ATOM      2  C   UNL     1       0.728   8.581  20.894  0.00  0.00    +0.000 A 
ATOM      3  C   UNL     1       1.649   7.515  20.811  0.00  0.00    +0.000 A 
ATOM      4  C   UNL     1       2.409   7.304  19.661  0.00  0.00    +0.000 A 
ATOM      5  C   UNL     1       2.224   8.214  18.634  0.00  0.00    +0.000 A 
ATOM      6  N   UNL     1       1.389   9.279  18.689  0.00  0.00    +0.000 NA
ATOM      7  C   UNL     1       0.638   9.469  19.810  0.00  0.00    +0.000 A 
ENDROOT
BRANCH   7   8
ATOM      8  C   UNL     1      -0.257  10.650  19.711  0.00  0.00    +0.000 A 
ATOM      9  C   UNL     1       0.055  11.911  20.254  0.00  0.00    +0.000 A 
ATOM     10  C   UNL     1      -0.813  12.996  20.139  0.00  0.00    +0.000 A 
ATOM     11  C   UNL     1      -1.980  12.873  19.394  0.00  0.00    +0.000 A 
ATOM     12  C   UNL     1      -2.289  11.661  18.774  0.00  0.00    +0.000 A 
ATOM     13  C   UNL     1      -1.463  10.556  18.993  0.00  0.00    +0.000 A 
BRANCH  12  14
ATOM     14  O   UNL     1      -3.420  11.662  18.021  0.00  0.00    +0.000 OA
BRANCH  14  15
ATOM     15  C   UNL     1      -3.401  11.043  16.741  0.00  0.00    +0.000 C 
ATOM     16  F   UNL     1      -3.338   9.694  16.754  0.00  0.00    +0.000 F 
ATOM     17  F   UNL     1      -4.506  11.416  16.057  0.00  0.00    +0.000 F 
ATOM     18  F   UNL     1      -2.319  11.490  16.061  0.00  0.00    +0.000 F 
ENDBRANCH  14  15
ENDBRANCH  12  14
ENDBRANCH   7   8
BRANCH   4  19
ATOM     19  N   UNL     1       3.237   6.169  19.551  0.00  0.00    +0.000 N 
ATOM     20  H   UNL     1       3.006   5.455  20.250  0.00  0.00    +0.000 HD
BRANCH  19  21
ATOM     21  C   UNL     1       3.804   5.622  18.370  0.00  0.00    +0.000 A 
ATOM     22  C   UNL     1       4.874   6.291  17.759  0.00  0.00    +0.000 A 
ATOM     23  C   UNL     1       5.563   5.735  16.683  0.00  0.00    +0.000 A 
ATOM     24  C   UNL     1       5.249   4.464  16.193  0.00  0.00    +0.000 A 
ATOM     25  C   UNL     1       4.149   3.808  16.762  0.00  0.00    +0.000 A 
ATOM     26  C   UNL     1       3.417   4.376  17.828  0.00  0.00    +0.000 A 
BRANCH  24  27
ATOM     27  C   UNL     1       6.104   3.838  15.120  0.00  0.00    +0.000 C 
ATOM     28  C   UNL     1       5.632   3.981  13.687  0.00  0.00    +0.000 C 
ATOM     29  C   UNL     1       6.885   4.667  14.130  0.00  0.00    +0.000 C 
ENDBRANCH  24  27
BRANCH  26  30
ATOM     30  C   UNL     1       2.268   3.631  18.399  0.00  0.00    +0.000 C 
ATOM     31  O   UNL     1       1.298   3.294  17.730  0.00  0.00    +0.000 OA
BRANCH  30  32
ATOM     32  O   UNL     1       2.392   3.298  19.704  0.00  0.00    +0.000 OA
ATOM     33  H   UNL     1       2.990   3.863  20.233  0.00  0.00    +0.000 HD
ENDBRANCH  30  32
ENDBRANCH  26  30
ENDBRANCH  19  21
ENDBRANCH   4  19
TORSDOF 8
ENDMDL
MODEL 2
REMARK VINA RESULT:      -8.4      3.497      9.490
REMARK  Name = 
REMARK  9 active torsions:
REMARK  status: ('A' for Active; 'I' for Inactive)
REMARK    1  A    between atoms: C_1  and  C_2
REMARK    2  A    between atoms: C_4  and  N_5
REMARK    3  A    between atoms: N_5  and  C_6
REMARK    4  A    between atoms: C_9  and  C_10
REMARK    5  A    between atoms: C_14  and  C_15
REMARK    6  A    between atoms: C_15  and  O_17
REMARK    7  A    between atoms: C_20  and  C_21
REMARK    8  A    between atoms: C_25  and  O_26
REMARK    9  A    between atoms: O_26  and  C_27
REMARK                            x       y       z     vdW  Elec       q    Type
REMARK                         _______ _______ _______ _____ _____    ______ ____
ROOT
ATOM      1  C   UNL     1       1.616   7.075  20.868  0.00  0.00    +0.000 C 
ATOM      2  C   UNL     1       1.628   8.111  19.782  0.00  0.00    +0.000 A 
ATOM      3  C   UNL     1       1.063   9.374  20.058  0.00  0.00    +0.000 A 
ATOM      4  C   UNL     1       1.137  10.417  19.136  0.00  0.00    +0.000 A 
ATOM      5  C   UNL     1       1.763  10.125  17.936  0.00  0.00    +0.000 A 
ATOM      6  N   UNL     1       2.274   8.914  17.607  0.00  0.00    +0.000 NA
ATOM      7  C   UNL     1       2.213   7.905  18.521  0.00  0.00    +0.000 A 
ENDROOT
BRANCH   7   8
ATOM      8  C   UNL     1       2.847   6.651  18.039  0.00  0.00    +0.000 A 
ATOM      9  C   UNL     1       4.225   6.525  17.783  0.00  0.00    +0.000 A 
ATOM     10  C   UNL     1       4.783   5.329  17.332  0.00  0.00    +0.000 A 
ATOM     11  C   UNL     1       3.986   4.196  17.214  0.00  0.00    +0.000 A 
ATOM     12  C   UNL     1       2.629   4.259  17.533  0.00  0.00    +0.000 A 
ATOM     13  C   UNL     1       2.068   5.491  17.876  0.00  0.00    +0.000 A 
BRANCH  12  14
ATOM     14  O   UNL     1       1.951   3.084  17.441  0.00  0.00    +0.000 OA
BRANCH  14  15
ATOM     15  C   UNL     1       1.613   2.384  18.632  0.00  0.00    +0.000 C 
ATOM     16  F   UNL     1       0.386   1.824  18.642  0.00  0.00    +0.000 F 
ATOM     17  F   UNL     1       2.531   1.414  18.846  0.00  0.00    +0.000 F 
ATOM     18  F   UNL     1       1.671   3.248  19.672  0.00  0.00    +0.000 F 
ENDBRANCH  14  15
ENDBRANCH  12  14
ENDBRANCH   7   8
BRANCH   4  19
ATOM     19  N   UNL     1       0.672  11.704  19.474  0.00  0.00    +0.000 N 
ATOM     20  H   UNL     1       0.818  12.378  18.715  0.00  0.00    +0.000 HD
BRANCH  19  21
ATOM     21  C   UNL     1      -0.433  12.035  20.301  0.00  0.00    +0.000 A 
ATOM     22  C   UNL     1      -0.203  12.344  21.649  0.00  0.00    +0.000 A 
ATOM     23  C   UNL     1      -1.223  12.812  22.476  0.00  0.00    +0.000 A 
ATOM     24  C   UNL     1      -2.512  13.040  21.986  0.00  0.00    +0.000 A 
ATOM     25  C   UNL     1      -2.767  12.687  20.654  0.00  0.00    +0.000 A 
ATOM     26  C   UNL     1      -1.753  12.176  19.815  0.00  0.00    +0.000 A 
BRANCH  24  27
ATOM     27  C   UNL     1      -3.553  13.677  22.872  0.00  0.00    +0.000 C 
ATOM     28  C   UNL     1      -4.260  12.778  23.866  0.00  0.00    +0.000 C 
ATOM     29  C   UNL     1      -3.344  13.854  24.356  0.00  0.00    +0.000 C 
ENDBRANCH  24  27
BRANCH  26  30
ATOM     30  C   UNL     1      -2.077  11.828  18.409  0.00  0.00    +0.000 C 
ATOM     31  O   UNL     1      -2.939  11.010  18.110  0.00  0.00    +0.000 OA
BRANCH  30  32
ATOM     32  O   UNL     1      -1.392  12.525  17.474  0.00  0.00    +0.000 OA
ATOM     33  H   UNL     1      -1.861  12.681  16.630  0.00  0.00    +0.000 HD
ENDBRANCH  30  32
ENDBRANCH  26  30
ENDBRANCH  19  21
ENDBRANCH   4  19
TORSDOF 8
ENDMDL
MODEL 3
REMARK VINA RESULT:      -8.3      0.794      1.114
REMARK  Name = 
REMARK  9 active torsions:
REMARK  status: ('A' for Active; 'I' for Inactive)
REMARK    1  A    between atoms: C_1  and  C_2
REMARK    2  A    between atoms: C_4  and  N_5
REMARK    3  A    between atoms: N_5  and  C_6
REMARK    4  A    between atoms: C_9  and  C_10
REMARK    5  A    between atoms: C_14  and  C_15
REMARK    6  A    between atoms: C_15  and  O_17
REMARK    7  A    between atoms: C_20  and  C_21
REMARK    8  A    between atoms: C_25  and  O_26
REMARK    9  A    between atoms: O_26  and  C_27
REMARK                            x       y       z     vdW  Elec       q    Type
REMARK                         _______ _______ _______ _____ _____    ______ ____
ROOT
ATOM      1  C   UNL     1       0.386   8.751  21.882  0.00  0.00    +0.000 C 
ATOM      2  C   UNL     1       1.079   8.560  20.565  0.00  0.00    +0.000 A 
ATOM      3  C   UNL     1       2.037   7.529  20.459  0.00  0.00    +0.000 A 
ATOM      4  C   UNL     1       2.639   7.224  19.239  0.00  0.00    +0.000 A 
ATOM      5  C   UNL     1       2.264   8.009  18.163  0.00  0.00    +0.000 A 
ATOM      6  N   UNL     1       1.389   9.040  18.228  0.00  0.00    +0.000 NA
ATOM      7  C   UNL     1       0.792   9.321  19.421  0.00  0.00    +0.000 A 
ENDROOT
BRANCH   7   8
ATOM      8  C   UNL     1      -0.172  10.448  19.332  0.00  0.00    +0.000 A 
ATOM      9  C   UNL     1      -0.191  11.529  20.234  0.00  0.00    +0.000 A 
ATOM     10  C   UNL     1      -1.111  12.569  20.116  0.00  0.00    +0.000 A 
ATOM     11  C   UNL     1      -1.982  12.603  19.033  0.00  0.00    +0.000 A 
ATOM     12  C   UNL     1      -1.943  11.591  18.073  0.00  0.00    +0.000 A 
ATOM     13  C   UNL     1      -1.091  10.502  18.268  0.00  0.00    +0.000 A 
BRANCH  12  14
ATOM     14  O   UNL     1      -2.792  11.748  17.023  0.00  0.00    +0.000 OA
BRANCH  14  15
ATOM     15  C   UNL     1      -4.119  11.247  17.124  0.00  0.00    +0.000 C 
ATOM     16  F   UNL     1      -4.624  10.723  15.987  0.00  0.00    +0.000 F 
ATOM     17  F   UNL     1      -4.157  10.300  18.089  0.00  0.00    +0.000 F 
ATOM     18  F   UNL     1      -4.936  12.258  17.500  0.00  0.00    +0.000 F 
ENDBRANCH  14  15
ENDBRANCH  12  14
ENDBRANCH   7   8
BRANCH   4  19
ATOM     19  N   UNL     1       3.505   6.117  19.127  0.00  0.00    +0.000 N 
ATOM     20  H   UNL     1       3.290   5.389  19.818  0.00  0.00    +0.000 HD
BRANCH  19  21
ATOM     21  C   UNL     1       4.101   5.600  17.948  0.00  0.00    +0.000 A 
ATOM     22  C   UNL     1       5.130   6.326  17.334  0.00  0.00    +0.000 A 
ATOM     23  C   UNL     1       5.849   5.807  16.258  0.00  0.00    +0.000 A 
ATOM     24  C   UNL     1       5.606   4.519  15.772  0.00  0.00    +0.000 A 
ATOM     25  C   UNL     1       4.546   3.804  16.344  0.00  0.00    +0.000 A 
ATOM     26  C   UNL     1       3.784   4.332  17.409  0.00  0.00    +0.000 A 
BRANCH  24  27
ATOM     27  C   UNL     1       6.494   3.939  14.700  0.00  0.00    +0.000 C 
ATOM     28  C   UNL     1       5.941   3.898  13.289  0.00  0.00    +0.000 C 
ATOM     29  C   UNL     1       7.098   4.791  13.610  0.00  0.00    +0.000 C 
ENDBRANCH  24  27
BRANCH  26  30
ATOM     30  C   UNL     1       2.679   3.526  17.984  0.00  0.00    +0.000 C 
ATOM     31  O   UNL     1       2.762   2.966  19.071  0.00  0.00    +0.000 OA
BRANCH  30  32
ATOM     32  O   UNL     1       1.545   3.500  17.246  0.00  0.00    +0.000 OA
ATOM     33  H   UNL     1       0.813   4.060  17.571  0.00  0.00    +0.000 HD
ENDBRANCH  30  32
ENDBRANCH  26  30
ENDBRANCH  19  21
ENDBRANCH   4  19
TORSDOF 8
ENDMDL
MODEL 4
REMARK VINA RESULT:      -8.1      1.775      1.978
REMARK  Name = 
REMARK  9 active torsions:
REMARK  status: ('A' for Active; 'I' for Inactive)
REMARK    1  A    between atoms: C_1  and  C_2
REMARK    2  A    between atoms: C_4  and  N_5
REMARK    3  A    between atoms: N_5  and  C_6
REMARK    4  A    between atoms: C_9  and  C_10
REMARK    5  A    between atoms: C_14  and  C_15
REMARK    6  A    between atoms: C_15  and  O_17
REMARK    7  A    between atoms: C_20  and  C_21
REMARK    8  A    between atoms: C_25  and  O_26
REMARK    9  A    between atoms: O_26  and  C_27
REMARK                            x       y       z     vdW  Elec       q    Type
REMARK                         _______ _______ _______ _____ _____    ______ ____
ROOT
ATOM      1  C   UNL     1       0.634   9.178  22.172  0.00  0.00    +0.000 C 
ATOM      2  C   UNL     1       1.166   8.848  20.808  0.00  0.00    +0.000 A 
ATOM      3  C   UNL     1       1.843   7.621  20.636  0.00  0.00    +0.000 A 
ATOM      4  C   UNL     1       2.267   7.201  19.376  0.00  0.00    +0.000 A 
ATOM      5  C   UNL     1       2.012   8.068  18.327  0.00  0.00    +0.000 A 
ATOM      6  N   UNL     1       1.412   9.275  18.453  0.00  0.00    +0.000 NA
ATOM      7  C   UNL     1       0.985   9.672  19.686  0.00  0.00    +0.000 A 
ENDROOT
BRANCH   7   8
ATOM      8  C   UNL     1       0.311  10.995  19.665  0.00  0.00    +0.000 A 
ATOM      9  C   UNL     1       1.004  12.220  19.626  0.00  0.00    +0.000 A 
ATOM     10  C   UNL     1       0.334  13.443  19.605  0.00  0.00    +0.000 A 
ATOM     11  C   UNL     1      -1.054  13.470  19.531  0.00  0.00    +0.000 A 
ATOM     12  C   UNL     1      -1.775  12.277  19.489  0.00  0.00    +0.000 A 
ATOM     13  C   UNL     1      -1.093  11.065  19.621  0.00  0.00    +0.000 A 
BRANCH  12  14
ATOM     14  O   UNL     1      -3.121  12.411  19.355  0.00  0.00    +0.000 OA
BRANCH  14  15
ATOM     15  C   UNL     1      -3.903  12.732  20.499  0.00  0.00    +0.000 C 
ATOM     16  F   UNL     1      -3.359  12.383  21.684  0.00  0.00    +0.000 F 
ATOM     17  F   UNL     1      -4.138  14.064  20.509  0.00  0.00    +0.000 F 
ATOM     18  F   UNL     1      -5.095  12.099  20.399  0.00  0.00    +0.000 F 
ENDBRANCH  14  15
ENDBRANCH  12  14
ENDBRANCH   7   8
BRANCH   4  19
ATOM     19  N   UNL     1       2.836   5.923  19.204  0.00  0.00    +0.000 N 
ATOM     20  H   UNL     1       2.286   5.191  19.666  0.00  0.00    +0.000 HD
BRANCH  19  21
ATOM     21  C   UNL     1       3.562   5.442  18.083  0.00  0.00    +0.000 A 
ATOM     22  C   UNL     1       4.626   6.207  17.585  0.00  0.00    +0.000 A 
ATOM     23  C   UNL     1       5.464   5.727  16.580  0.00  0.00    +0.000 A 
ATOM     24  C   UNL     1       5.310   4.440  16.055  0.00  0.00    +0.000 A 
ATOM     25  C   UNL     1       4.220   3.685  16.509  0.00  0.00    +0.000 A 
ATOM     26  C   UNL     1       3.340   4.174  17.499  0.00  0.00    +0.000 A 
BRANCH  24  27
ATOM     27  C   UNL     1       6.318   3.903  15.070  0.00  0.00    +0.000 C 
ATOM     28  C   UNL     1       5.908   3.865  13.611  0.00  0.00    +0.000 C 
ATOM     29  C   UNL     1       6.998   4.789  14.055  0.00  0.00    +0.000 C 
ENDBRANCH  24  27
BRANCH  26  30
ATOM     30  C   UNL     1       2.208   3.327  17.949  0.00  0.00    +0.000 C 
ATOM     31  O   UNL     1       1.183   3.793  18.433  0.00  0.00    +0.000 OA
BRANCH  30  32
ATOM     32  O   UNL     1       2.364   2.001  17.734  0.00  0.00    +0.000 OA
ATOM     33  H   UNL     1       1.699   1.583  17.150  0.00  0.00    +0.000 HD
ENDBRANCH  30  32
ENDBRANCH  26  30
ENDBRANCH  19  21
ENDBRANCH   4  19
TORSDOF 8
ENDMDL
MODEL 5
REMARK VINA RESULT:      -8.1      3.784      9.687
REMARK  Name = 
REMARK  9 active torsions:
REMARK  status: ('A' for Active; 'I' for Inactive)
REMARK    1  A    between atoms: C_1  and  C_2
REMARK    2  A    between atoms: C_4  and  N_5
REMARK    3  A    between atoms: N_5  and  C_6
REMARK    4  A    between atoms: C_9  and  C_10
REMARK    5  A    between atoms: C_14  and  C_15
REMARK    6  A    between atoms: C_15  and  O_17
REMARK    7  A    between atoms: C_20  and  C_21
REMARK    8  A    between atoms: C_25  and  O_26
REMARK    9  A    between atoms: O_26  and  C_27
REMARK                            x       y       z     vdW  Elec       q    Type
REMARK                         _______ _______ _______ _____ _____    ______ ____
ROOT
ATOM      1  C   UNL     1       1.861   6.693  20.807  0.00  0.00    +0.000 C 
ATOM      2  C   UNL     1       1.760   7.804  19.803  0.00  0.00    +0.000 A 
ATOM      3  C   UNL     1       1.151   9.012  20.205  0.00  0.00    +0.000 A 
ATOM      4  C   UNL     1       1.120  10.122  19.361  0.00  0.00    +0.000 A 
ATOM      5  C   UNL     1       1.689   9.951  18.111  0.00  0.00    +0.000 A 
ATOM      6  N   UNL     1       2.238   8.797  17.664  0.00  0.00    +0.000 NA
ATOM      7  C   UNL     1       2.280   7.722  18.501  0.00  0.00    +0.000 A 
ENDROOT
BRANCH   7   8
ATOM      8  C   UNL     1       2.945   6.542  17.891  0.00  0.00    +0.000 A 
ATOM      9  C   UNL     1       4.250   6.570  17.365  0.00  0.00    +0.000 A 
ATOM     10  C   UNL     1       4.840   5.439  16.802  0.00  0.00    +0.000 A 
ATOM     11  C   UNL     1       4.171   4.221  16.834  0.00  0.00    +0.000 A 
ATOM     12  C   UNL     1       2.906   4.133  17.418  0.00  0.00    +0.000 A 
ATOM     13  C   UNL     1       2.287   5.298  17.876  0.00  0.00    +0.000 A 
BRANCH  12  14
ATOM     14  O   UNL     1       2.363   2.887  17.453  0.00  0.00    +0.000 OA
BRANCH  14  15
ATOM     15  C   UNL     1       2.639   2.042  18.562  0.00  0.00    +0.000 C 
ATOM     16  F   UNL     1       3.477   1.015  18.309  0.00  0.00    +0.000 F 
ATOM     17  F   UNL     1       3.163   2.788  19.562  0.00  0.00    +0.000 F 
ATOM     18  F   UNL     1       1.474   1.514  19.003  0.00  0.00    +0.000 F 
ENDBRANCH  14  15
ENDBRANCH  12  14
ENDBRANCH   7   8
BRANCH   4  19
ATOM     19  N   UNL     1       0.613  11.354  19.821  0.00  0.00    +0.000 N 
ATOM     20  H   UNL     1       0.732  12.102  19.128  0.00  0.00    +0.000 HD
BRANCH  19  21
ATOM     21  C   UNL     1      -0.496  11.568  20.679  0.00  0.00    +0.000 A 
ATOM     22  C   UNL     1      -0.340  11.354  22.056  0.00  0.00    +0.000 A 
ATOM     23  C   UNL     1      -1.346  11.680  22.965  0.00  0.00    +0.000 A 
ATOM     24  C   UNL     1      -2.539  12.278  22.549  0.00  0.00    +0.000 A 
ATOM     25  C   UNL     1      -2.727  12.450  21.171  0.00  0.00    +0.000 A 
ATOM     26  C   UNL     1      -1.732  12.090  20.235  0.00  0.00    +0.000 A 
BRANCH  24  27
ATOM     27  C   UNL     1      -3.544  12.743  23.571  0.00  0.00    +0.000 C 
ATOM     28  C   UNL     1      -3.233  14.026  24.316  0.00  0.00    +0.000 C 
ATOM     29  C   UNL     1      -4.388  13.978  23.365  0.00  0.00    +0.000 C 
ENDBRANCH  24  27
BRANCH  26  30
ATOM     30  C   UNL     1      -1.982  12.304  18.789  0.00  0.00    +0.000 C 
ATOM     31  O   UNL     1      -1.097  12.623  18.003  0.00  0.00    +0.000 OA
BRANCH  30  32
ATOM     32  O   UNL     1      -3.250  12.064  18.384  0.00  0.00    +0.000 OA
ATOM     33  H   UNL     1      -3.415  12.151  17.424  0.00  0.00    +0.000 HD
ENDBRANCH  30  32
ENDBRANCH  26  30
ENDBRANCH  19  21
ENDBRANCH   4  19
TORSDOF 8
ENDMDL
MODEL 6
REMARK VINA RESULT:      -8.1      3.685      9.489
REMARK  Name = 
REMARK  9 active torsions:
REMARK  status: ('A' for Active; 'I' for Inactive)
REMARK    1  A    between atoms: C_1  and  C_2
REMARK    2  A    between atoms: C_4  and  N_5
REMARK    3  A    between atoms: N_5  and  C_6
REMARK    4  A    between atoms: C_9  and  C_10
REMARK    5  A    between atoms: C_14  and  C_15
REMARK    6  A    between atoms: C_15  and  O_17
REMARK    7  A    between atoms: C_20  and  C_21
REMARK    8  A    between atoms: C_25  and  O_26
REMARK    9  A    between atoms: O_26  and  C_27
REMARK                            x       y       z     vdW  Elec       q    Type
REMARK                         _______ _______ _______ _____ _____    ______ ____
ROOT
ATOM      1  C   UNL     1       1.734   6.954  20.838  0.00  0.00    +0.000 C 
ATOM      2  C   UNL     1       1.689   8.003  19.765  0.00  0.00    +0.000 A 
ATOM      3  C   UNL     1       1.084   9.241  20.069  0.00  0.00    +0.000 A 
ATOM      4  C   UNL     1       1.103  10.298  19.159  0.00  0.00    +0.000 A 
ATOM      5  C   UNL     1       1.718  10.044  17.945  0.00  0.00    +0.000 A 
ATOM      6  N   UNL     1       2.267   8.858  17.592  0.00  0.00    +0.000 NA
ATOM      7  C   UNL     1       2.259   7.835  18.493  0.00  0.00    +0.000 A 
ENDROOT
BRANCH   7   8
ATOM      8  C   UNL     1       2.929   6.611  17.983  0.00  0.00    +0.000 A 
ATOM      9  C   UNL     1       4.299   6.551  17.663  0.00  0.00    +0.000 A 
ATOM     10  C   UNL     1       4.892   5.382  17.189  0.00  0.00    +0.000 A 
ATOM     11  C   UNL     1       4.146   4.211  17.108  0.00  0.00    +0.000 A 
ATOM     12  C   UNL     1       2.803   4.210  17.489  0.00  0.00    +0.000 A 
ATOM     13  C   UNL     1       2.200   5.415  17.856  0.00  0.00    +0.000 A 
BRANCH  12  14
ATOM     14  O   UNL     1       2.180   3.004  17.429  0.00  0.00    +0.000 OA
BRANCH  14  15
ATOM     15  C   UNL     1       2.227   2.143  18.560  0.00  0.00    +0.000 C 
ATOM     16  F   UNL     1       3.110   1.125  18.472  0.00  0.00    +0.000 F 
ATOM     17  F   UNL     1       2.524   2.876  19.657  0.00  0.00    +0.000 F 
ATOM     18  F   UNL     1       1.002   1.599  18.741  0.00  0.00    +0.000 F 
ENDBRANCH  14  15
ENDBRANCH  12  14
ENDBRANCH   7   8
BRANCH   4  19
ATOM     19  N   UNL     1       0.597  11.562  19.523  0.00  0.00    +0.000 N 
ATOM     20  H   UNL     1       1.006  12.316  18.960  0.00  0.00    +0.000 HD
BRANCH  19  21
ATOM     21  C   UNL     1      -0.705  11.870  19.997  0.00  0.00    +0.000 A 
ATOM     22  C   UNL     1      -0.857  12.322  21.315  0.00  0.00    +0.000 A 
ATOM     23  C   UNL     1      -2.085  12.773  21.796  0.00  0.00    +0.000 A 
ATOM     24  C   UNL     1      -3.212  12.839  20.970  0.00  0.00    +0.000 A 
ATOM     25  C   UNL     1      -3.084  12.344  19.666  0.00  0.00    +0.000 A 
ATOM     26  C   UNL     1      -1.855  11.848  19.177  0.00  0.00    +0.000 A 
BRANCH  24  27
ATOM     27  C   UNL     1      -4.485  13.462  21.483  0.00  0.00    +0.000 C 
ATOM     28  C   UNL     1      -5.653  12.532  21.749  0.00  0.00    +0.000 C 
ATOM     29  C   UNL     1      -4.982  13.230  22.890  0.00  0.00    +0.000 C 
ENDBRANCH  24  27
BRANCH  26  30
ATOM     30  C   UNL     1      -1.776  11.344  17.784  0.00  0.00    +0.000 C 
ATOM     31  O   UNL     1      -1.856  10.154  17.503  0.00  0.00    +0.000 OA
BRANCH  30  32
ATOM     32  O   UNL     1      -1.668  12.301  16.834  0.00  0.00    +0.000 OA
ATOM     33  H   UNL     1      -1.391  13.185  17.148  0.00  0.00    +0.000 HD
ENDBRANCH  30  32
ENDBRANCH  26  30
ENDBRANCH  19  21
ENDBRANCH   4  19
TORSDOF 8
ENDMDL
MODEL 7
REMARK VINA RESULT:      -8.1      4.310      9.863
REMARK  Name = 
REMARK  9 active torsions:
REMARK  status: ('A' for Active; 'I' for Inactive)
REMARK    1  A    between atoms: C_1  and  C_2
REMARK    2  A    between atoms: C_4  and  N_5
REMARK    3  A    between atoms: N_5  and  C_6
REMARK    4  A    between atoms: C_9  and  C_10
REMARK    5  A    between atoms: C_14  and  C_15
REMARK    6  A    between atoms: C_15  and  O_17
REMARK    7  A    between atoms: C_20  and  C_21
REMARK    8  A    between atoms: C_25  and  O_26
REMARK    9  A    between atoms: O_26  and  C_27
REMARK                            x       y       z     vdW  Elec       q    Type
REMARK                         _______ _______ _______ _____ _____    ______ ____
ROOT
ATOM      1  C   UNL     1       1.647   6.880  20.920  0.00  0.00    +0.000 C 
ATOM      2  C   UNL     1       1.634   7.913  19.832  0.00  0.00    +0.000 A 
ATOM      3  C   UNL     1       1.038   9.163  20.106  0.00  0.00    +0.000 A 
ATOM      4  C   UNL     1       1.087  10.205  19.181  0.00  0.00    +0.000 A 
ATOM      5  C   UNL     1       1.721   9.926  17.982  0.00  0.00    +0.000 A 
ATOM      6  N   UNL     1       2.261   8.728  17.656  0.00  0.00    +0.000 NA
ATOM      7  C   UNL     1       2.224   7.719  18.572  0.00  0.00    +0.000 A 
ENDROOT
BRANCH   7   8
ATOM      8  C   UNL     1       2.888   6.480  18.092  0.00  0.00    +0.000 A 
ATOM      9  C   UNL     1       2.212   5.261  17.895  0.00  0.00    +0.000 A 
ATOM     10  C   UNL     1       2.871   4.119  17.442  0.00  0.00    +0.000 A 
ATOM     11  C   UNL     1       4.213   4.191  17.085  0.00  0.00    +0.000 A 
ATOM     12  C   UNL     1       4.901   5.401  17.192  0.00  0.00    +0.000 A 
ATOM     13  C   UNL     1       4.253   6.504  17.751  0.00  0.00    +0.000 A 
BRANCH  12  14
ATOM     14  O   UNL     1       6.190   5.380  16.761  0.00  0.00    +0.000 OA
BRANCH  14  15
ATOM     15  C   UNL     1       7.238   5.260  17.714  0.00  0.00    +0.000 C 
ATOM     16  F   UNL     1       6.839   5.006  18.978  0.00  0.00    +0.000 F 
ATOM     17  F   UNL     1       8.076   4.274  17.321  0.00  0.00    +0.000 F 
ATOM     18  F   UNL     1       7.938   6.418  17.737  0.00  0.00    +0.000 F 
ENDBRANCH  14  15
ENDBRANCH  12  14
ENDBRANCH   7   8
BRANCH   4  19
ATOM     19  N   UNL     1       0.591  11.481  19.517  0.00  0.00    +0.000 N 
ATOM     20  H   UNL     1       0.649  12.136  18.729  0.00  0.00    +0.000 HD
BRANCH  19  21
ATOM     21  C   UNL     1      -0.462  11.791  20.416  0.00  0.00    +0.000 A 
ATOM     22  C   UNL     1      -0.169  11.938  21.779  0.00  0.00    +0.000 A 
ATOM     23  C   UNL     1      -1.128  12.378  22.689  0.00  0.00    +0.000 A 
ATOM     24  C   UNL     1      -2.415  12.739  22.276  0.00  0.00    +0.000 A 
ATOM     25  C   UNL     1      -2.734  12.549  20.926  0.00  0.00    +0.000 A 
ATOM     26  C   UNL     1      -1.784  12.067  19.999  0.00  0.00    +0.000 A 
BRANCH  24  27
ATOM     27  C   UNL     1      -3.381  13.342  23.264  0.00  0.00    +0.000 C 
ATOM     28  C   UNL     1      -4.817  12.860  23.210  0.00  0.00    +0.000 C 
ATOM     29  C   UNL     1      -3.970  12.542  24.401  0.00  0.00    +0.000 C 
ENDBRANCH  24  27
BRANCH  26  30
ATOM     30  C   UNL     1      -2.175  11.894  18.578  0.00  0.00    +0.000 C 
ATOM     31  O   UNL     1      -1.447  12.214  17.646  0.00  0.00    +0.000 OA
BRANCH  30  32
ATOM     32  O   UNL     1      -3.375  11.301  18.382  0.00  0.00    +0.000 OA
ATOM     33  H   UNL     1      -4.134  11.905  18.254  0.00  0.00    +0.000 HD
ENDBRANCH  30  32
ENDBRANCH  26  30
ENDBRANCH  19  21
ENDBRANCH   4  19
TORSDOF 8
ENDMDL
MODEL 8
REMARK VINA RESULT:      -8.1      4.263      9.349
REMARK  Name = 
REMARK  9 active torsions:
REMARK  status: ('A' for Active; 'I' for Inactive)
REMARK    1  A    between atoms: C_1  and  C_2
REMARK    2  A    between atoms: C_4  and  N_5
REMARK    3  A    between atoms: N_5  and  C_6
REMARK    4  A    between atoms: C_9  and  C_10
REMARK    5  A    between atoms: C_14  and  C_15
REMARK    6  A    between atoms: C_15  and  O_17
REMARK    7  A    between atoms: C_20  and  C_21
REMARK    8  A    between atoms: C_25  and  O_26
REMARK    9  A    between atoms: O_26  and  C_27
REMARK                            x       y       z     vdW  Elec       q    Type
REMARK                         _______ _______ _______ _____ _____    ______ ____
ROOT
ATOM      1  C   UNL     1       2.882   7.884  17.246  0.00  0.00    +0.000 C 
ATOM      2  C   UNL     1       2.276   8.014  18.612  0.00  0.00    +0.000 A 
ATOM      3  C   UNL     1       1.587   9.206  18.926  0.00  0.00    +0.000 A 
ATOM      4  C   UNL     1       0.907   9.351  20.134  0.00  0.00    +0.000 A 
ATOM      5  C   UNL     1       0.978   8.277  21.006  0.00  0.00    +0.000 A 
ATOM      6  N   UNL     1       1.667   7.136  20.768  0.00  0.00    +0.000 NA
ATOM      7  C   UNL     1       2.316   6.995  19.578  0.00  0.00    +0.000 A 
ENDROOT
BRANCH   7   8
ATOM      8  C   UNL     1       2.993   5.680  19.442  0.00  0.00    +0.000 A 
ATOM      9  C   UNL     1       2.305   4.464  19.274  0.00  0.00    +0.000 A 
ATOM     10  C   UNL     1       2.977   3.249  19.148  0.00  0.00    +0.000 A 
ATOM     11  C   UNL     1       4.367   3.231  19.096  0.00  0.00    +0.000 A 
ATOM     12  C   UNL     1       5.086   4.423  19.182  0.00  0.00    +0.000 A 
ATOM     13  C   UNL     1       4.398   5.616  19.418  0.00  0.00    +0.000 A 
BRANCH  12  14
ATOM     14  O   UNL     1       6.434   4.303  19.060  0.00  0.00    +0.000 OA
BRANCH  14  15
ATOM     15  C   UNL     1       7.081   4.869  17.927  0.00  0.00    +0.000 C 
ATOM     16  F   UNL     1       6.341   4.901  16.798  0.00  0.00    +0.000 F 
ATOM     17  F   UNL     1       7.465   6.130  18.226  0.00  0.00    +0.000 F 
ATOM     18  F   UNL     1       8.194   4.147  17.659  0.00  0.00    +0.000 F 
ENDBRANCH  14  15
ENDBRANCH  12  14
ENDBRANCH   7   8
BRANCH   4  19
ATOM     19  N   UNL     1       0.129  10.500  20.382  0.00  0.00    +0.000 N 
ATOM     20  H   UNL     1      -0.498  10.375  21.184  0.00  0.00    +0.000 HD
BRANCH  19  21
ATOM     21  C   UNL     1       0.495  11.855  20.173  0.00  0.00    +0.000 A 
ATOM     22  C   UNL     1       1.580  12.382  20.887  0.00  0.00    +0.000 A 
ATOM     23  C   UNL     1       2.077  13.658  20.625  0.00  0.00    +0.000 A 
ATOM     24  C   UNL     1       1.543  14.453  19.606  0.00  0.00    +0.000 A 
ATOM     25  C   UNL     1       0.427  13.958  18.920  0.00  0.00    +0.000 A 
ATOM     26  C   UNL     1      -0.111  12.683  19.201  0.00  0.00    +0.000 A 
BRANCH  24  27
ATOM     27  C   UNL     1       2.193  15.769  19.260  0.00  0.00    +0.000 C 
ATOM     28  C   UNL     1       2.962  15.840  17.956  0.00  0.00    +0.000 C 
ATOM     29  C   UNL     1       1.703  16.632  18.122  0.00  0.00    +0.000 C 
ENDBRANCH  24  27
BRANCH  26  30
ATOM     30  C   UNL     1      -1.289  12.205  18.436  0.00  0.00    +0.000 C 
ATOM     31  O   UNL     1      -2.205  11.575  18.953  0.00  0.00    +0.000 OA
BRANCH  30  32
ATOM     32  O   UNL     1      -1.311  12.566  17.132  0.00  0.00    +0.000 OA
ATOM     33  H   UNL     1      -1.184  11.841  16.487  0.00  0.00    +0.000 HD
ENDBRANCH  30  32
ENDBRANCH  26  30
ENDBRANCH  19  21
ENDBRANCH   4  19
TORSDOF 8
ENDMDL
MODEL 9
REMARK VINA RESULT:      -8.1      0.990      1.227
REMARK  Name = 
REMARK  9 active torsions:
REMARK  status: ('A' for Active; 'I' for Inactive)
REMARK    1  A    between atoms: C_1  and  C_2
REMARK    2  A    between atoms: C_4  and  N_5
REMARK    3  A    between atoms: N_5  and  C_6
REMARK    4  A    between atoms: C_9  and  C_10
REMARK    5  A    between atoms: C_14  and  C_15
REMARK    6  A    between atoms: C_15  and  O_17
REMARK    7  A    between atoms: C_20  and  C_21
REMARK    8  A    between atoms: C_25  and  O_26
REMARK    9  A    between atoms: O_26  and  C_27
REMARK                            x       y       z     vdW  Elec       q    Type
REMARK                         _______ _______ _______ _____ _____    ______ ____
ROOT
ATOM      1  C   UNL     1      -0.068   8.599  21.941  0.00  0.00    +0.000 C 
ATOM      2  C   UNL     1       0.830   8.460  20.746  0.00  0.00    +0.000 A 
ATOM      3  C   UNL     1       1.746   7.386  20.721  0.00  0.00    +0.000 A 
ATOM      4  C   UNL     1       2.533   7.133  19.599  0.00  0.00    +0.000 A 
ATOM      5  C   UNL     1       2.381   8.011  18.539  0.00  0.00    +0.000 A 
ATOM      6  N   UNL     1       1.553   9.082  18.537  0.00  0.00    +0.000 NA
ATOM      7  C   UNL     1       0.775   9.314  19.633  0.00  0.00    +0.000 A 
ENDROOT
BRANCH   7   8
ATOM      8  C   UNL     1      -0.109  10.497  19.473  0.00  0.00    +0.000 A 
ATOM      9  C   UNL     1       0.067  11.700  20.182  0.00  0.00    +0.000 A 
ATOM     10  C   UNL     1      -0.784  12.790  20.002  0.00  0.00    +0.000 A 
ATOM     11  C   UNL     1      -1.783  12.736  19.037  0.00  0.00    +0.000 A 
ATOM     12  C   UNL     1      -1.941  11.589  18.258  0.00  0.00    +0.000 A 
ATOM     13  C   UNL     1      -1.151  10.469  18.529  0.00  0.00    +0.000 A 
BRANCH  12  14
ATOM     14  O   UNL     1      -2.906  11.659  17.302  0.00  0.00    +0.000 OA
BRANCH  14  15
ATOM     15  C   UNL     1      -4.268  11.510  17.680  0.00  0.00    +0.000 C 
ATOM     16  F   UNL     1      -4.609  12.097  18.847  0.00  0.00    +0.000 F 
ATOM     17  F   UNL     1      -5.052  12.013  16.700  0.00  0.00    +0.000 F 
ATOM     18  F   UNL     1      -4.543  10.190  17.798  0.00  0.00    +0.000 F 
ENDBRANCH  14  15
ENDBRANCH  12  14
ENDBRANCH   7   8
BRANCH   4  19
ATOM     19  N   UNL     1       3.355   5.989  19.546  0.00  0.00    +0.000 N 
ATOM     20  H   UNL     1       3.091   5.293  20.252  0.00  0.00    +0.000 HD
BRANCH  19  21
ATOM     21  C   UNL     1       3.963   5.412  18.401  0.00  0.00    +0.000 A 
ATOM     22  C   UNL     1       4.372   6.250  17.355  0.00  0.00    +0.000 A 
ATOM     23  C   UNL     1       5.099   5.763  16.270  0.00  0.00    +0.000 A 
ATOM     24  C   UNL     1       5.494   4.424  16.199  0.00  0.00    +0.000 A 
ATOM     25  C   UNL     1       5.048   3.566  17.213  0.00  0.00    +0.000 A 
ATOM     26  C   UNL     1       4.278   4.038  18.299  0.00  0.00    +0.000 A 
BRANCH  24  27
ATOM     27  C   UNL     1       6.396   3.963  15.082  0.00  0.00    +0.000 C 
ATOM     28  C   UNL     1       5.807   3.926  13.686  0.00  0.00    +0.000 C 
ATOM     29  C   UNL     1       6.891   4.904  14.010  0.00  0.00    +0.000 C 
ENDBRANCH  24  27
BRANCH  26  30
ATOM     30  C   UNL     1       3.841   3.086  19.350  0.00  0.00    +0.000 C 
ATOM     31  O   UNL     1       2.687   3.032  19.758  0.00  0.00    +0.000 OA
BRANCH  30  32
ATOM     32  O   UNL     1       4.799   2.236  19.787  0.00  0.00    +0.000 OA
ATOM     33  H   UNL     1       4.552   1.670  20.546  0.00  0.00    +0.000 HD
ENDBRANCH  30  32
ENDBRANCH  26  30
ENDBRANCH  19  21
ENDBRANCH   4  19
TORSDOF 8
ENDMDL
