MODEL 1
REMARK VINA RESULT:      -7.4      0.000      0.000
REMARK  Name = 
REMARK  5 active torsions:
REMARK  status: ('A' for Active; 'I' for Inactive)
REMARK    1  A    between atoms: C_1  and  O_2
REMARK    2  A    between atoms: O_2  and  C_3
REMARK    3  A    between atoms: C_11  and  N_12
REMARK    4  A    between atoms: C_15  and  C_16
REMARK    5  A    between atoms: N_17  and  C_18
REMARK                            x       y       z     vdW  Elec       q    Type
REMARK                         _______ _______ _______ _____ _____    ______ ____
ROOT
ATOM      1  C   UNL     1       6.834   5.073  15.268  0.00  0.00    +0.000 A 
ATOM      2  C   UNL     1       5.992   4.180  14.590  0.00  0.00    +0.000 A 
ATOM      3  C   UNL     1       4.928   3.543  15.233  0.00  0.00    +0.000 A 
ATOM      4  C   UNL     1       4.713   3.773  16.600  0.00  0.00    +0.000 A 
ATOM      5  C   UNL     1       3.739   3.318  17.523  0.00  0.00    +0.000 A 
ATOM      6  C   UNL     1       4.045   3.861  18.751  0.00  0.00    +0.000 A 
ATOM      7  N   UNL     1       5.140   4.663  18.604  0.00  0.00    +0.000 N 
ATOM      8  C   UNL     1       5.571   4.633  17.286  0.00  0.00    +0.000 A 
ATOM      9  C   UNL     1       6.646   5.312  16.650  0.00  0.00    +0.000 A 
ATOM     10  C   UNL     1       3.285   3.630  20.021  0.00  0.00    +0.000 C 
ATOM     11  C   UNL     1       4.007   2.569  20.867  0.00  0.00    +0.000 C 
ATOM     12  N   UNL     1       1.890   3.294  19.647  0.00  0.00    +0.000 NA
ATOM     13  C   UNL     1       1.031   3.054  20.800  0.00  0.00    +0.000 C 
ATOM     14  C   UNL     1       1.802   2.188  18.665  0.00  0.00    +0.000 C 
ATOM     15  C   UNL     1       2.529   2.475  17.323  0.00  0.00    +0.000 C 
ATOM     16  H   UNL     1       5.578   5.215  19.331  0.00  0.00    +0.000 HD
ENDROOT
BRANCH   9  17
ATOM     17  N   UNL     1       7.497   6.252  17.403  0.00  0.00    +0.000 N 
ATOM     18  O   UNL     1       7.697   7.393  16.970  0.00  0.00    +0.000 OA
ATOM     19  O   UNL     1       7.967   5.838  18.479  0.00  0.00    +0.000 OA
ENDBRANCH   9  17
BRANCH   1  21
ATOM     20  C   UNL     1       8.019   5.348  13.229  0.00  0.00    +0.000 C 
ATOM     21  O   UNL     1       7.886   5.663  14.614  0.00  0.00    +0.000 OA
ENDBRANCH   1  21
TORSDOF 2
ENDMDL
MODEL 2
REMARK VINA RESULT:      -7.3      2.215      2.656
REMARK  Name = 
REMARK  5 active torsions:
REMARK  status: ('A' for Active; 'I' for Inactive)
REMARK    1  A    between atoms: C_1  and  O_2
REMARK    2  A    between atoms: O_2  and  C_3
REMARK    3  A    between atoms: C_11  and  N_12
REMARK    4  A    between atoms: C_15  and  C_16
REMARK    5  A    between atoms: N_17  and  C_18
REMARK                            x       y       z     vdW  Elec       q    Type
REMARK                         _______ _______ _______ _____ _____    ______ ____
ROOT
ATOM      1  C   UNL     1       6.328   6.831  17.322  0.00  0.00    +0.000 A 
ATOM      2  C   UNL     1       5.077   7.446  17.172  0.00  0.00    +0.000 A 
ATOM      3  C   UNL     1       3.922   6.909  17.744  0.00  0.00    +0.000 A 
ATOM      4  C   UNL     1       4.003   5.705  18.458  0.00  0.00    +0.000 A 
ATOM      5  C   UNL     1       3.055   4.924  19.163  0.00  0.00    +0.000 A 
ATOM      6  C   UNL     1       3.709   3.816  19.652  0.00  0.00    +0.000 A 
ATOM      7  N   UNL     1       5.027   3.912  19.311  0.00  0.00    +0.000 N 
ATOM      8  C   UNL     1       5.240   5.071  18.578  0.00  0.00    +0.000 A 
ATOM      9  C   UNL     1       6.435   5.608  18.027  0.00  0.00    +0.000 A 
ATOM     10  C   UNL     1       3.083   2.711  20.446  0.00  0.00    +0.000 C 
ATOM     11  C   UNL     1       2.792   1.516  19.524  0.00  0.00    +0.000 C 
ATOM     12  N   UNL     1       1.898   3.278  21.134  0.00  0.00    +0.000 NA
ATOM     13  C   UNL     1       1.194   2.304  21.959  0.00  0.00    +0.000 C 
ATOM     14  C   UNL     1       0.972   3.980  20.214  0.00  0.00    +0.000 C 
ATOM     15  C   UNL     1       1.617   5.172  19.457  0.00  0.00    +0.000 C 
ATOM     16  H   UNL     1       5.758   3.255  19.557  0.00  0.00    +0.000 HD
ENDROOT
BRANCH   9  17
ATOM     17  N   UNL     1       7.730   4.930  18.221  0.00  0.00    +0.000 N 
ATOM     18  O   UNL     1       8.230   4.270  17.302  0.00  0.00    +0.000 OA
ATOM     19  O   UNL     1       8.277   5.080  19.330  0.00  0.00    +0.000 OA
ENDBRANCH   9  17
BRANCH   1  21
ATOM     20  C   UNL     1       8.112   8.392  17.460  0.00  0.00    +0.000 C 
ATOM     21  O   UNL     1       7.440   7.370  16.725  0.00  0.00    +0.000 OA
ENDBRANCH   1  21
TORSDOF 2
ENDMDL
MODEL 3
REMARK VINA RESULT:      -6.2      4.977      6.183
REMARK  Name = 
REMARK  5 active torsions:
REMARK  status: ('A' for Active; 'I' for Inactive)
REMARK    1  A    between atoms: C_1  and  O_2
REMARK    2  A    between atoms: O_2  and  C_3
REMARK    3  A    between atoms: C_11  and  N_12
REMARK    4  A    between atoms: C_15  and  C_16
REMARK    5  A    between atoms: N_17  and  C_18
REMARK                            x       y       z     vdW  Elec       q    Type
REMARK                         _______ _______ _______ _____ _____    ______ ____
ROOT
ATOM      1  C   UNL     1       1.453   9.558  19.274  0.00  0.00    +0.000 A 
ATOM      2  C   UNL     1       2.078   9.465  18.022  0.00  0.00    +0.000 A 
ATOM      3  C   UNL     1       2.638   8.268  17.569  0.00  0.00    +0.000 A 
ATOM      4  C   UNL     1       2.607   7.137  18.397  0.00  0.00    +0.000 A 
ATOM      5  C   UNL     1       3.050   5.800  18.239  0.00  0.00    +0.000 A 
ATOM      6  C   UNL     1       2.774   5.129  19.408  0.00  0.00    +0.000 A 
ATOM      7  N   UNL     1       2.142   5.990  20.258  0.00  0.00    +0.000 N 
ATOM      8  C   UNL     1       2.019   7.236  19.659  0.00  0.00    +0.000 A 
ATOM      9  C   UNL     1       1.421   8.434  20.134  0.00  0.00    +0.000 A 
ATOM     10  C   UNL     1       3.091   3.691  19.685  0.00  0.00    +0.000 C 
ATOM     11  C   UNL     1       4.378   3.600  20.521  0.00  0.00    +0.000 C 
ATOM     12  N   UNL     1       3.136   2.989  18.380  0.00  0.00    +0.000 NA
ATOM     13  C   UNL     1       3.426   1.566  18.506  0.00  0.00    +0.000 C 
ATOM     14  C   UNL     1       4.035   3.642  17.400  0.00  0.00    +0.000 C 
ATOM     15  C   UNL     1       3.647   5.107  17.064  0.00  0.00    +0.000 C 
ATOM     16  H   UNL     1       1.794   5.770  21.183  0.00  0.00    +0.000 HD
ENDROOT
BRANCH   9  17
ATOM     17  N   UNL     1       0.766   8.480  21.455  0.00  0.00    +0.000 N 
ATOM     18  O   UNL     1      -0.415   8.133  21.575  0.00  0.00    +0.000 OA
ATOM     19  O   UNL     1       1.467   8.860  22.411  0.00  0.00    +0.000 OA
ENDBRANCH   9  17
BRANCH   1  21
ATOM     20  C   UNL     1      -0.312  11.138  19.129  0.00  0.00    +0.000 C 
ATOM     21  O   UNL     1       0.936  10.756  19.701  0.00  0.00    +0.000 OA
ENDBRANCH   1  21
TORSDOF 2
ENDMDL
MODEL 4
REMARK VINA RESULT:      -6.1      4.681      6.069
REMARK  Name = 
REMARK  5 active torsions:
REMARK  status: ('A' for Active; 'I' for Inactive)
REMARK    1  A    between atoms: C_1  and  O_2
REMARK    2  A    between atoms: O_2  and  C_3
REMARK    3  A    between atoms: C_11  and  N_12
REMARK    4  A    between atoms: C_15  and  C_16
REMARK    5  A    between atoms: N_17  and  C_18
REMARK                            x       y       z     vdW  Elec       q    Type
REMARK                         _______ _______ _______ _____ _____    ______ ____
ROOT
ATOM      1  C   UNL     1       3.649   3.879  18.715  0.00  0.00    +0.000 A 
ATOM      2  C   UNL     1       3.699   4.760  17.626  0.00  0.00    +0.000 A 
ATOM      3  C   UNL     1       3.186   6.057  17.706  0.00  0.00    +0.000 A 
ATOM      4  C   UNL     1       2.574   6.482  18.894  0.00  0.00    +0.000 A 
ATOM      5  C   UNL     1       1.989   7.705  19.305  0.00  0.00    +0.000 A 
ATOM      6  C   UNL     1       1.519   7.532  20.587  0.00  0.00    +0.000 A 
ATOM      7  N   UNL     1       1.832   6.266  20.990  0.00  0.00    +0.000 N 
ATOM      8  C   UNL     1       2.489   5.596  19.968  0.00  0.00    +0.000 A 
ATOM      9  C   UNL     1       3.024   4.280  19.921  0.00  0.00    +0.000 A 
ATOM     10  C   UNL     1       0.811   8.567  21.405  0.00  0.00    +0.000 C 
ATOM     11  C   UNL     1      -0.705   8.320  21.349  0.00  0.00    +0.000 C 
ATOM     12  N   UNL     1       1.250   9.896  20.914  0.00  0.00    +0.000 NA
ATOM     13  C   UNL     1       0.640  11.004  21.638  0.00  0.00    +0.000 C 
ATOM     14  C   UNL     1       1.096  10.053  19.449  0.00  0.00    +0.000 C 
ATOM     15  C   UNL     1       1.898   9.021  18.613  0.00  0.00    +0.000 C 
ATOM     16  H   UNL     1       1.637   5.862  21.898  0.00  0.00    +0.000 HD
ENDROOT
BRANCH   9  17
ATOM     17  N   UNL     1       2.957   3.393  21.097  0.00  0.00    +0.000 N 
ATOM     18  O   UNL     1       3.820   2.525  21.271  0.00  0.00    +0.000 OA
ATOM     19  O   UNL     1       2.015   3.588  21.888  0.00  0.00    +0.000 OA
ENDBRANCH   9  17
BRANCH   1  21
ATOM     20  C   UNL     1       3.269   1.654  17.979  0.00  0.00    +0.000 C 
ATOM     21  O   UNL     1       4.138   2.603  18.595  0.00  0.00    +0.000 OA
ENDBRANCH   1  21
TORSDOF 2
ENDMDL
MODEL 5
REMARK VINA RESULT:      -6.0      4.901      6.665
REMARK  Name = 
REMARK  5 active torsions:
REMARK  status: ('A' for Active; 'I' for Inactive)
REMARK    1  A    between atoms: C_1  and  O_2
REMARK    2  A    between atoms: O_2  and  C_3
REMARK    3  A    between atoms: C_11  and  N_12
REMARK    4  A    between atoms: C_15  and  C_16
REMARK    5  A    between atoms: N_17  and  C_18
REMARK                            x       y       z     vdW  Elec       q    Type
REMARK                         _______ _______ _______ _____ _____    ______ ____
ROOT
ATOM      1  C   UNL     1       0.821   9.811  20.345  0.00  0.00    +0.000 A 
ATOM      2  C   UNL     1       0.427   9.049  21.454  0.00  0.00    +0.000 A 
ATOM      3  C   UNL     1       0.771   7.701  21.578  0.00  0.00    +0.000 A 
ATOM      4  C   UNL     1       1.501   7.080  20.554  0.00  0.00    +0.000 A 
ATOM      5  C   UNL     1       2.018   5.773  20.380  0.00  0.00    +0.000 A 
ATOM      6  C   UNL     1       2.636   5.729  19.151  0.00  0.00    +0.000 A 
ATOM      7  N   UNL     1       2.554   6.969  18.586  0.00  0.00    +0.000 N 
ATOM      8  C   UNL     1       1.864   7.826  19.432  0.00  0.00    +0.000 A 
ATOM      9  C   UNL     1       1.547   9.205  19.292  0.00  0.00    +0.000 A 
ATOM     10  C   UNL     1       3.306   4.531  18.553  0.00  0.00    +0.000 C 
ATOM     11  C   UNL     1       2.359   3.861  17.544  0.00  0.00    +0.000 C 
ATOM     12  N   UNL     1       3.748   3.665  19.673  0.00  0.00    +0.000 NA
ATOM     13  C   UNL     1       4.431   2.458  19.228  0.00  0.00    +0.000 C 
ATOM     14  C   UNL     1       2.659   3.352  20.628  0.00  0.00    +0.000 C 
ATOM     15  C   UNL     1       2.027   4.601  21.299  0.00  0.00    +0.000 C 
ATOM     16  H   UNL     1       2.943   7.247  17.694  0.00  0.00    +0.000 HD
ENDROOT
BRANCH   9  17
ATOM     17  N   UNL     1       1.994   9.967  18.111  0.00  0.00    +0.000 N 
ATOM     18  O   UNL     1       2.218  11.180  18.203  0.00  0.00    +0.000 OA
ATOM     19  O   UNL     1       2.146   9.323  17.057  0.00  0.00    +0.000 OA
ENDBRANCH   9  17
BRANCH   1  21
ATOM     20  C   UNL     1      -0.924  11.362  19.911  0.00  0.00    +0.000 C 
ATOM     21  O   UNL     1       0.444  11.127  20.240  0.00  0.00    +0.000 OA
ENDBRANCH   1  21
TORSDOF 2
ENDMDL
MODEL 6
REMARK VINA RESULT:      -6.0      5.687      7.130
REMARK  Name = 
REMARK  5 active torsions:
REMARK  status: ('A' for Active; 'I' for Inactive)
REMARK    1  A    between atoms: C_1  and  O_2
REMARK    2  A    between atoms: O_2  and  C_3
REMARK    3  A    between atoms: C_11  and  N_12
REMARK    4  A    between atoms: C_15  and  C_16
REMARK    5  A    between atoms: N_17  and  C_18
REMARK                            x       y       z     vdW  Elec       q    Type
REMARK                         _______ _______ _______ _____ _____    ______ ____
ROOT
ATOM      1  C   UNL     1       0.713  10.304  19.789  0.00  0.00    +0.000 A 
ATOM      2  C   UNL     1       1.266  10.632  18.544  0.00  0.00    +0.000 A 
ATOM      3  C   UNL     1       2.073   9.735  17.839  0.00  0.00    +0.000 A 
ATOM      4  C   UNL     1       2.368   8.486  18.404  0.00  0.00    +0.000 A 
ATOM      5  C   UNL     1       3.113   7.366  17.959  0.00  0.00    +0.000 A 
ATOM      6  C   UNL     1       3.078   6.419  18.957  0.00  0.00    +0.000 A 
ATOM      7  N   UNL     1       2.306   6.898  19.976  0.00  0.00    +0.000 N 
ATOM      8  C   UNL     1       1.849   8.170  19.660  0.00  0.00    +0.000 A 
ATOM      9  C   UNL     1       1.006   9.055  20.387  0.00  0.00    +0.000 A 
ATOM     10  C   UNL     1       3.751   5.081  18.916  0.00  0.00    +0.000 C 
ATOM     11  C   UNL     1       5.069   5.143  19.705  0.00  0.00    +0.000 C 
ATOM     12  N   UNL     1       3.889   4.700  17.489  0.00  0.00    +0.000 NA
ATOM     13  C   UNL     1       4.524   3.401  17.304  0.00  0.00    +0.000 C 
ATOM     14  C   UNL     1       4.542   5.746  16.669  0.00  0.00    +0.000 C 
ATOM     15  C   UNL     1       3.790   7.104  16.659  0.00  0.00    +0.000 C 
ATOM     16  H   UNL     1       2.078   6.411  20.833  0.00  0.00    +0.000 HD
ENDROOT
BRANCH   9  17
ATOM     17  N   UNL     1       0.439   8.660  21.689  0.00  0.00    +0.000 N 
ATOM     18  O   UNL     1       1.020   8.964  22.738  0.00  0.00    +0.000 OA
ATOM     19  O   UNL     1      -0.641   8.040  21.662  0.00  0.00    +0.000 OA
ENDBRANCH   9  17
BRANCH   1  21
ATOM     20  C   UNL     1      -1.301  11.559  19.866  0.00  0.00    +0.000 C 
ATOM     21  O   UNL     1      -0.054  11.218  20.468  0.00  0.00    +0.000 OA
ENDBRANCH   1  21
TORSDOF 2
ENDMDL
MODEL 7
REMARK VINA RESULT:      -5.9      3.946      6.457
REMARK  Name = 
REMARK  5 active torsions:
REMARK  status: ('A' for Active; 'I' for Inactive)
REMARK    1  A    between atoms: C_1  and  O_2
REMARK    2  A    between atoms: O_2  and  C_3
REMARK    3  A    between atoms: C_11  and  N_12
REMARK    4  A    between atoms: C_15  and  C_16
REMARK    5  A    between atoms: N_17  and  C_18
REMARK                            x       y       z     vdW  Elec       q    Type
REMARK                         _______ _______ _______ _____ _____    ______ ____
ROOT
ATOM      1  C   UNL     1       1.574   7.189  20.165  0.00  0.00    +0.000 A 
ATOM      2  C   UNL     1       1.903   8.263  19.325  0.00  0.00    +0.000 A 
ATOM      3  C   UNL     1       2.775   8.108  18.244  0.00  0.00    +0.000 A 
ATOM      4  C   UNL     1       3.365   6.858  18.010  0.00  0.00    +0.000 A 
ATOM      5  C   UNL     1       4.249   6.369  17.017  0.00  0.00    +0.000 A 
ATOM      6  C   UNL     1       4.513   5.050  17.308  0.00  0.00    +0.000 A 
ATOM      7  N   UNL     1       3.791   4.702  18.413  0.00  0.00    +0.000 N 
ATOM      8  C   UNL     1       3.068   5.797  18.865  0.00  0.00    +0.000 A 
ATOM      9  C   UNL     1       2.167   5.921  19.957  0.00  0.00    +0.000 A 
ATOM     10  C   UNL     1       5.416   4.146  16.525  0.00  0.00    +0.000 C 
ATOM     11  C   UNL     1       6.783   4.055  17.223  0.00  0.00    +0.000 C 
ATOM     12  N   UNL     1       5.452   4.656  15.133  0.00  0.00    +0.000 NA
ATOM     13  C   UNL     1       6.294   3.855  14.253  0.00  0.00    +0.000 C 
ATOM     14  C   UNL     1       5.794   6.095  15.050  0.00  0.00    +0.000 C 
ATOM     15  C   UNL     1       4.804   7.025  15.801  0.00  0.00    +0.000 C 
ATOM     16  H   UNL     1       3.762   3.787  18.845  0.00  0.00    +0.000 HD
ENDROOT
BRANCH   9  17
ATOM     17  N   UNL     1       1.843   4.759  20.806  0.00  0.00    +0.000 N 
ATOM     18  O   UNL     1       2.576   4.461  21.757  0.00  0.00    +0.000 OA
ATOM     19  O   UNL     1       0.804   4.134  20.523  0.00  0.00    +0.000 OA
ENDBRANCH   9  17
BRANCH   1  21
ATOM     20  C   UNL     1       0.309   8.721  21.465  0.00  0.00    +0.000 C 
ATOM     21  O   UNL     1       0.735   7.380  21.234  0.00  0.00    +0.000 OA
ENDBRANCH   1  21
TORSDOF 2
ENDMDL
MODEL 8
REMARK VINA RESULT:      -5.9      4.462      5.284
REMARK  Name = 
REMARK  5 active torsions:
REMARK  status: ('A' for Active; 'I' for Inactive)
REMARK    1  A    between atoms: C_1  and  O_2
REMARK    2  A    between atoms: O_2  and  C_3
REMARK    3  A    between atoms: C_11  and  N_12
REMARK    4  A    between atoms: C_15  and  C_16
REMARK    5  A    between atoms: N_17  and  C_18
REMARK                            x       y       z     vdW  Elec       q    Type
REMARK                         _______ _______ _______ _____ _____    ______ ____
ROOT
ATOM      1  C   UNL     1       4.557   5.036  17.506  0.00  0.00    +0.000 A 
ATOM      2  C   UNL     1       4.381   6.122  16.637  0.00  0.00    +0.000 A 
ATOM      3  C   UNL     1       3.623   7.238  17.001  0.00  0.00    +0.000 A 
ATOM      4  C   UNL     1       2.992   7.262  18.253  0.00  0.00    +0.000 A 
ATOM      5  C   UNL     1       2.193   8.221  18.923  0.00  0.00    +0.000 A 
ATOM      6  C   UNL     1       1.826   7.683  20.135  0.00  0.00    +0.000 A 
ATOM      7  N   UNL     1       2.404   6.452  20.250  0.00  0.00    +0.000 N 
ATOM      8  C   UNL     1       3.135   6.167  19.106  0.00  0.00    +0.000 A 
ATOM      9  C   UNL     1       3.920   5.031  18.770  0.00  0.00    +0.000 A 
ATOM     10  C   UNL     1       0.962   8.350  21.162  0.00  0.00    +0.000 C 
ATOM     11  C   UNL     1      -0.475   7.814  21.052  0.00  0.00    +0.000 C 
ATOM     12  N   UNL     1       1.104   9.814  20.975  0.00  0.00    +0.000 NA
ATOM     13  C   UNL     1       0.318  10.591  21.925  0.00  0.00    +0.000 C 
ATOM     14  C   UNL     1       0.855  10.249  19.580  0.00  0.00    +0.000 C 
ATOM     15  C   UNL     1       1.810   9.607  18.538  0.00  0.00    +0.000 C 
ATOM     16  H   UNL     1       2.334   5.830  21.047  0.00  0.00    +0.000 HD
ENDROOT
BRANCH   9  17
ATOM     17  N   UNL     1       4.084   3.917  19.723  0.00  0.00    +0.000 N 
ATOM     18  O   UNL     1       5.186   3.371  19.855  0.00  0.00    +0.000 OA
ATOM     19  O   UNL     1       3.077   3.591  20.378  0.00  0.00    +0.000 OA
ENDBRANCH   9  17
BRANCH   1  21
ATOM     20  C   UNL     1       5.864   4.016  15.807  0.00  0.00    +0.000 C 
ATOM     21  O   UNL     1       5.286   3.943  17.108  0.00  0.00    +0.000 OA
ENDBRANCH   1  21
TORSDOF 2
ENDMDL
MODEL 9
REMARK VINA RESULT:      -5.7      4.900      6.259
REMARK  Name = 
REMARK  5 active torsions:
REMARK  status: ('A' for Active; 'I' for Inactive)
REMARK    1  A    between atoms: C_1  and  O_2
REMARK    2  A    between atoms: O_2  and  C_3
REMARK    3  A    between atoms: C_11  and  N_12
REMARK    4  A    between atoms: C_15  and  C_16
REMARK    5  A    between atoms: N_17  and  C_18
REMARK                            x       y       z     vdW  Elec       q    Type
REMARK                         _______ _______ _______ _____ _____    ______ ____
ROOT
ATOM      1  C   UNL     1       3.743   4.691  19.234  0.00  0.00    +0.000 A 
ATOM      2  C   UNL     1       3.068   4.813  20.457  0.00  0.00    +0.000 A 
ATOM      3  C   UNL     1       2.266   5.920  20.745  0.00  0.00    +0.000 A 
ATOM      4  C   UNL     1       2.156   6.954  19.804  0.00  0.00    +0.000 A 
ATOM      5  C   UNL     1       1.429   8.169  19.772  0.00  0.00    +0.000 A 
ATOM      6  C   UNL     1       1.731   8.804  18.589  0.00  0.00    +0.000 A 
ATOM      7  N   UNL     1       2.580   8.005  17.878  0.00  0.00    +0.000 N 
ATOM      8  C   UNL     1       2.856   6.852  18.601  0.00  0.00    +0.000 A 
ATOM      9  C   UNL     1       3.659   5.727  18.273  0.00  0.00    +0.000 A 
ATOM     10  C   UNL     1       1.196  10.131  18.148  0.00  0.00    +0.000 C 
ATOM     11  C   UNL     1       2.240  11.225  18.424  0.00  0.00    +0.000 C 
ATOM     12  N   UNL     1      -0.112  10.326  18.820  0.00  0.00    +0.000 NA
ATOM     13  C   UNL     1      -0.754  11.586  18.468  0.00  0.00    +0.000 C 
ATOM     14  C   UNL     1      -0.043  10.144  20.289  0.00  0.00    +0.000 C 
ATOM     15  C   UNL     1       0.440   8.736  20.730  0.00  0.00    +0.000 C 
ATOM     16  H   UNL     1       2.952   8.197  16.957  0.00  0.00    +0.000 HD
ENDROOT
BRANCH   9  17
ATOM     17  N   UNL     1       4.341   5.639  16.968  0.00  0.00    +0.000 N 
ATOM     18  O   UNL     1       4.362   4.568  16.350  0.00  0.00    +0.000 OA
ATOM     19  O   UNL     1       4.856   6.687  16.537  0.00  0.00    +0.000 OA
ENDBRANCH   9  17
BRANCH   1  21
ATOM     20  C   UNL     1       4.097   2.362  19.534  0.00  0.00    +0.000 C 
ATOM     21  O   UNL     1       4.544   3.603  18.992  0.00  0.00    +0.000 OA
ENDBRANCH   1  21
TORSDOF 2
ENDMDL
