MODEL 1
REMARK VINA RESULT:      -6.7      0.000      0.000
REMARK  Name = 
REMARK  4 active torsions:
REMARK  status: ('A' for Active; 'I' for Inactive)
REMARK    1  A    between atoms: C_1  and  N_2
REMARK    2  A    between atoms: N_2  and  C_12
REMARK    3  A    between atoms: C_3  and  C_5
REMARK    4  A    between atoms: N_7  and  C_8
REMARK                            x       y       z     vdW  Elec       q    Type
REMARK                         _______ _______ _______ _____ _____    ______ ____
ROOT
ATOM      1  C   UNL     1       4.505   2.306  17.303  0.00  0.00    +0.000 C 
ATOM      2  N   UNL     1       3.967   3.615  17.675  0.00  0.00    +0.000 N 
ATOM      3  C   UNL     1       4.332   4.801  16.983  0.00  0.00    +0.000 C 
ATOM      4  O   UNL     1       3.790   5.878  17.235  0.00  0.00    +0.000 OA
ENDROOT
BRANCH   2   5
ATOM      5  C   UNL     1       3.003   3.675  18.836  0.00  0.00    +0.000 C 
ATOM      6  C   UNL     1       3.435   4.736  19.909  0.00  0.00    +0.000 C 
ATOM      7  C   UNL     1       2.453   4.816  21.083  0.00  0.00    +0.000 C 
ATOM      8  C   UNL     1       1.071   5.203  20.546  0.00  0.00    +0.000 C 
ATOM      9  C   UNL     1       0.589   4.147  19.543  0.00  0.00    +0.000 C 
ATOM     10  C   UNL     1       0.526   2.779  20.243  0.00  0.00    +0.000 C 
ATOM     11  C   UNL     1       1.919   2.386  20.764  0.00  0.00    +0.000 C 
ATOM     12  C   UNL     1       2.390   3.446  21.770  0.00  0.00    +0.000 C 
ATOM     13  C   UNL     1       2.910   2.311  19.584  0.00  0.00    +0.000 C 
ATOM     14  C   UNL     1       1.574   4.073  18.360  0.00  0.00    +0.000 C 
ENDBRANCH   2   5
BRANCH   3  15
ATOM     15  C   UNL     1       5.372   4.752  15.922  0.00  0.00    +0.000 A 
ATOM     16  N   UNL     1       5.241   4.034  14.783  0.00  0.00    +0.000 NA
ATOM     17  N   UNL     1       6.361   4.294  14.083  0.00  0.00    +0.000 N 
ATOM     18  C   UNL     1       6.507   3.788  12.739  0.00  0.00    +0.000 C 
ATOM     19  C   UNL     1       7.257   5.065  14.752  0.00  0.00    +0.000 A 
ATOM     20  C   UNL     1       6.656   5.361  15.946  0.00  0.00    +0.000 A 
ATOM     21 BR   UNL     1       7.383   6.431  17.301  0.00  0.00    +0.000 Br
ENDBRANCH   3  15
TORSDOF 2
ENDMDL
MODEL 2
REMARK VINA RESULT:      -6.7      0.361      1.451
REMARK  Name = 
REMARK  4 active torsions:
REMARK  status: ('A' for Active; 'I' for Inactive)
REMARK    1  A    between atoms: C_1  and  N_2
REMARK    2  A    between atoms: N_2  and  C_12
REMARK    3  A    between atoms: C_3  and  C_5
REMARK    4  A    between atoms: N_7  and  C_8
REMARK                            x       y       z     vdW  Elec       q    Type
REMARK                         _______ _______ _______ _____ _____    ______ ____
ROOT
ATOM      1  C   UNL     1       4.637   2.344  17.459  0.00  0.00    +0.000 C 
ATOM      2  N   UNL     1       4.031   3.639  17.765  0.00  0.00    +0.000 N 
ATOM      3  C   UNL     1       4.325   4.804  17.006  0.00  0.00    +0.000 C 
ATOM      4  O   UNL     1       3.727   5.862  17.206  0.00  0.00    +0.000 OA
ENDROOT
BRANCH   2   5
ATOM      5  C   UNL     1       3.074   3.711  18.932  0.00  0.00    +0.000 C 
ATOM      6  C   UNL     1       3.329   2.569  19.977  0.00  0.00    +0.000 C 
ATOM      7  C   UNL     1       2.373   2.645  21.172  0.00  0.00    +0.000 C 
ATOM      8  C   UNL     1       2.563   3.995  21.873  0.00  0.00    +0.000 C 
ATOM      9  C   UNL     1       2.254   5.135  20.894  0.00  0.00    +0.000 C 
ATOM     10  C   UNL     1       0.807   4.992  20.393  0.00  0.00    +0.000 C 
ATOM     11  C   UNL     1       0.626   3.643  19.676  0.00  0.00    +0.000 C 
ATOM     12  C   UNL     1       0.932   2.510  20.664  0.00  0.00    +0.000 C 
ATOM     13  C   UNL     1       1.591   3.563  18.476  0.00  0.00    +0.000 C 
ATOM     14  C   UNL     1       3.221   5.061  19.695  0.00  0.00    +0.000 C 
ENDBRANCH   2   5
BRANCH   3  15
ATOM     15  C   UNL     1       5.359   4.754  15.939  0.00  0.00    +0.000 A 
ATOM     16  N   UNL     1       5.223   4.029  14.804  0.00  0.00    +0.000 NA
ATOM     17  N   UNL     1       6.338   4.290  14.096  0.00  0.00    +0.000 N 
ATOM     18  C   UNL     1       6.477   3.777  12.754  0.00  0.00    +0.000 C 
ATOM     19  C   UNL     1       7.235   5.069  14.755  0.00  0.00    +0.000 A 
ATOM     20  C   UNL     1       6.640   5.368  15.951  0.00  0.00    +0.000 A 
ATOM     21 BR   UNL     1       7.371   6.449  17.296  0.00  0.00    +0.000 Br
ENDBRANCH   3  15
TORSDOF 2
ENDMDL
MODEL 3
REMARK VINA RESULT:      -6.7      0.369      1.794
REMARK  Name = 
REMARK  4 active torsions:
REMARK  status: ('A' for Active; 'I' for Inactive)
REMARK    1  A    between atoms: C_1  and  N_2
REMARK    2  A    between atoms: N_2  and  C_12
REMARK    3  A    between atoms: C_3  and  C_5
REMARK    4  A    between atoms: N_7  and  C_8
REMARK                            x       y       z     vdW  Elec       q    Type
REMARK                         _______ _______ _______ _____ _____    ______ ____
ROOT
ATOM      1  C   UNL     1       4.615   2.345  17.427  0.00  0.00    +0.000 C 
ATOM      2  N   UNL     1       4.034   3.646  17.757  0.00  0.00    +0.000 N 
ATOM      3  C   UNL     1       4.344   4.817  17.014  0.00  0.00    +0.000 C 
ATOM      4  O   UNL     1       3.766   5.883  17.234  0.00  0.00    +0.000 OA
ENDROOT
BRANCH   2   5
ATOM      5  C   UNL     1       3.087   3.717  18.931  0.00  0.00    +0.000 C 
ATOM      6  C   UNL     1       1.588   3.569  18.493  0.00  0.00    +0.000 C 
ATOM      7  C   UNL     1       0.621   3.622  19.681  0.00  0.00    +0.000 C 
ATOM      8  C   UNL     1       0.959   2.480  20.646  0.00  0.00    +0.000 C 
ATOM      9  C   UNL     1       2.401   2.635  21.148  0.00  0.00    +0.000 C 
ATOM     10  C   UNL     1       2.546   3.993  21.856  0.00  0.00    +0.000 C 
ATOM     11  C   UNL     1       2.222   5.137  20.878  0.00  0.00    +0.000 C 
ATOM     12  C   UNL     1       0.777   4.975  20.386  0.00  0.00    +0.000 C 
ATOM     13  C   UNL     1       3.191   5.080  19.679  0.00  0.00    +0.000 C 
ATOM     14  C   UNL     1       3.372   2.575  19.952  0.00  0.00    +0.000 C 
ENDBRANCH   2   5
BRANCH   3  15
ATOM     15  C   UNL     1       5.369   4.765  15.939  0.00  0.00    +0.000 A 
ATOM     16  N   UNL     1       5.226   4.036  14.808  0.00  0.00    +0.000 NA
ATOM     17  N   UNL     1       6.335   4.296  14.090  0.00  0.00    +0.000 N 
ATOM     18  C   UNL     1       6.464   3.778  12.749  0.00  0.00    +0.000 C 
ATOM     19  C   UNL     1       7.235   5.080  14.738  0.00  0.00    +0.000 A 
ATOM     20  C   UNL     1       6.649   5.383  15.939  0.00  0.00    +0.000 A 
ATOM     21 BR   UNL     1       7.388   6.471  17.273  0.00  0.00    +0.000 Br
ENDBRANCH   3  15
TORSDOF 2
ENDMDL
MODEL 4
REMARK VINA RESULT:      -6.7      2.197      3.460
REMARK  Name = 
REMARK  4 active torsions:
REMARK  status: ('A' for Active; 'I' for Inactive)
REMARK    1  A    between atoms: C_1  and  N_2
REMARK    2  A    between atoms: N_2  and  C_12
REMARK    3  A    between atoms: C_3  and  C_5
REMARK    4  A    between atoms: N_7  and  C_8
REMARK                            x       y       z     vdW  Elec       q    Type
REMARK                         _______ _______ _______ _____ _____    ______ ____
ROOT
ATOM      1  C   UNL     1       5.107   6.428  15.907  0.00  0.00    +0.000 C 
ATOM      2  N   UNL     1       5.031   4.995  16.188  0.00  0.00    +0.000 N 
ATOM      3  C   UNL     1       5.781   4.043  15.446  0.00  0.00    +0.000 C 
ATOM      4  O   UNL     1       5.790   2.853  15.761  0.00  0.00    +0.000 OA
ENDROOT
BRANCH   2   5
ATOM      5  C   UNL     1       4.114   4.543  17.301  0.00  0.00    +0.000 C 
ATOM      6  C   UNL     1       3.171   3.373  16.851  0.00  0.00    +0.000 C 
ATOM      7  C   UNL     1       2.249   2.897  17.980  0.00  0.00    +0.000 C 
ATOM      8  C   UNL     1       3.110   2.405  19.148  0.00  0.00    +0.000 C 
ATOM      9  C   UNL     1       3.998   3.548  19.656  0.00  0.00    +0.000 C 
ATOM     10  C   UNL     1       3.106   4.718  20.107  0.00  0.00    +0.000 C 
ATOM     11  C   UNL     1       2.256   5.220  18.926  0.00  0.00    +0.000 C 
ATOM     12  C   UNL     1       1.369   4.071  18.429  0.00  0.00    +0.000 C 
ATOM     13  C   UNL     1       3.182   5.694  17.788  0.00  0.00    +0.000 C 
ATOM     14  C   UNL     1       4.929   4.021  18.522  0.00  0.00    +0.000 C 
ENDBRANCH   2   5
BRANCH   3  15
ATOM     15  C   UNL     1       6.585   4.482  14.275  0.00  0.00    +0.000 A 
ATOM     16  N   UNL     1       7.640   5.324  14.369  0.00  0.00    +0.000 NA
ATOM     17  N   UNL     1       8.111   5.425  13.112  0.00  0.00    +0.000 N 
ATOM     18  C   UNL     1       9.329   6.155  12.854  0.00  0.00    +0.000 C 
ATOM     19  C   UNL     1       7.356   4.771  12.191  0.00  0.00    +0.000 A 
ATOM     20  C   UNL     1       6.356   4.169  12.907  0.00  0.00    +0.000 A 
ATOM     21 BR   UNL     1       5.004   3.083  12.199  0.00  0.00    +0.000 Br
ENDBRANCH   3  15
TORSDOF 2
ENDMDL
MODEL 5
REMARK VINA RESULT:      -6.7      2.200      3.064
REMARK  Name = 
REMARK  4 active torsions:
REMARK  status: ('A' for Active; 'I' for Inactive)
REMARK    1  A    between atoms: C_1  and  N_2
REMARK    2  A    between atoms: N_2  and  C_12
REMARK    3  A    between atoms: C_3  and  C_5
REMARK    4  A    between atoms: N_7  and  C_8
REMARK                            x       y       z     vdW  Elec       q    Type
REMARK                         _______ _______ _______ _____ _____    ______ ____
ROOT
ATOM      1  C   UNL     1       5.100   6.427  15.892  0.00  0.00    +0.000 C 
ATOM      2  N   UNL     1       5.036   4.994  16.180  0.00  0.00    +0.000 N 
ATOM      3  C   UNL     1       5.795   4.045  15.442  0.00  0.00    +0.000 C 
ATOM      4  O   UNL     1       5.814   2.857  15.763  0.00  0.00    +0.000 OA
ENDROOT
BRANCH   2   5
ATOM      5  C   UNL     1       4.124   4.540  17.294  0.00  0.00    +0.000 C 
ATOM      6  C   UNL     1       3.192   5.694  17.804  0.00  0.00    +0.000 C 
ATOM      7  C   UNL     1       2.250   5.236  18.923  0.00  0.00    +0.000 C 
ATOM      8  C   UNL     1       1.369   4.099  18.395  0.00  0.00    +0.000 C 
ATOM      9  C   UNL     1       2.251   2.924  17.951  0.00  0.00    +0.000 C 
ATOM     10  C   UNL     1       3.087   2.440  19.148  0.00  0.00    +0.000 C 
ATOM     11  C   UNL     1       3.982   3.581  19.664  0.00  0.00    +0.000 C 
ATOM     12  C   UNL     1       3.091   4.748  20.109  0.00  0.00    +0.000 C 
ATOM     13  C   UNL     1       4.926   4.046  18.536  0.00  0.00    +0.000 C 
ATOM     14  C   UNL     1       3.192   3.384  16.821  0.00  0.00    +0.000 C 
ENDBRANCH   2   5
BRANCH   3  15
ATOM     15  C   UNL     1       6.594   4.485  14.269  0.00  0.00    +0.000 A 
ATOM     16  N   UNL     1       7.646   5.332  14.359  0.00  0.00    +0.000 NA
ATOM     17  N   UNL     1       8.115   5.433  13.101  0.00  0.00    +0.000 N 
ATOM     18  C   UNL     1       9.329   6.167  12.840  0.00  0.00    +0.000 C 
ATOM     19  C   UNL     1       7.361   4.774  12.183  0.00  0.00    +0.000 A 
ATOM     20  C   UNL     1       6.365   4.169  12.902  0.00  0.00    +0.000 A 
ATOM     21 BR   UNL     1       5.017   3.075  12.198  0.00  0.00    +0.000 Br
ENDBRANCH   3  15
TORSDOF 2
ENDMDL
MODEL 6
REMARK VINA RESULT:      -6.6      2.199      3.060
REMARK  Name = 
REMARK  4 active torsions:
REMARK  status: ('A' for Active; 'I' for Inactive)
REMARK    1  A    between atoms: C_1  and  N_2
REMARK    2  A    between atoms: N_2  and  C_12
REMARK    3  A    between atoms: C_3  and  C_5
REMARK    4  A    between atoms: N_7  and  C_8
REMARK                            x       y       z     vdW  Elec       q    Type
REMARK                         _______ _______ _______ _____ _____    ______ ____
ROOT
ATOM      1  C   UNL     1       5.112   6.429  15.906  0.00  0.00    +0.000 C 
ATOM      2  N   UNL     1       5.032   4.996  16.185  0.00  0.00    +0.000 N 
ATOM      3  C   UNL     1       5.780   4.043  15.442  0.00  0.00    +0.000 C 
ATOM      4  O   UNL     1       5.786   2.852  15.756  0.00  0.00    +0.000 OA
ENDROOT
BRANCH   2   5
ATOM      5  C   UNL     1       4.112   4.545  17.295  0.00  0.00    +0.000 C 
ATOM      6  C   UNL     1       4.905   4.015  18.541  0.00  0.00    +0.000 C 
ATOM      7  C   UNL     1       3.979   3.572  19.679  0.00  0.00    +0.000 C 
ATOM      8  C   UNL     1       3.127   4.767  20.118  0.00  0.00    +0.000 C 
ATOM      9  C   UNL     1       2.286   5.267  18.936  0.00  0.00    +0.000 C 
ATOM     10  C   UNL     1       1.385   4.124  18.438  0.00  0.00    +0.000 C 
ATOM     11  C   UNL     1       2.247   2.932  17.982  0.00  0.00    +0.000 C 
ATOM     12  C   UNL     1       3.079   2.437  19.172  0.00  0.00    +0.000 C 
ATOM     13  C   UNL     1       3.183   3.379  16.841  0.00  0.00    +0.000 C 
ATOM     14  C   UNL     1       3.219   5.719  17.795  0.00  0.00    +0.000 C 
ENDBRANCH   2   5
BRANCH   3  15
ATOM     15  C   UNL     1       6.587   4.481  14.272  0.00  0.00    +0.000 A 
ATOM     16  N   UNL     1       7.642   5.323  14.368  0.00  0.00    +0.000 NA
ATOM     17  N   UNL     1       8.115   5.425  13.112  0.00  0.00    +0.000 N 
ATOM     18  C   UNL     1       9.334   6.154  12.857  0.00  0.00    +0.000 C 
ATOM     19  C   UNL     1       7.363   4.770  12.190  0.00  0.00    +0.000 A 
ATOM     20  C   UNL     1       6.361   4.168  12.904  0.00  0.00    +0.000 A 
ATOM     21 BR   UNL     1       5.012   3.081  12.193  0.00  0.00    +0.000 Br
ENDBRANCH   3  15
TORSDOF 2
ENDMDL
MODEL 7
REMARK VINA RESULT:      -6.6      1.102      1.793
REMARK  Name = 
REMARK  4 active torsions:
REMARK  status: ('A' for Active; 'I' for Inactive)
REMARK    1  A    between atoms: C_1  and  N_2
REMARK    2  A    between atoms: N_2  and  C_12
REMARK    3  A    between atoms: C_3  and  C_5
REMARK    4  A    between atoms: N_7  and  C_8
REMARK                            x       y       z     vdW  Elec       q    Type
REMARK                         _______ _______ _______ _____ _____    ______ ____
ROOT
ATOM      1  C   UNL     1       4.107   6.109  17.306  0.00  0.00    +0.000 C 
ATOM      2  N   UNL     1       4.046   4.693  17.664  0.00  0.00    +0.000 N 
ATOM      3  C   UNL     1       4.837   3.716  17.002  0.00  0.00    +0.000 C 
ATOM      4  O   UNL     1       4.856   2.545  17.384  0.00  0.00    +0.000 OA
ENDROOT
BRANCH   2   5
ATOM      5  C   UNL     1       3.100   4.286  18.769  0.00  0.00    +0.000 C 
ATOM      6  C   UNL     1       3.734   3.219  19.728  0.00  0.00    +0.000 C 
ATOM      7  C   UNL     1       2.786   2.813  20.862  0.00  0.00    +0.000 C 
ATOM      8  C   UNL     1       2.436   4.059  21.685  0.00  0.00    +0.000 C 
ATOM      9  C   UNL     1       1.751   5.097  20.787  0.00  0.00    +0.000 C 
ATOM     10  C   UNL     1       0.477   4.481  20.184  0.00  0.00    +0.000 C 
ATOM     11  C   UNL     1       0.835   3.241  19.346  0.00  0.00    +0.000 C 
ATOM     12  C   UNL     1       1.515   2.207  20.253  0.00  0.00    +0.000 C 
ATOM     13  C   UNL     1       1.793   3.647  18.208  0.00  0.00    +0.000 C 
ATOM     14  C   UNL     1       2.708   5.509  19.651  0.00  0.00    +0.000 C 
ENDBRANCH   2   5
BRANCH   3  15
ATOM     15  C   UNL     1       5.673   4.104  15.835  0.00  0.00    +0.000 A 
ATOM     16  N   UNL     1       5.548   3.544  14.610  0.00  0.00    +0.000 NA
ATOM     17  N   UNL     1       6.439   4.198  13.841  0.00  0.00    +0.000 N 
ATOM     18  C   UNL     1       6.491   3.945  12.421  0.00  0.00    +0.000 C 
ATOM     19  C   UNL     1       7.206   5.085  14.527  0.00  0.00    +0.000 A 
ATOM     20  C   UNL     1       6.748   5.033  15.817  0.00  0.00    +0.000 A 
ATOM     21 BR   UNL     1       7.387   6.062  17.247  0.00  0.00    +0.000 Br
ENDBRANCH   3  15
TORSDOF 2
ENDMDL
MODEL 8
REMARK VINA RESULT:      -6.5      1.109      1.376
REMARK  Name = 
REMARK  4 active torsions:
REMARK  status: ('A' for Active; 'I' for Inactive)
REMARK    1  A    between atoms: C_1  and  N_2
REMARK    2  A    between atoms: N_2  and  C_12
REMARK    3  A    between atoms: C_3  and  C_5
REMARK    4  A    between atoms: N_7  and  C_8
REMARK                            x       y       z     vdW  Elec       q    Type
REMARK                         _______ _______ _______ _____ _____    ______ ____
ROOT
ATOM      1  C   UNL     1       4.109   6.099  17.273  0.00  0.00    +0.000 C 
ATOM      2  N   UNL     1       4.067   4.683  17.637  0.00  0.00    +0.000 N 
ATOM      3  C   UNL     1       4.864   3.712  16.973  0.00  0.00    +0.000 C 
ATOM      4  O   UNL     1       4.899   2.544  17.360  0.00  0.00    +0.000 OA
ENDROOT
BRANCH   2   5
ATOM      5  C   UNL     1       3.133   4.270  18.751  0.00  0.00    +0.000 C 
ATOM      6  C   UNL     1       2.717   5.483  19.655  0.00  0.00    +0.000 C 
ATOM      7  C   UNL     1       1.756   5.075  20.777  0.00  0.00    +0.000 C 
ATOM      8  C   UNL     1       0.490   4.479  20.152  0.00  0.00    +0.000 C 
ATOM      9  C   UNL     1       0.856   3.247  19.314  0.00  0.00    +0.000 C 
ATOM     10  C   UNL     1       1.545   2.209  20.217  0.00  0.00    +0.000 C 
ATOM     11  C   UNL     1       2.824   2.807  20.828  0.00  0.00    +0.000 C 
ATOM     12  C   UNL     1       2.447   4.035  21.667  0.00  0.00    +0.000 C 
ATOM     13  C   UNL     1       3.790   3.223  19.700  0.00  0.00    +0.000 C 
ATOM     14  C   UNL     1       1.817   3.660  18.182  0.00  0.00    +0.000 C 
ENDBRANCH   2   5
BRANCH   3  15
ATOM     15  C   UNL     1       5.687   4.105  15.799  0.00  0.00    +0.000 A 
ATOM     16  N   UNL     1       5.560   3.537  14.577  0.00  0.00    +0.000 NA
ATOM     17  N   UNL     1       6.437   4.198  13.799  0.00  0.00    +0.000 N 
ATOM     18  C   UNL     1       6.483   3.938  12.380  0.00  0.00    +0.000 C 
ATOM     19  C   UNL     1       7.198   5.098  14.475  0.00  0.00    +0.000 A 
ATOM     20  C   UNL     1       6.750   5.048  15.768  0.00  0.00    +0.000 A 
ATOM     21 BR   UNL     1       7.386   6.092  17.188  0.00  0.00    +0.000 Br
ENDBRANCH   3  15
TORSDOF 2
ENDMDL
MODEL 9
REMARK VINA RESULT:      -6.5      1.102      2.221
REMARK  Name = 
REMARK  4 active torsions:
REMARK  status: ('A' for Active; 'I' for Inactive)
REMARK    1  A    between atoms: C_1  and  N_2
REMARK    2  A    between atoms: N_2  and  C_12
REMARK    3  A    between atoms: C_3  and  C_5
REMARK    4  A    between atoms: N_7  and  C_8
REMARK                            x       y       z     vdW  Elec       q    Type
REMARK                         _______ _______ _______ _____ _____    ______ ____
ROOT
ATOM      1  C   UNL     1       4.095   6.108  17.325  0.00  0.00    +0.000 C 
ATOM      2  N   UNL     1       4.055   4.692  17.687  0.00  0.00    +0.000 N 
ATOM      3  C   UNL     1       4.864   3.725  17.030  0.00  0.00    +0.000 C 
ATOM      4  O   UNL     1       4.900   2.556  17.416  0.00  0.00    +0.000 OA
ENDROOT
BRANCH   2   5
ATOM      5  C   UNL     1       3.112   4.273  18.791  0.00  0.00    +0.000 C 
ATOM      6  C   UNL     1       1.806   3.608  18.232  0.00  0.00    +0.000 C 
ATOM      7  C   UNL     1       0.851   3.165  19.346  0.00  0.00    +0.000 C 
ATOM      8  C   UNL     1       1.570   2.147  20.238  0.00  0.00    +0.000 C 
ATOM      9  C   UNL     1       2.819   2.790  20.856  0.00  0.00    +0.000 C 
ATOM     10  C   UNL     1       2.399   4.019  21.680  0.00  0.00    +0.000 C 
ATOM     11  C   UNL     1       1.693   5.045  20.776  0.00  0.00    +0.000 C 
ATOM     12  C   UNL     1       0.444   4.395  20.168  0.00  0.00    +0.000 C 
ATOM     13  C   UNL     1       2.651   5.488  19.651  0.00  0.00    +0.000 C 
ATOM     14  C   UNL     1       3.781   3.229  19.734  0.00  0.00    +0.000 C 
ENDBRANCH   2   5
BRANCH   3  15
ATOM     15  C   UNL     1       5.697   4.123  15.865  0.00  0.00    +0.000 A 
ATOM     16  N   UNL     1       5.571   3.571  14.636  0.00  0.00    +0.000 NA
ATOM     17  N   UNL     1       6.459   4.232  13.870  0.00  0.00    +0.000 N 
ATOM     18  C   UNL     1       6.510   3.988  12.449  0.00  0.00    +0.000 C 
ATOM     19  C   UNL     1       7.225   5.116  14.561  0.00  0.00    +0.000 A 
ATOM     20  C   UNL     1       6.770   5.055  15.851  0.00  0.00    +0.000 A 
ATOM     21 BR   UNL     1       7.408   6.076  17.286  0.00  0.00    +0.000 Br
ENDBRANCH   3  15
TORSDOF 2
ENDMDL
