MODEL 1
REMARK VINA RESULT:      -6.9      0.000      0.000
REMARK  Name = 
REMARK  8 active torsions:
REMARK  status: ('A' for Active; 'I' for Inactive)
REMARK    1  A    between atoms: C_2  and  O_3
REMARK    2  A    between atoms: C_2  and  C_4
REMARK    3  A    between atoms: C_4  and  C_5
REMARK    4  A    between atoms: C_5  and  C_6
REMARK    5  A    between atoms: C_6  and  N_7
REMARK    6  A    between atoms: N_14  and  C_15
REMARK    7  A    between atoms: C_15  and  C_16
REMARK    8  A    between atoms: C_16  and  O_18
REMARK                            x       y       z     vdW  Elec       q    Type
REMARK                         _______ _______ _______ _____ _____    ______ ____
ROOT
ATOM      1  N   UNL     1       1.795   4.929  19.381  0.00  0.00    +0.000 N 
ATOM      2  C   UNL     1       1.930   6.068  20.136  0.00  0.00    +0.000 C 
ATOM      3  O   UNL     1       2.090   6.098  21.351  0.00  0.00    +0.000 OA
ATOM      4  C   UNL     1       2.062   7.252  19.264  0.00  0.00    +0.000 C 
ATOM      5  C   UNL     1       1.576   8.470  19.562  0.00  0.00    +0.000 C 
ATOM      6  C   UNL     1       1.708   9.664  18.646  0.00  0.00    +0.000 C 
ATOM      7  O   UNL     1       2.215   9.700  17.542  0.00  0.00    +0.000 OA
ATOM      8  N   UNL     1       1.098  10.724  19.319  0.00  0.00    +0.000 N 
ATOM      9  C   UNL     1       0.534  10.291  20.533  0.00  0.00    +0.000 A 
ATOM     10  C   UNL     1      -0.183  11.050  21.449  0.00  0.00    +0.000 A 
ATOM     11  C   UNL     1      -0.631  10.428  22.613  0.00  0.00    +0.000 A 
ATOM     12  C   UNL     1      -0.408   9.064  22.816  0.00  0.00    +0.000 A 
ATOM     13  C   UNL     1       0.282   8.306  21.864  0.00  0.00    +0.000 A 
ATOM     14  C   UNL     1       0.797   8.930  20.736  0.00  0.00    +0.000 A 
ATOM     15  S   UNL     1       2.791   6.693  17.801  0.00  0.00    +0.000 S 
ATOM     16  C   UNL     1       2.374   5.008  18.136  0.00  0.00    +0.000 C 
ATOM     17  S   UNL     1       2.660   3.772  17.058  0.00  0.00    +0.000 S 
ENDROOT
BRANCH   1  18
ATOM     18  C   UNL     1       1.060   3.784  19.921  0.00  0.00    +0.000 C 
BRANCH  18  19
ATOM     19  C   UNL     1       1.866   2.507  20.170  0.00  0.00    +0.000 C 
BRANCH  19  20
ATOM     20  C   UNL     1       3.231   2.705  20.827  0.00  0.00    +0.000 C 
BRANCH  20  22
ATOM     21  O   UNL     1       5.262   3.349  19.675  0.00  0.00    +0.000 OA
ATOM     22  C   UNL     1       4.380   2.521  19.858  0.00  0.00    +0.000 C 
BRANCH  22  23
ATOM     23  O   UNL     1       4.373   1.330  19.223  0.00  0.00    +0.000 OA
ATOM     24  H   UNL     1       5.170   1.202  18.664  0.00  0.00    +0.000 HD
ENDBRANCH  22  23
ENDBRANCH  20  22
ENDBRANCH  19  20
ENDBRANCH  18  19
ENDBRANCH   1  18
BRANCH   8  25
ATOM     25  C   UNL     1       0.828  12.004  18.678  0.00  0.00    +0.000 C 
BRANCH  25  26
ATOM     26  C   UNL     1       2.015  12.939  18.460  0.00  0.00    +0.000 C 
ATOM     27  O   UNL     1       2.306  13.838  19.240  0.00  0.00    +0.000 OA
BRANCH  26  28
ATOM     28  O   UNL     1       2.747  12.694  17.352  0.00  0.00    +0.000 OA
ATOM     29  H   UNL     1       2.195  12.608  16.552  0.00  0.00    +0.000 HD
ENDBRANCH  26  28
ENDBRANCH  25  26
ENDBRANCH   8  25
TORSDOF 8
ENDMDL
MODEL 2
REMARK VINA RESULT:      -6.7      1.506      1.645
REMARK  Name = 
REMARK  8 active torsions:
REMARK  status: ('A' for Active; 'I' for Inactive)
REMARK    1  A    between atoms: C_2  and  O_3
REMARK    2  A    between atoms: C_2  and  C_4
REMARK    3  A    between atoms: C_4  and  C_5
REMARK    4  A    between atoms: C_5  and  C_6
REMARK    5  A    between atoms: C_6  and  N_7
REMARK    6  A    between atoms: N_14  and  C_15
REMARK    7  A    between atoms: C_15  and  C_16
REMARK    8  A    between atoms: C_16  and  O_18
REMARK                            x       y       z     vdW  Elec       q    Type
REMARK                         _______ _______ _______ _____ _____    ______ ____
ROOT
ATOM      1  N   UNL     1       1.958   5.462  19.671  0.00  0.00    +0.000 N 
ATOM      2  C   UNL     1       1.998   6.639  20.376  0.00  0.00    +0.000 C 
ATOM      3  O   UNL     1       2.229   6.739  21.576  0.00  0.00    +0.000 OA
ATOM      4  C   UNL     1       1.927   7.793  19.459  0.00  0.00    +0.000 C 
ATOM      5  C   UNL     1       1.315   8.955  19.749  0.00  0.00    +0.000 C 
ATOM      6  C   UNL     1       1.239  10.117  18.786  0.00  0.00    +0.000 C 
ATOM      7  O   UNL     1       1.668  10.169  17.650  0.00  0.00    +0.000 OA
ATOM      8  N   UNL     1       0.547  11.123  19.463  0.00  0.00    +0.000 N 
ATOM      9  C   UNL     1       0.118  10.675  20.726  0.00  0.00    +0.000 A 
ATOM     10  C   UNL     1      -0.629  11.378  21.662  0.00  0.00    +0.000 A 
ATOM     11  C   UNL     1      -0.922  10.755  22.874  0.00  0.00    +0.000 A 
ATOM     12  C   UNL     1      -0.520   9.437  23.106  0.00  0.00    +0.000 A 
ATOM     13  C   UNL     1       0.197   8.730  22.136  0.00  0.00    +0.000 A 
ATOM     14  C   UNL     1       0.560   9.365  20.956  0.00  0.00    +0.000 A 
ATOM     15  S   UNL     1       2.627   7.267  17.969  0.00  0.00    +0.000 S 
ATOM     16  C   UNL     1       2.444   5.559  18.388  0.00  0.00    +0.000 C 
ATOM     17  S   UNL     1       2.812   4.324  17.335  0.00  0.00    +0.000 S 
ENDROOT
BRANCH   1  18
ATOM     18  C   UNL     1       1.406   4.260  20.297  0.00  0.00    +0.000 C 
BRANCH  18  19
ATOM     19  C   UNL     1       2.380   3.397  21.102  0.00  0.00    +0.000 C 
BRANCH  19  20
ATOM     20  C   UNL     1       3.011   2.231  20.343  0.00  0.00    +0.000 C 
BRANCH  20  22
ATOM     21  O   UNL     1       5.161   1.535  21.215  0.00  0.00    +0.000 OA
ATOM     22  C   UNL     1       4.523   2.224  20.431  0.00  0.00    +0.000 C 
BRANCH  22  23
ATOM     23  O   UNL     1       5.126   3.031  19.534  0.00  0.00    +0.000 OA
ATOM     24  H   UNL     1       6.068   2.792  19.392  0.00  0.00    +0.000 HD
ENDBRANCH  22  23
ENDBRANCH  20  22
ENDBRANCH  19  20
ENDBRANCH  18  19
ENDBRANCH   1  18
BRANCH   8  25
ATOM     25  C   UNL     1       0.081  12.333  18.800  0.00  0.00    +0.000 C 
BRANCH  25  26
ATOM     26  C   UNL     1      -1.321  12.302  18.197  0.00  0.00    +0.000 C 
ATOM     27  O   UNL     1      -2.332  12.144  18.872  0.00  0.00    +0.000 OA
BRANCH  26  28
ATOM     28  O   UNL     1      -1.380  12.484  16.861  0.00  0.00    +0.000 OA
ATOM     29  H   UNL     1      -0.523  12.761  16.485  0.00  0.00    +0.000 HD
ENDBRANCH  26  28
ENDBRANCH  25  26
ENDBRANCH   8  25
TORSDOF 8
ENDMDL
MODEL 3
REMARK VINA RESULT:      -6.5      2.110      2.424
REMARK  Name = 
REMARK  8 active torsions:
REMARK  status: ('A' for Active; 'I' for Inactive)
REMARK    1  A    between atoms: C_2  and  O_3
REMARK    2  A    between atoms: C_2  and  C_4
REMARK    3  A    between atoms: C_4  and  C_5
REMARK    4  A    between atoms: C_5  and  C_6
REMARK    5  A    between atoms: C_6  and  N_7
REMARK    6  A    between atoms: N_14  and  C_15
REMARK    7  A    between atoms: C_15  and  C_16
REMARK    8  A    between atoms: C_16  and  O_18
REMARK                            x       y       z     vdW  Elec       q    Type
REMARK                         _______ _______ _______ _____ _____    ______ ____
ROOT
ATOM      1  N   UNL     1       2.180   6.348  20.065  0.00  0.00    +0.000 N 
ATOM      2  C   UNL     1       1.997   7.589  20.622  0.00  0.00    +0.000 C 
ATOM      3  O   UNL     1       2.298   7.903  21.768  0.00  0.00    +0.000 OA
ATOM      4  C   UNL     1       1.576   8.561  19.593  0.00  0.00    +0.000 C 
ATOM      5  C   UNL     1       0.731   9.582  19.816  0.00  0.00    +0.000 C 
ATOM      6  C   UNL     1       0.300  10.553  18.742  0.00  0.00    +0.000 C 
ATOM      7  O   UNL     1       0.607  10.545  17.567  0.00  0.00    +0.000 OA
ATOM      8  N   UNL     1      -0.553  11.460  19.375  0.00  0.00    +0.000 N 
ATOM      9  C   UNL     1      -0.754  11.106  20.722  0.00  0.00    +0.000 A 
ATOM     10  C   UNL     1      -1.566  11.744  21.650  0.00  0.00    +0.000 A 
ATOM     11  C   UNL     1      -1.598  11.244  22.951  0.00  0.00    +0.000 A 
ATOM     12  C   UNL     1      -0.875  10.096  23.285  0.00  0.00    +0.000 A 
ATOM     13  C   UNL     1      -0.095   9.442  22.326  0.00  0.00    +0.000 A 
ATOM     14  C   UNL     1       0.005   9.973  21.047  0.00  0.00    +0.000 A 
ATOM     15  S   UNL     1       2.253   8.006  18.103  0.00  0.00    +0.000 S 
ATOM     16  C   UNL     1       2.518   6.375  18.732  0.00  0.00    +0.000 C 
ATOM     17  S   UNL     1       3.080   5.122  17.791  0.00  0.00    +0.000 S 
ENDROOT
BRANCH   1  18
ATOM     18  C   UNL     1       1.986   5.150  20.883  0.00  0.00    +0.000 C 
BRANCH  18  19
ATOM     19  C   UNL     1       0.915   4.164  20.412  0.00  0.00    +0.000 C 
BRANCH  19  20
ATOM     20  C   UNL     1       1.236   2.687  20.634  0.00  0.00    +0.000 C 
BRANCH  20  22
ATOM     21  O   UNL     1       3.555   2.296  20.053  0.00  0.00    +0.000 OA
ATOM     22  C   UNL     1       2.372   2.196  19.760  0.00  0.00    +0.000 C 
BRANCH  22  23
ATOM     23  O   UNL     1       1.964   1.597  18.622  0.00  0.00    +0.000 OA
ATOM     24  H   UNL     1       2.714   1.395  18.019  0.00  0.00    +0.000 HD
ENDBRANCH  22  23
ENDBRANCH  20  22
ENDBRANCH  19  20
ENDBRANCH  18  19
ENDBRANCH   1  18
BRANCH   8  25
ATOM     25  C   UNL     1      -1.348  12.431  18.636  0.00  0.00    +0.000 C 
BRANCH  25  26
ATOM     26  C   UNL     1      -2.443  11.884  17.723  0.00  0.00    +0.000 C 
ATOM     27  O   UNL     1      -3.575  11.634  18.118  0.00  0.00    +0.000 OA
BRANCH  26  28
ATOM     28  O   UNL     1      -2.086  11.714  16.432  0.00  0.00    +0.000 OA
ATOM     29  H   UNL     1      -2.711  11.145  15.944  0.00  0.00    +0.000 HD
ENDBRANCH  26  28
ENDBRANCH  25  26
ENDBRANCH   8  25
TORSDOF 8
ENDMDL
MODEL 4
REMARK VINA RESULT:      -6.4      2.658      7.357
REMARK  Name = 
REMARK  8 active torsions:
REMARK  status: ('A' for Active; 'I' for Inactive)
REMARK    1  A    between atoms: C_2  and  O_3
REMARK    2  A    between atoms: C_2  and  C_4
REMARK    3  A    between atoms: C_4  and  C_5
REMARK    4  A    between atoms: C_5  and  C_6
REMARK    5  A    between atoms: C_6  and  N_7
REMARK    6  A    between atoms: N_14  and  C_15
REMARK    7  A    between atoms: C_15  and  C_16
REMARK    8  A    between atoms: C_16  and  O_18
REMARK                            x       y       z     vdW  Elec       q    Type
REMARK                         _______ _______ _______ _____ _____    ______ ____
ROOT
ATOM      1  N   UNL     1       1.270   8.818  20.587  0.00  0.00    +0.000 N 
ATOM      2  C   UNL     1       1.291   7.507  20.182  0.00  0.00    +0.000 C 
ATOM      3  O   UNL     1       0.551   6.624  20.599  0.00  0.00    +0.000 OA
ATOM      4  C   UNL     1       2.191   7.339  19.024  0.00  0.00    +0.000 C 
ATOM      5  C   UNL     1       2.935   6.242  18.795  0.00  0.00    +0.000 C 
ATOM      6  C   UNL     1       3.863   6.100  17.612  0.00  0.00    +0.000 C 
ATOM      7  O   UNL     1       4.095   6.921  16.747  0.00  0.00    +0.000 OA
ATOM      8  N   UNL     1       4.427   4.828  17.727  0.00  0.00    +0.000 N 
ATOM      9  C   UNL     1       3.999   4.192  18.906  0.00  0.00    +0.000 A 
ATOM     10  C   UNL     1       4.377   2.941  19.376  0.00  0.00    +0.000 A 
ATOM     11  C   UNL     1       3.804   2.482  20.562  0.00  0.00    +0.000 A 
ATOM     12  C   UNL     1       2.920   3.292  21.279  0.00  0.00    +0.000 A 
ATOM     13  C   UNL     1       2.581   4.565  20.811  0.00  0.00    +0.000 A 
ATOM     14  C   UNL     1       3.086   5.004  19.594  0.00  0.00    +0.000 A 
ATOM     15  S   UNL     1       2.183   8.850  18.186  0.00  0.00    +0.000 S 
ATOM     16  C   UNL     1       1.544   9.720  19.585  0.00  0.00    +0.000 C 
ATOM     17  S   UNL     1       1.346  11.373  19.611  0.00  0.00    +0.000 S 
ENDROOT
BRANCH   1  18
ATOM     18  C   UNL     1       0.995   9.140  21.988  0.00  0.00    +0.000 C 
BRANCH  18  19
ATOM     19  C   UNL     1      -0.472   9.130  22.420  0.00  0.00    +0.000 C 
BRANCH  19  20
ATOM     20  C   UNL     1      -0.927  10.335  23.242  0.00  0.00    +0.000 C 
BRANCH  20  22
ATOM     21  O   UNL     1      -1.795  11.740  21.469  0.00  0.00    +0.000 OA
ATOM     22  C   UNL     1      -1.033  11.601  22.416  0.00  0.00    +0.000 C 
BRANCH  22  23
ATOM     23  O   UNL     1      -0.226  12.596  22.838  0.00  0.00    +0.000 OA
ATOM     24  H   UNL     1       0.133  13.125  22.092  0.00  0.00    +0.000 HD
ENDBRANCH  22  23
ENDBRANCH  20  22
ENDBRANCH  19  20
ENDBRANCH  18  19
ENDBRANCH   1  18
BRANCH   8  25
ATOM     25  C   UNL     1       5.538   4.389  16.894  0.00  0.00    +0.000 C 
BRANCH  25  26
ATOM     26  C   UNL     1       6.931   4.892  17.266  0.00  0.00    +0.000 C 
ATOM     27  O   UNL     1       7.470   5.836  16.700  0.00  0.00    +0.000 OA
BRANCH  26  28
ATOM     28  O   UNL     1       7.527   4.238  18.285  0.00  0.00    +0.000 OA
ATOM     29  H   UNL     1       8.068   4.829  18.842  0.00  0.00    +0.000 HD
ENDBRANCH  26  28
ENDBRANCH  25  26
ENDBRANCH   8  25
TORSDOF 8
ENDMDL
MODEL 5
REMARK VINA RESULT:      -6.3      3.275      6.349
REMARK  Name = 
REMARK  8 active torsions:
REMARK  status: ('A' for Active; 'I' for Inactive)
REMARK    1  A    between atoms: C_2  and  O_3
REMARK    2  A    between atoms: C_2  and  C_4
REMARK    3  A    between atoms: C_4  and  C_5
REMARK    4  A    between atoms: C_5  and  C_6
REMARK    5  A    between atoms: C_6  and  N_7
REMARK    6  A    between atoms: N_14  and  C_15
REMARK    7  A    between atoms: C_15  and  C_16
REMARK    8  A    between atoms: C_16  and  O_18
REMARK                            x       y       z     vdW  Elec       q    Type
REMARK                         _______ _______ _______ _____ _____    ______ ____
ROOT
ATOM      1  N   UNL     1       5.825   6.216  16.401  0.00  0.00    +0.000 N 
ATOM      2  C   UNL     1       4.537   6.436  16.823  0.00  0.00    +0.000 C 
ATOM      3  O   UNL     1       3.934   7.500  16.734  0.00  0.00    +0.000 OA
ATOM      4  C   UNL     1       3.897   5.164  17.213  0.00  0.00    +0.000 C 
ATOM      5  C   UNL     1       3.000   5.042  18.207  0.00  0.00    +0.000 C 
ATOM      6  C   UNL     1       2.372   3.725  18.601  0.00  0.00    +0.000 C 
ATOM      7  O   UNL     1       2.591   2.627  18.129  0.00  0.00    +0.000 OA
ATOM      8  N   UNL     1       1.496   4.024  19.647  0.00  0.00    +0.000 N 
ATOM      9  C   UNL     1       1.573   5.385  19.994  0.00  0.00    +0.000 A 
ATOM     10  C   UNL     1       0.884   6.039  21.007  0.00  0.00    +0.000 A 
ATOM     11  C   UNL     1       1.083   7.410  21.162  0.00  0.00    +0.000 A 
ATOM     12  C   UNL     1       1.999   8.086  20.352  0.00  0.00    +0.000 A 
ATOM     13  C   UNL     1       2.714   7.404  19.363  0.00  0.00    +0.000 A 
ATOM     14  C   UNL     1       2.469   6.055  19.148  0.00  0.00    +0.000 A 
ATOM     15  S   UNL     1       4.651   3.934  16.262  0.00  0.00    +0.000 S 
ATOM     16  C   UNL     1       6.039   4.961  15.880  0.00  0.00    +0.000 C 
ATOM     17  S   UNL     1       7.362   4.416  15.030  0.00  0.00    +0.000 S 
ENDROOT
BRANCH   1  18
ATOM     18  C   UNL     1       6.828   7.271  16.554  0.00  0.00    +0.000 C 
BRANCH  18  19
ATOM     19  C   UNL     1       7.337   7.533  17.973  0.00  0.00    +0.000 C 
BRANCH  19  20
ATOM     20  C   UNL     1       8.193   6.425  18.583  0.00  0.00    +0.000 C 
BRANCH  20  22
ATOM     21  O   UNL     1       6.311   5.305  19.619  0.00  0.00    +0.000 OA
ATOM     22  C   UNL     1       7.477   5.670  19.684  0.00  0.00    +0.000 C 
BRANCH  22  23
ATOM     23  O   UNL     1       8.254   5.397  20.753  0.00  0.00    +0.000 OA
ATOM     24  H   UNL     1       7.906   4.647  21.284  0.00  0.00    +0.000 HD
ENDBRANCH  22  23
ENDBRANCH  20  22
ENDBRANCH  19  20
ENDBRANCH  18  19
ENDBRANCH   1  18
BRANCH   8  25
ATOM     25  C   UNL     1       0.853   2.990  20.447  0.00  0.00    +0.000 C 
BRANCH  25  26
ATOM     26  C   UNL     1       1.581   2.529  21.707  0.00  0.00    +0.000 C 
ATOM     27  O   UNL     1       0.997   2.081  22.686  0.00  0.00    +0.000 OA
BRANCH  26  28
ATOM     28  O   UNL     1       2.927   2.627  21.664  0.00  0.00    +0.000 OA
ATOM     29  H   UNL     1       3.233   3.281  21.007  0.00  0.00    +0.000 HD
ENDBRANCH  26  28
ENDBRANCH  25  26
ENDBRANCH   8  25
TORSDOF 8
ENDMDL
MODEL 6
REMARK VINA RESULT:      -6.3      5.366      7.950
REMARK  Name = 
REMARK  8 active torsions:
REMARK  status: ('A' for Active; 'I' for Inactive)
REMARK    1  A    between atoms: C_2  and  O_3
REMARK    2  A    between atoms: C_2  and  C_4
REMARK    3  A    between atoms: C_4  and  C_5
REMARK    4  A    between atoms: C_5  and  C_6
REMARK    5  A    between atoms: C_6  and  N_7
REMARK    6  A    between atoms: N_14  and  C_15
REMARK    7  A    between atoms: C_15  and  C_16
REMARK    8  A    between atoms: C_16  and  O_18
REMARK                            x       y       z     vdW  Elec       q    Type
REMARK                         _______ _______ _______ _____ _____    ______ ____
ROOT
ATOM      1  N   UNL     1      -1.125  11.492  18.817  0.00  0.00    +0.000 N 
ATOM      2  C   UNL     1      -1.445  12.605  19.555  0.00  0.00    +0.000 C 
ATOM      3  O   UNL     1      -0.698  13.554  19.766  0.00  0.00    +0.000 OA
ATOM      4  C   UNL     1      -2.881  12.605  19.895  0.00  0.00    +0.000 C 
ATOM      5  C   UNL     1      -3.388  13.089  21.042  0.00  0.00    +0.000 C 
ATOM      6  C   UNL     1      -4.862  13.061  21.376  0.00  0.00    +0.000 C 
ATOM      7  O   UNL     1      -5.765  12.594  20.711  0.00  0.00    +0.000 OA
ATOM      8  N   UNL     1      -4.975  13.666  22.630  0.00  0.00    +0.000 N 
ATOM      9  C   UNL     1      -3.709  14.001  23.143  0.00  0.00    +0.000 A 
ATOM     10  C   UNL     1      -3.422  14.578  24.373  0.00  0.00    +0.000 A 
ATOM     11  C   UNL     1      -2.090  14.858  24.675  0.00  0.00    +0.000 A 
ATOM     12  C   UNL     1      -1.074  14.510  23.781  0.00  0.00    +0.000 A 
ATOM     13  C   UNL     1      -1.378  13.893  22.564  0.00  0.00    +0.000 A 
ATOM     14  C   UNL     1      -2.706  13.677  22.219  0.00  0.00    +0.000 A 
ATOM     15  S   UNL     1      -3.675  11.743  18.625  0.00  0.00    +0.000 S 
ATOM     16  C   UNL     1      -2.173  10.985  18.084  0.00  0.00    +0.000 C 
ATOM     17  S   UNL     1      -2.119   9.839  16.878  0.00  0.00    +0.000 S 
ENDROOT
BRANCH   1  18
ATOM     18  C   UNL     1       0.229  10.942  18.884  0.00  0.00    +0.000 C 
BRANCH  18  19
ATOM     19  C   UNL     1       0.463   9.814  19.891  0.00  0.00    +0.000 C 
BRANCH  19  20
ATOM     20  C   UNL     1       0.353  10.210  21.362  0.00  0.00    +0.000 C 
BRANCH  20  22
ATOM     21  O   UNL     1      -0.754   8.093  21.762  0.00  0.00    +0.000 OA
ATOM     22  C   UNL     1      -0.320   9.147  22.206  0.00  0.00    +0.000 C 
BRANCH  22  23
ATOM     23  O   UNL     1      -0.374   9.447  23.520  0.00  0.00    +0.000 OA
ATOM     24  H   UNL     1      -0.860   8.767  24.037  0.00  0.00    +0.000 HD
ENDBRANCH  22  23
ENDBRANCH  20  22
ENDBRANCH  19  20
ENDBRANCH  18  19
ENDBRANCH   1  18
BRANCH   8  25
ATOM     25  C   UNL     1      -6.212  13.645  23.398  0.00  0.00    +0.000 C 
BRANCH  25  26
ATOM     26  C   UNL     1      -6.568  12.343  24.110  0.00  0.00    +0.000 C 
ATOM     27  O   UNL     1      -7.588  11.708  23.868  0.00  0.00    +0.000 OA
BRANCH  26  28
ATOM     28  O   UNL     1      -5.665  11.917  25.019  0.00  0.00    +0.000 OA
ATOM     29  H   UNL     1      -5.646  12.479  25.817  0.00  0.00    +0.000 HD
ENDBRANCH  26  28
ENDBRANCH  25  26
ENDBRANCH   8  25
TORSDOF 8
ENDMDL
MODEL 7
REMARK VINA RESULT:      -6.3      5.369      7.890
REMARK  Name = 
REMARK  8 active torsions:
REMARK  status: ('A' for Active; 'I' for Inactive)
REMARK    1  A    between atoms: C_2  and  O_3
REMARK    2  A    between atoms: C_2  and  C_4
REMARK    3  A    between atoms: C_4  and  C_5
REMARK    4  A    between atoms: C_5  and  C_6
REMARK    5  A    between atoms: C_6  and  N_7
REMARK    6  A    between atoms: N_14  and  C_15
REMARK    7  A    between atoms: C_15  and  C_16
REMARK    8  A    between atoms: C_16  and  O_18
REMARK                            x       y       z     vdW  Elec       q    Type
REMARK                         _______ _______ _______ _____ _____    ______ ____
ROOT
ATOM      1  N   UNL     1      -1.028  11.520  18.931  0.00  0.00    +0.000 N 
ATOM      2  C   UNL     1      -1.333  12.656  19.639  0.00  0.00    +0.000 C 
ATOM      3  O   UNL     1      -0.563  13.586  19.852  0.00  0.00    +0.000 OA
ATOM      4  C   UNL     1      -2.777  12.706  19.938  0.00  0.00    +0.000 C 
ATOM      5  C   UNL     1      -3.300  13.228  21.062  0.00  0.00    +0.000 C 
ATOM      6  C   UNL     1      -4.782  13.252  21.355  0.00  0.00    +0.000 C 
ATOM      7  O   UNL     1      -5.681  12.799  20.675  0.00  0.00    +0.000 OA
ATOM      8  N   UNL     1      -4.910  13.885  22.594  0.00  0.00    +0.000 N 
ATOM      9  C   UNL     1      -3.649  14.190  23.135  0.00  0.00    +0.000 A 
ATOM     10  C   UNL     1      -3.378  14.783  24.362  0.00  0.00    +0.000 A 
ATOM     11  C   UNL     1      -2.047  15.028  24.695  0.00  0.00    +0.000 A 
ATOM     12  C   UNL     1      -1.018  14.632  23.836  0.00  0.00    +0.000 A 
ATOM     13  C   UNL     1      -1.308  14.001  22.623  0.00  0.00    +0.000 A 
ATOM     14  C   UNL     1      -2.632  13.818  22.245  0.00  0.00    +0.000 A 
ATOM     15  S   UNL     1      -3.563  11.844  18.664  0.00  0.00    +0.000 S 
ATOM     16  C   UNL     1      -2.070  11.031  18.178  0.00  0.00    +0.000 C 
ATOM     17  S   UNL     1      -2.020   9.860  16.996  0.00  0.00    +0.000 S 
ENDROOT
BRANCH   1  18
ATOM     18  C   UNL     1       0.307  10.931  19.045  0.00  0.00    +0.000 C 
BRANCH  18  19
ATOM     19  C   UNL     1       0.440   9.704  19.951  0.00  0.00    +0.000 C 
BRANCH  19  20
ATOM     20  C   UNL     1      -0.224   9.821  21.321  0.00  0.00    +0.000 C 
BRANCH  20  22
ATOM     21  O   UNL     1       0.515   9.674  23.623  0.00  0.00    +0.000 OA
ATOM     22  C   UNL     1       0.679   9.369  22.450  0.00  0.00    +0.000 C 
BRANCH  22  23
ATOM     23  O   UNL     1       1.682   8.557  22.055  0.00  0.00    +0.000 OA
ATOM     24  H   UNL     1       1.972   8.745  21.136  0.00  0.00    +0.000 HD
ENDBRANCH  22  23
ENDBRANCH  20  22
ENDBRANCH  19  20
ENDBRANCH  18  19
ENDBRANCH   1  18
BRANCH   8  25
ATOM     25  C   UNL     1      -6.168  13.916  23.327  0.00  0.00    +0.000 C 
BRANCH  25  26
ATOM     26  C   UNL     1      -6.587  12.637  24.047  0.00  0.00    +0.000 C 
ATOM     27  O   UNL     1      -5.785  11.881  24.583  0.00  0.00    +0.000 OA
BRANCH  26  28
ATOM     28  O   UNL     1      -7.916  12.399  24.076  0.00  0.00    +0.000 OA
ATOM     29  H   UNL     1      -8.307  12.360  23.183  0.00  0.00    +0.000 HD
ENDBRANCH  26  28
ENDBRANCH  25  26
ENDBRANCH   8  25
TORSDOF 8
ENDMDL
MODEL 8
REMARK VINA RESULT:      -6.2      3.135      7.360
REMARK  Name = 
REMARK  8 active torsions:
REMARK  status: ('A' for Active; 'I' for Inactive)
REMARK    1  A    between atoms: C_2  and  O_3
REMARK    2  A    between atoms: C_2  and  C_4
REMARK    3  A    between atoms: C_4  and  C_5
REMARK    4  A    between atoms: C_5  and  C_6
REMARK    5  A    between atoms: C_6  and  N_7
REMARK    6  A    between atoms: N_14  and  C_15
REMARK    7  A    between atoms: C_15  and  C_16
REMARK    8  A    between atoms: C_16  and  O_18
REMARK                            x       y       z     vdW  Elec       q    Type
REMARK                         _______ _______ _______ _____ _____    ______ ____
ROOT
ATOM      1  N   UNL     1       0.680   9.905  21.207  0.00  0.00    +0.000 N 
ATOM      2  C   UNL     1       0.624   8.645  20.665  0.00  0.00    +0.000 C 
ATOM      3  O   UNL     1      -0.148   7.758  21.011  0.00  0.00    +0.000 OA
ATOM      4  C   UNL     1       1.481   8.560  19.465  0.00  0.00    +0.000 C 
ATOM      5  C   UNL     1       2.161   7.460  19.097  0.00  0.00    +0.000 C 
ATOM      6  C   UNL     1       3.047   7.402  17.875  0.00  0.00    +0.000 C 
ATOM      7  O   UNL     1       3.295   8.300  17.094  0.00  0.00    +0.000 OA
ATOM      8  N   UNL     1       3.550   6.100  17.835  0.00  0.00    +0.000 N 
ATOM      9  C   UNL     1       3.124   5.362  18.955  0.00  0.00    +0.000 A 
ATOM     10  C   UNL     1       3.451   4.052  19.277  0.00  0.00    +0.000 A 
ATOM     11  C   UNL     1       2.891   3.496  20.426  0.00  0.00    +0.000 A 
ATOM     12  C   UNL     1       2.069   4.264  21.254  0.00  0.00    +0.000 A 
ATOM     13  C   UNL     1       1.782   5.595  20.935  0.00  0.00    +0.000 A 
ATOM     14  C   UNL     1       2.273   6.137  19.755  0.00  0.00    +0.000 A 
ATOM     15  S   UNL     1       1.525  10.151  18.793  0.00  0.00    +0.000 S 
ATOM     16  C   UNL     1       0.971  10.895  20.297  0.00  0.00    +0.000 C 
ATOM     17  S   UNL     1       0.857  12.543  20.505  0.00  0.00    +0.000 S 
ENDROOT
BRANCH   1  18
ATOM     18  C   UNL     1       0.463  10.087  22.643  0.00  0.00    +0.000 C 
BRANCH  18  19
ATOM     19  C   UNL     1      -0.968  10.401  23.085  0.00  0.00    +0.000 C 
BRANCH  19  20
ATOM     20  C   UNL     1      -1.332  11.884  23.138  0.00  0.00    +0.000 C 
BRANCH  20  22
ATOM     21  O   UNL     1      -3.292  12.565  21.888  0.00  0.00    +0.000 OA
ATOM     22  C   UNL     1      -2.811  12.132  22.926  0.00  0.00    +0.000 C 
BRANCH  22  23
ATOM     23  O   UNL     1      -3.577  11.800  23.987  0.00  0.00    +0.000 OA
ATOM     24  H   UNL     1      -3.985  12.586  24.411  0.00  0.00    +0.000 HD
ENDBRANCH  22  23
ENDBRANCH  20  22
ENDBRANCH  19  20
ENDBRANCH  18  19
ENDBRANCH   1  18
BRANCH   8  25
ATOM     25  C   UNL     1       4.613   5.701  16.923  0.00  0.00    +0.000 C 
BRANCH  25  26
ATOM     26  C   UNL     1       6.041   6.081  17.308  0.00  0.00    +0.000 C 
ATOM     27  O   UNL     1       6.458   6.024  18.459  0.00  0.00    +0.000 OA
BRANCH  26  28
ATOM     28  O   UNL     1       6.830   6.468  16.284  0.00  0.00    +0.000 OA
ATOM     29  H   UNL     1       6.443   6.256  15.413  0.00  0.00    +0.000 HD
ENDBRANCH  26  28
ENDBRANCH  25  26
ENDBRANCH   8  25
TORSDOF 8
ENDMDL
MODEL 9
REMARK VINA RESULT:      -6.2      5.260      7.714
REMARK  Name = 
REMARK  8 active torsions:
REMARK  status: ('A' for Active; 'I' for Inactive)
REMARK    1  A    between atoms: C_2  and  O_3
REMARK    2  A    between atoms: C_2  and  C_4
REMARK    3  A    between atoms: C_4  and  C_5
REMARK    4  A    between atoms: C_5  and  C_6
REMARK    5  A    between atoms: C_6  and  N_7
REMARK    6  A    between atoms: N_14  and  C_15
REMARK    7  A    between atoms: C_15  and  C_16
REMARK    8  A    between atoms: C_16  and  O_18
REMARK                            x       y       z     vdW  Elec       q    Type
REMARK                         _______ _______ _______ _____ _____    ______ ____
ROOT
ATOM      1  N   UNL     1       0.060  11.497  19.157  0.00  0.00    +0.000 N 
ATOM      2  C   UNL     1      -1.000  12.367  19.089  0.00  0.00    +0.000 C 
ATOM      3  O   UNL     1      -0.929  13.583  19.227  0.00  0.00    +0.000 OA
ATOM      4  C   UNL     1      -2.213  11.667  18.625  0.00  0.00    +0.000 C 
ATOM      5  C   UNL     1      -3.460  11.958  19.035  0.00  0.00    +0.000 C 
ATOM      6  C   UNL     1      -4.686  11.215  18.560  0.00  0.00    +0.000 C 
ATOM      7  O   UNL     1      -4.733  10.269  17.798  0.00  0.00    +0.000 OA
ATOM      8  N   UNL     1      -5.768  11.826  19.198  0.00  0.00    +0.000 N 
ATOM      9  C   UNL     1      -5.329  12.828  20.082  0.00  0.00    +0.000 A 
ATOM     10  C   UNL     1      -6.109  13.619  20.916  0.00  0.00    +0.000 A 
ATOM     11  C   UNL     1      -5.472  14.583  21.696  0.00  0.00    +0.000 A 
ATOM     12  C   UNL     1      -4.080  14.701  21.675  0.00  0.00    +0.000 A 
ATOM     13  C   UNL     1      -3.307  13.869  20.860  0.00  0.00    +0.000 A 
ATOM     14  C   UNL     1      -3.935  12.956  20.022  0.00  0.00    +0.000 A 
ATOM     15  S   UNL     1      -1.666  10.367  17.626  0.00  0.00    +0.000 S 
ATOM     16  C   UNL     1      -0.029  10.434  18.288  0.00  0.00    +0.000 C 
ATOM     17  S   UNL     1       1.158   9.340  17.882  0.00  0.00    +0.000 S 
ENDROOT
BRANCH   1  18
ATOM     18  C   UNL     1       1.137  11.740  20.118  0.00  0.00    +0.000 C 
BRANCH  18  19
ATOM     19  C   UNL     1       1.112  10.907  21.402  0.00  0.00    +0.000 C 
BRANCH  19  20
ATOM     20  C   UNL     1      -0.265  10.705  22.031  0.00  0.00    +0.000 C 
BRANCH  20  22
ATOM     21  O   UNL     1      -0.782   8.346  22.209  0.00  0.00    +0.000 OA
ATOM     22  C   UNL     1      -0.395   9.375  22.744  0.00  0.00    +0.000 C 
BRANCH  22  23
ATOM     23  O   UNL     1      -0.010   9.410  24.037  0.00  0.00    +0.000 OA
ATOM     24  H   UNL     1       0.548  10.193  24.238  0.00  0.00    +0.000 HD
ENDBRANCH  22  23
ENDBRANCH  20  22
ENDBRANCH  19  20
ENDBRANCH  18  19
ENDBRANCH   1  18
BRANCH   8  25
ATOM     25  C   UNL     1      -7.111  11.265  19.167  0.00  0.00    +0.000 C 
BRANCH  25  26
ATOM     26  C   UNL     1      -7.368  10.023  20.017  0.00  0.00    +0.000 C 
ATOM     27  O   UNL     1      -7.463  10.061  21.238  0.00  0.00    +0.000 OA
BRANCH  26  28
ATOM     28  O   UNL     1      -7.510   8.871  19.328  0.00  0.00    +0.000 OA
ATOM     29  H   UNL     1      -7.266   8.966  18.388  0.00  0.00    +0.000 HD
ENDBRANCH  26  28
ENDBRANCH  25  26
ENDBRANCH   8  25
TORSDOF 8
ENDMDL
