MODEL 1
REMARK VINA RESULT:      -6.8      0.000      0.000
REMARK  Name = 
REMARK  5 active torsions:
REMARK  status: ('A' for Active; 'I' for Inactive)
REMARK    1  A    between atoms: C_1  and  C_2
REMARK    2  A    between atoms: C_2  and  C_3
REMARK    3  A    between atoms: C_7  and  O_8
REMARK    4  A    between atoms: C_13  and  C_14
REMARK    5  A    between atoms: C_18  and  C_20
REMARK                            x       y       z     vdW  Elec       q    Type
REMARK                         _______ _______ _______ _____ _____    ______ ____
ROOT
ATOM      1  C   UNL     1      11.738  11.900  20.260  0.00  0.00    +0.000 C 
ATOM      2  C   UNL     1      10.493  12.265  19.402  0.00  0.00    +0.000 C 
ATOM      3  C   UNL     1       9.775  10.875  19.251  0.00  0.00    +0.000 C 
ATOM      4  C   UNL     1       9.468  13.228  20.067  0.00  0.00    +0.000 C 
ATOM      5  C   UNL     1      10.277  14.443  20.600  0.00  0.00    +0.000 C 
ATOM      6  C   UNL     1      10.733  15.271  19.439  0.00  0.00    +0.000 A 
ATOM      7  C   UNL     1      10.743  16.680  19.501  0.00  0.00    +0.000 A 
ATOM      8  C   UNL     1      10.846  17.451  18.350  0.00  0.00    +0.000 A 
ATOM      9  C   UNL     1      10.968  16.824  17.116  0.00  0.00    +0.000 A 
ATOM     10  C   UNL     1      11.065  15.431  17.047  0.00  0.00    +0.000 A 
ATOM     11  C   UNL     1      10.945  14.615  18.201  0.00  0.00    +0.000 A 
ATOM     12  C   UNL     1      10.894  13.043  18.063  0.00  0.00    +0.000 C 
ATOM     13  C   UNL     1      12.254  12.602  17.491  0.00  0.00    +0.000 C 
ATOM     14  C   UNL     1       9.748  12.740  17.075  0.00  0.00    +0.000 C 
ATOM     15  C   UNL     1       8.381  13.032  17.702  0.00  0.00    +0.000 C 
ATOM     16  N   UNL     1       8.398  13.656  19.046  0.00  0.00    +0.000 N 
ATOM     17  C   UNL     1       7.515  14.676  19.405  0.00  0.00    +0.000 C 
ATOM     18  O   UNL     1       7.398  15.029  20.578  0.00  0.00    +0.000 OA
ENDROOT
BRANCH  17  19
ATOM     19  C   UNL     1       6.706  15.383  18.288  0.00  0.00    +0.000 C 
ATOM     20  C   UNL     1       5.366  14.696  17.991  0.00  0.00    +0.000 C 
ATOM     21  C   UNL     1       4.321  14.922  19.079  0.00  0.00    +0.000 C 
ATOM     22  C   UNL     1       4.156  16.386  19.453  0.00  0.00    +0.000 C 
ATOM     23  F   UNL     1       3.381  16.474  20.565  0.00  0.00    +0.000 F 
ATOM     24  F   UNL     1       3.469  17.010  18.461  0.00  0.00    +0.000 F 
ATOM     25  C   UNL     1       5.456  17.131  19.684  0.00  0.00    +0.000 C 
ATOM     26  C   UNL     1       6.472  16.877  18.575  0.00  0.00    +0.000 C 
ENDBRANCH  17  19
BRANCH   7  27
ATOM     27  O   UNL     1      10.593  17.376  20.666  0.00  0.00    +0.000 OA
ATOM     28  H   UNL     1      11.333  17.994  20.774  0.00  0.00    +0.000 HD
ENDBRANCH   7  27
TORSDOF 2
ENDMDL
MODEL 2
REMARK VINA RESULT:      -6.7      3.051      5.223
REMARK  Name = 
REMARK  5 active torsions:
REMARK  status: ('A' for Active; 'I' for Inactive)
REMARK    1  A    between atoms: C_1  and  C_2
REMARK    2  A    between atoms: C_2  and  C_3
REMARK    3  A    between atoms: C_7  and  O_8
REMARK    4  A    between atoms: C_13  and  C_14
REMARK    5  A    between atoms: C_18  and  C_20
REMARK                            x       y       z     vdW  Elec       q    Type
REMARK                         _______ _______ _______ _____ _____    ______ ____
ROOT
ATOM      1  C   UNL     1       9.675  16.959  17.177  0.00  0.00    +0.000 C 
ATOM      2  C   UNL     1       9.827  16.717  18.706  0.00  0.00    +0.000 C 
ATOM      3  C   UNL     1       9.666  18.168  19.289  0.00  0.00    +0.000 C 
ATOM      4  C   UNL     1       8.723  15.844  19.369  0.00  0.00    +0.000 C 
ATOM      5  C   UNL     1       8.598  14.554  18.510  0.00  0.00    +0.000 C 
ATOM      6  C   UNL     1       9.808  13.701  18.733  0.00  0.00    +0.000 A 
ATOM      7  C   UNL     1       9.712  12.297  18.814  0.00  0.00    +0.000 A 
ATOM      8  C   UNL     1      10.748  11.533  19.336  0.00  0.00    +0.000 A 
ATOM      9  C   UNL     1      11.911  12.160  19.763  0.00  0.00    +0.000 A 
ATOM     10  C   UNL     1      12.064  13.539  19.593  0.00  0.00    +0.000 A 
ATOM     11  C   UNL     1      11.019  14.349  19.080  0.00  0.00    +0.000 A 
ATOM     12  C   UNL     1      11.169  15.920  19.057  0.00  0.00    +0.000 C 
ATOM     13  C   UNL     1      12.332  16.244  18.101  0.00  0.00    +0.000 C 
ATOM     14  C   UNL     1      11.505  16.337  20.505  0.00  0.00    +0.000 C 
ATOM     15  C   UNL     1      10.295  16.163  21.428  0.00  0.00    +0.000 C 
ATOM     16  N   UNL     1       9.100  15.525  20.827  0.00  0.00    +0.000 N 
ATOM     17  C   UNL     1       8.332  14.585  21.517  0.00  0.00    +0.000 C 
ATOM     18  O   UNL     1       7.233  14.231  21.091  0.00  0.00    +0.000 OA
ENDROOT
BRANCH  17  19
ATOM     19  C   UNL     1       8.907  13.967  22.816  0.00  0.00    +0.000 C 
ATOM     20  C   UNL     1       8.033  14.238  24.048  0.00  0.00    +0.000 C 
ATOM     21  C   UNL     1       6.748  13.418  24.065  0.00  0.00    +0.000 C 
ATOM     22  C   UNL     1       6.983  11.933  23.832  0.00  0.00    +0.000 C 
ATOM     23  F   UNL     1       5.787  11.320  23.644  0.00  0.00    +0.000 F 
ATOM     24  F   UNL     1       7.511  11.398  24.964  0.00  0.00    +0.000 F 
ATOM     25  C   UNL     1       7.903  11.614  22.670  0.00  0.00    +0.000 C 
ATOM     26  C   UNL     1       9.174  12.456  22.690  0.00  0.00    +0.000 C 
ENDBRANCH  17  19
BRANCH   7  27
ATOM     27  O   UNL     1       8.593  11.604  18.451  0.00  0.00    +0.000 OA
ATOM     28  H   UNL     1       8.236  11.969  17.625  0.00  0.00    +0.000 HD
ENDBRANCH   7  27
TORSDOF 2
ENDMDL
MODEL 3
REMARK VINA RESULT:      -6.6      6.904      9.774
REMARK  Name = 
REMARK  5 active torsions:
REMARK  status: ('A' for Active; 'I' for Inactive)
REMARK    1  A    between atoms: C_1  and  C_2
REMARK    2  A    between atoms: C_2  and  C_3
REMARK    3  A    between atoms: C_7  and  O_8
REMARK    4  A    between atoms: C_13  and  C_14
REMARK    5  A    between atoms: C_18  and  C_20
REMARK                            x       y       z     vdW  Elec       q    Type
REMARK                         _______ _______ _______ _____ _____    ______ ____
ROOT
ATOM      1  C   UNL     1       2.186  16.842  17.776  0.00  0.00    +0.000 C 
ATOM      2  C   UNL     1       2.045  16.317  19.233  0.00  0.00    +0.000 C 
ATOM      3  C   UNL     1       2.662  17.494  20.071  0.00  0.00    +0.000 C 
ATOM      4  C   UNL     1       0.590  16.117  19.746  0.00  0.00    +0.000 C 
ATOM      5  C   UNL     1      -0.152  15.276  18.670  0.00  0.00    +0.000 C 
ATOM      6  C   UNL     1       0.360  13.870  18.714  0.00  0.00    +0.000 A 
ATOM      7  C   UNL     1      -0.503  12.768  18.541  0.00  0.00    +0.000 A 
ATOM      8  C   UNL     1      -0.113  11.484  18.898  0.00  0.00    +0.000 A 
ATOM      9  C   UNL     1       1.161  11.275  19.411  0.00  0.00    +0.000 A 
ATOM     10  C   UNL     1       2.065  12.338  19.491  0.00  0.00    +0.000 A 
ATOM     11  C   UNL     1       1.691  13.663  19.152  0.00  0.00    +0.000 A 
ATOM     12  C   UNL     1       2.686  14.862  19.411  0.00  0.00    +0.000 C 
ATOM     13  C   UNL     1       3.912  14.627  18.509  0.00  0.00    +0.000 C 
ATOM     14  C   UNL     1       3.068  14.782  20.904  0.00  0.00    +0.000 C 
ATOM     15  C   UNL     1       1.889  15.169  21.802  0.00  0.00    +0.000 C 
ATOM     16  N   UNL     1       0.598  15.414  21.116  0.00  0.00    +0.000 N 
ATOM     17  C   UNL     1      -0.618  14.970  21.637  0.00  0.00    +0.000 C 
ATOM     18  O   UNL     1      -1.688  15.364  21.173  0.00  0.00    +0.000 OA
ENDROOT
BRANCH  17  19
ATOM     19  C   UNL     1      -0.596  13.937  22.792  0.00  0.00    +0.000 C 
ATOM     20  C   UNL     1      -1.616  14.250  23.896  0.00  0.00    +0.000 C 
ATOM     21  C   UNL     1      -3.055  13.960  23.481  0.00  0.00    +0.000 C 
ATOM     22  C   UNL     1      -3.240  12.570  22.893  0.00  0.00    +0.000 C 
ATOM     23  F   UNL     1      -4.483  12.478  22.356  0.00  0.00    +0.000 F 
ATOM     24  F   UNL     1      -3.195  11.664  23.905  0.00  0.00    +0.000 F 
ATOM     25  C   UNL     1      -2.210  12.183  21.850  0.00  0.00    +0.000 C 
ATOM     26  C   UNL     1      -0.786  12.490  22.303  0.00  0.00    +0.000 C 
ENDBRANCH  17  19
BRANCH   7  27
ATOM     27  O   UNL     1      -1.782  12.888  18.078  0.00  0.00    +0.000 OA
ATOM     28  H   UNL     1      -2.162  12.007  17.936  0.00  0.00    +0.000 HD
ENDBRANCH   7  27
TORSDOF 2
ENDMDL
MODEL 4
REMARK VINA RESULT:      -6.6      1.348      1.575
REMARK  Name = 
REMARK  5 active torsions:
REMARK  status: ('A' for Active; 'I' for Inactive)
REMARK    1  A    between atoms: C_1  and  C_2
REMARK    2  A    between atoms: C_2  and  C_3
REMARK    3  A    between atoms: C_7  and  O_8
REMARK    4  A    between atoms: C_13  and  C_14
REMARK    5  A    between atoms: C_18  and  C_20
REMARK                            x       y       z     vdW  Elec       q    Type
REMARK                         _______ _______ _______ _____ _____    ______ ____
ROOT
ATOM      1  C   UNL     1      12.138  11.771  19.566  0.00  0.00    +0.000 C 
ATOM      2  C   UNL     1      10.728  12.249  19.114  0.00  0.00    +0.000 C 
ATOM      3  C   UNL     1       9.960  10.890  18.929  0.00  0.00    +0.000 C 
ATOM      4  C   UNL     1       9.925  13.079  20.156  0.00  0.00    +0.000 C 
ATOM      5  C   UNL     1      10.872  14.206  20.655  0.00  0.00    +0.000 C 
ATOM      6  C   UNL     1      11.046  15.214  19.562  0.00  0.00    +0.000 A 
ATOM      7  C   UNL     1      11.107  16.595  19.839  0.00  0.00    +0.000 A 
ATOM      8  C   UNL     1      10.941  17.541  18.835  0.00  0.00    +0.000 A 
ATOM      9  C   UNL     1      10.737  17.119  17.527  0.00  0.00    +0.000 A 
ATOM     10  C   UNL     1      10.778  15.756  17.218  0.00  0.00    +0.000 A 
ATOM     11  C   UNL     1      10.928  14.766  18.223  0.00  0.00    +0.000 A 
ATOM     12  C   UNL     1      10.804  13.236  17.856  0.00  0.00    +0.000 C 
ATOM     13  C   UNL     1      11.968  12.910  16.902  0.00  0.00    +0.000 C 
ATOM     14  C   UNL     1       9.441  13.076  17.150  0.00  0.00    +0.000 C 
ATOM     15  C   UNL     1       8.281  13.244  18.136  0.00  0.00    +0.000 C 
ATOM     16  N   UNL     1       8.647  13.648  19.514  0.00  0.00    +0.000 N 
ATOM     17  C   UNL     1       7.907  14.585  20.236  0.00  0.00    +0.000 C 
ATOM     18  O   UNL     1       8.094  14.746  21.442  0.00  0.00    +0.000 OA
ENDROOT
BRANCH  17  19
ATOM     19  C   UNL     1       6.864  15.448  19.482  0.00  0.00    +0.000 C 
ATOM     20  C   UNL     1       5.539  15.590  20.243  0.00  0.00    +0.000 C 
ATOM     21  C   UNL     1       5.636  16.519  21.449  0.00  0.00    +0.000 C 
ATOM     22  C   UNL     1       6.266  17.863  21.120  0.00  0.00    +0.000 C 
ATOM     23  F   UNL     1       6.513  18.531  22.276  0.00  0.00    +0.000 F 
ATOM     24  F   UNL     1       5.359  18.608  20.436  0.00  0.00    +0.000 F 
ATOM     25  C   UNL     1       7.541  17.780  20.302  0.00  0.00    +0.000 C 
ATOM     26  C   UNL     1       7.401  16.841  19.108  0.00  0.00    +0.000 C 
ENDBRANCH  17  19
BRANCH   7  27
ATOM     27  O   UNL     1      11.269  17.096  21.099  0.00  0.00    +0.000 OA
ATOM     28  H   UNL     1      12.170  16.913  21.410  0.00  0.00    +0.000 HD
ENDBRANCH   7  27
TORSDOF 2
ENDMDL
MODEL 5
REMARK VINA RESULT:      -6.5      9.920     12.304
REMARK  Name = 
REMARK  5 active torsions:
REMARK  status: ('A' for Active; 'I' for Inactive)
REMARK    1  A    between atoms: C_1  and  C_2
REMARK    2  A    between atoms: C_2  and  C_3
REMARK    3  A    between atoms: C_7  and  O_8
REMARK    4  A    between atoms: C_13  and  C_14
REMARK    5  A    between atoms: C_18  and  C_20
REMARK                            x       y       z     vdW  Elec       q    Type
REMARK                         _______ _______ _______ _____ _____    ______ ____
ROOT
ATOM      1  C   UNL     1      -1.657  15.995  22.566  0.00  0.00    +0.000 C 
ATOM      2  C   UNL     1      -2.545  14.909  21.896  0.00  0.00    +0.000 C 
ATOM      3  C   UNL     1      -3.844  15.717  21.537  0.00  0.00    +0.000 C 
ATOM      4  C   UNL     1      -2.005  14.314  20.564  0.00  0.00    +0.000 C 
ATOM      5  C   UNL     1      -0.534  13.888  20.828  0.00  0.00    +0.000 C 
ATOM      6  C   UNL     1      -0.530  12.673  21.703  0.00  0.00    +0.000 A 
ATOM      7  C   UNL     1       0.395  11.628  21.503  0.00  0.00    +0.000 A 
ATOM      8  C   UNL     1       0.206  10.378  22.080  0.00  0.00    +0.000 A 
ATOM      9  C   UNL     1      -0.901  10.160  22.890  0.00  0.00    +0.000 A 
ATOM     10  C   UNL     1      -1.771  11.215  23.183  0.00  0.00    +0.000 A 
ATOM     11  C   UNL     1      -1.615  12.497  22.596  0.00  0.00    +0.000 A 
ATOM     12  C   UNL     1      -2.709  13.613  22.821  0.00  0.00    +0.000 C 
ATOM     13  C   UNL     1      -2.709  13.940  24.326  0.00  0.00    +0.000 C 
ATOM     14  C   UNL     1      -4.051  12.988  22.386  0.00  0.00    +0.000 C 
ATOM     15  C   UNL     1      -4.114  12.807  20.866  0.00  0.00    +0.000 C 
ATOM     16  N   UNL     1      -2.874  13.124  20.119  0.00  0.00    +0.000 N 
ATOM     17  C   UNL     1      -2.424  12.340  19.056  0.00  0.00    +0.000 C 
ATOM     18  O   UNL     1      -1.524  12.734  18.315  0.00  0.00    +0.000 OA
ENDROOT
BRANCH  17  19
ATOM     19  C   UNL     1      -3.058  10.941  18.846  0.00  0.00    +0.000 C 
ATOM     20  C   UNL     1      -4.299  10.973  17.944  0.00  0.00    +0.000 C 
ATOM     21  C   UNL     1      -3.965  11.193  16.472  0.00  0.00    +0.000 C 
ATOM     22  C   UNL     1      -2.892  10.248  15.955  0.00  0.00    +0.000 C 
ATOM     23  F   UNL     1      -2.504  10.652  14.718  0.00  0.00    +0.000 F 
ATOM     24  F   UNL     1      -3.443   9.016  15.796  0.00  0.00    +0.000 F 
ATOM     25  C   UNL     1      -1.675  10.122  16.850  0.00  0.00    +0.000 C 
ATOM     26  C   UNL     1      -2.053   9.905  18.312  0.00  0.00    +0.000 C 
ENDBRANCH  17  19
BRANCH   7  27
ATOM     27  O   UNL     1       1.489  11.744  20.694  0.00  0.00    +0.000 OA
ATOM     28  H   UNL     1       2.176  12.258  21.148  0.00  0.00    +0.000 HD
ENDBRANCH   7  27
TORSDOF 2
ENDMDL
MODEL 6
REMARK VINA RESULT:      -6.4      6.993     11.369
REMARK  Name = 
REMARK  5 active torsions:
REMARK  status: ('A' for Active; 'I' for Inactive)
REMARK    1  A    between atoms: C_1  and  C_2
REMARK    2  A    between atoms: C_2  and  C_3
REMARK    3  A    between atoms: C_7  and  O_8
REMARK    4  A    between atoms: C_13  and  C_14
REMARK    5  A    between atoms: C_18  and  C_20
REMARK                            x       y       z     vdW  Elec       q    Type
REMARK                         _______ _______ _______ _____ _____    ______ ____
ROOT
ATOM      1  C   UNL     1      -3.972  12.843  24.308  0.00  0.00    +0.000 C 
ATOM      2  C   UNL     1      -3.458  13.879  23.267  0.00  0.00    +0.000 C 
ATOM      3  C   UNL     1      -4.101  15.216  23.784  0.00  0.00    +0.000 C 
ATOM      4  C   UNL     1      -1.919  14.106  23.236  0.00  0.00    +0.000 C 
ATOM      5  C   UNL     1      -1.262  12.700  23.143  0.00  0.00    +0.000 C 
ATOM      6  C   UNL     1      -1.496  12.144  21.772  0.00  0.00    +0.000 A 
ATOM      7  C   UNL     1      -0.499  11.407  21.100  0.00  0.00    +0.000 A 
ATOM      8  C   UNL     1      -0.576  11.172  19.733  0.00  0.00    +0.000 A 
ATOM      9  C   UNL     1      -1.667  11.649  19.018  0.00  0.00    +0.000 A 
ATOM     10  C   UNL     1      -2.714  12.290  19.687  0.00  0.00    +0.000 A 
ATOM     11  C   UNL     1      -2.658  12.561  21.078  0.00  0.00    +0.000 A 
ATOM     12  C   UNL     1      -3.781  13.431  21.766  0.00  0.00    +0.000 C 
ATOM     13  C   UNL     1      -5.097  12.641  21.640  0.00  0.00    +0.000 C 
ATOM     14  C   UNL     1      -3.845  14.751  20.968  0.00  0.00    +0.000 C 
ATOM     15  C   UNL     1      -2.603  15.612  21.217  0.00  0.00    +0.000 C 
ATOM     16  N   UNL     1      -1.535  14.997  22.041  0.00  0.00    +0.000 N 
ATOM     17  C   UNL     1      -0.182  15.141  21.733  0.00  0.00    +0.000 C 
ATOM     18  O   UNL     1       0.689  14.811  22.538  0.00  0.00    +0.000 OA
ENDROOT
BRANCH  17  19
ATOM     19  C   UNL     1       0.207  15.693  20.339  0.00  0.00    +0.000 C 
ATOM     20  C   UNL     1       1.343  16.724  20.396  0.00  0.00    +0.000 C 
ATOM     21  C   UNL     1       2.706  16.100  20.680  0.00  0.00    +0.000 C 
ATOM     22  C   UNL     1       3.028  14.928  19.768  0.00  0.00    +0.000 C 
ATOM     23  F   UNL     1       4.142  14.302  20.227  0.00  0.00    +0.000 F 
ATOM     24  F   UNL     1       3.344  15.413  18.538  0.00  0.00    +0.000 F 
ATOM     25  C   UNL     1       1.908  13.917  19.616  0.00  0.00    +0.000 C 
ATOM     26  C   UNL     1       0.564  14.582  19.335  0.00  0.00    +0.000 C 
ENDBRANCH  17  19
BRANCH   7  27
ATOM     27  O   UNL     1       0.622  10.933  21.717  0.00  0.00    +0.000 OA
ATOM     28  H   UNL     1       1.037  10.252  21.163  0.00  0.00    +0.000 HD
ENDBRANCH   7  27
TORSDOF 2
ENDMDL
MODEL 7
REMARK VINA RESULT:      -6.2      6.419     10.904
REMARK  Name = 
REMARK  5 active torsions:
REMARK  status: ('A' for Active; 'I' for Inactive)
REMARK    1  A    between atoms: C_1  and  C_2
REMARK    2  A    between atoms: C_2  and  C_3
REMARK    3  A    between atoms: C_7  and  O_8
REMARK    4  A    between atoms: C_13  and  C_14
REMARK    5  A    between atoms: C_18  and  C_20
REMARK                            x       y       z     vdW  Elec       q    Type
REMARK                         _______ _______ _______ _____ _____    ______ ____
ROOT
ATOM      1  C   UNL     1      -3.178  12.240  23.866  0.00  0.00    +0.000 C 
ATOM      2  C   UNL     1      -2.657  13.343  22.900  0.00  0.00    +0.000 C 
ATOM      3  C   UNL     1      -3.030  14.661  23.670  0.00  0.00    +0.000 C 
ATOM      4  C   UNL     1      -1.119  13.377  22.673  0.00  0.00    +0.000 C 
ATOM      5  C   UNL     1      -0.689  11.928  22.308  0.00  0.00    +0.000 C 
ATOM      6  C   UNL     1      -1.172  11.610  20.928  0.00  0.00    +0.000 A 
ATOM      7  C   UNL     1      -0.387  10.859  20.029  0.00  0.00    +0.000 A 
ATOM      8  C   UNL     1      -0.671  10.836  18.670  0.00  0.00    +0.000 A 
ATOM      9  C   UNL     1      -1.764  11.544  18.188  0.00  0.00    +0.000 A 
ATOM     10  C   UNL     1      -2.614  12.208  19.078  0.00  0.00    +0.000 A 
ATOM     11  C   UNL     1      -2.341  12.266  20.468  0.00  0.00    +0.000 A 
ATOM     12  C   UNL     1      -3.231  13.161  21.417  0.00  0.00    +0.000 C 
ATOM     13  C   UNL     1      -4.652  12.568  21.386  0.00  0.00    +0.000 C 
ATOM     14  C   UNL     1      -3.205  14.580  20.810  0.00  0.00    +0.000 C 
ATOM     15  C   UNL     1      -1.830  15.233  20.982  0.00  0.00    +0.000 C 
ATOM     16  N   UNL     1      -0.766  14.376  21.556  0.00  0.00    +0.000 N 
ATOM     17  C   UNL     1       0.544  14.393  21.075  0.00  0.00    +0.000 C 
ATOM     18  O   UNL     1       1.454  13.843  21.696  0.00  0.00    +0.000 OA
ENDROOT
BRANCH  17  19
ATOM     19  C   UNL     1       0.827  15.088  19.719  0.00  0.00    +0.000 C 
ATOM     20  C   UNL     1       1.728  16.323  19.854  0.00  0.00    +0.000 C 
ATOM     21  C   UNL     1       3.186  15.974  20.135  0.00  0.00    +0.000 C 
ATOM     22  C   UNL     1       3.751  14.943  19.171  0.00  0.00    +0.000 C 
ATOM     23  F   UNL     1       4.964  14.532  19.621  0.00  0.00    +0.000 F 
ATOM     24  F   UNL     1       3.974  15.548  17.975  0.00  0.00    +0.000 F 
ATOM     25  C   UNL     1       2.861  13.736  18.944  0.00  0.00    +0.000 C 
ATOM     26  C   UNL     1       1.414  14.128  18.668  0.00  0.00    +0.000 C 
ENDBRANCH  17  19
BRANCH   7  27
ATOM     27  O   UNL     1       0.724  10.164  20.412  0.00  0.00    +0.000 OA
ATOM     28  H   UNL     1       1.516  10.704  20.258  0.00  0.00    +0.000 HD
ENDBRANCH   7  27
TORSDOF 2
ENDMDL
MODEL 8
REMARK VINA RESULT:      -6.2      7.766     10.315
REMARK  Name = 
REMARK  5 active torsions:
REMARK  status: ('A' for Active; 'I' for Inactive)
REMARK    1  A    between atoms: C_1  and  C_2
REMARK    2  A    between atoms: C_2  and  C_3
REMARK    3  A    between atoms: C_7  and  O_8
REMARK    4  A    between atoms: C_13  and  C_14
REMARK    5  A    between atoms: C_18  and  C_20
REMARK                            x       y       z     vdW  Elec       q    Type
REMARK                         _______ _______ _______ _____ _____    ______ ____
ROOT
ATOM      1  C   UNL     1       1.856  17.586  20.067  0.00  0.00    +0.000 C 
ATOM      2  C   UNL     1       1.431  16.194  19.517  0.00  0.00    +0.000 C 
ATOM      3  C   UNL     1       2.331  16.054  18.236  0.00  0.00    +0.000 C 
ATOM      4  C   UNL     1       1.756  14.975  20.428  0.00  0.00    +0.000 C 
ATOM      5  C   UNL     1       1.212  15.317  21.843  0.00  0.00    +0.000 C 
ATOM      6  C   UNL     1      -0.284  15.260  21.815  0.00  0.00    +0.000 A 
ATOM      7  C   UNL     1      -1.019  14.734  22.897  0.00  0.00    +0.000 A 
ATOM      8  C   UNL     1      -2.355  14.378  22.756  0.00  0.00    +0.000 A 
ATOM      9  C   UNL     1      -2.987  14.567  21.534  0.00  0.00    +0.000 A 
ATOM     10  C   UNL     1      -2.303  15.183  20.482  0.00  0.00    +0.000 A 
ATOM     11  C   UNL     1      -0.935  15.541  20.588  0.00  0.00    +0.000 A 
ATOM     12  C   UNL     1      -0.154  16.083  19.327  0.00  0.00    +0.000 C 
ATOM     13  C   UNL     1      -0.811  17.418  18.935  0.00  0.00    +0.000 C 
ATOM     14  C   UNL     1      -0.342  15.021  18.222  0.00  0.00    +0.000 C 
ATOM     15  C   UNL     1       0.443  13.744  18.538  0.00  0.00    +0.000 C 
ATOM     16  N   UNL     1       1.112  13.698  19.859  0.00  0.00    +0.000 N 
ATOM     17  C   UNL     1       1.124  12.546  20.648  0.00  0.00    +0.000 C 
ATOM     18  O   UNL     1       1.860  12.459  21.631  0.00  0.00    +0.000 OA
ENDROOT
BRANCH  17  19
ATOM     19  C   UNL     1       0.164  11.387  20.281  0.00  0.00    +0.000 C 
ATOM     20  C   UNL     1       0.838  10.009  20.334  0.00  0.00    +0.000 C 
ATOM     21  C   UNL     1       1.100   9.524  21.756  0.00  0.00    +0.000 C 
ATOM     22  C   UNL     1      -0.125   9.608  22.653  0.00  0.00    +0.000 C 
ATOM     23  F   UNL     1       0.248   9.370  23.936  0.00  0.00    +0.000 F 
ATOM     24  F   UNL     1      -0.977   8.606  22.312  0.00  0.00    +0.000 F 
ATOM     25  C   UNL     1      -0.872  10.925  22.579  0.00  0.00    +0.000 C 
ATOM     26  C   UNL     1      -1.112  11.375  21.142  0.00  0.00    +0.000 C 
ENDBRANCH  17  19
BRANCH   7  27
ATOM     27  O   UNL     1      -0.468  14.483  24.121  0.00  0.00    +0.000 OA
ATOM     28  H   UNL     1       0.407  14.080  24.008  0.00  0.00    +0.000 HD
ENDBRANCH   7  27
TORSDOF 2
ENDMDL
MODEL 9
REMARK VINA RESULT:      -6.1      3.739      6.033
REMARK  Name = 
REMARK  5 active torsions:
REMARK  status: ('A' for Active; 'I' for Inactive)
REMARK    1  A    between atoms: C_1  and  C_2
REMARK    2  A    between atoms: C_2  and  C_3
REMARK    3  A    between atoms: C_7  and  O_8
REMARK    4  A    between atoms: C_13  and  C_14
REMARK    5  A    between atoms: C_18  and  C_20
REMARK                            x       y       z     vdW  Elec       q    Type
REMARK                         _______ _______ _______ _____ _____    ______ ____
ROOT
ATOM      1  C   UNL     1       5.686  16.776  23.048  0.00  0.00    +0.000 C 
ATOM      2  C   UNL     1       6.564  15.492  23.020  0.00  0.00    +0.000 C 
ATOM      3  C   UNL     1       5.607  14.421  23.656  0.00  0.00    +0.000 C 
ATOM      4  C   UNL     1       6.952  14.964  21.609  0.00  0.00    +0.000 C 
ATOM      5  C   UNL     1       7.531  16.173  20.823  0.00  0.00    +0.000 C 
ATOM      6  C   UNL     1       8.879  16.514  21.379  0.00  0.00    +0.000 A 
ATOM      7  C   UNL     1       9.941  16.909  20.539  0.00  0.00    +0.000 A 
ATOM      8  C   UNL     1      11.255  16.910  20.991  0.00  0.00    +0.000 A 
ATOM      9  C   UNL     1      11.526  16.540  22.301  0.00  0.00    +0.000 A 
ATOM     10  C   UNL     1      10.476  16.246  23.177  0.00  0.00    +0.000 A 
ATOM     11  C   UNL     1       9.127  16.219  22.742  0.00  0.00    +0.000 A 
ATOM     12  C   UNL     1       7.987  15.723  23.715  0.00  0.00    +0.000 C 
ATOM     13  C   UNL     1       7.934  16.723  24.885  0.00  0.00    +0.000 C 
ATOM     14  C   UNL     1       8.419  14.322  24.198  0.00  0.00    +0.000 C 
ATOM     15  C   UNL     1       8.322  13.290  23.070  0.00  0.00    +0.000 C 
ATOM     16  N   UNL     1       7.973  13.818  21.730  0.00  0.00    +0.000 N 
ATOM     17  C   UNL     1       8.588  13.358  20.565  0.00  0.00    +0.000 C 
ATOM     18  O   UNL     1       8.140  13.646  19.455  0.00  0.00    +0.000 OA
ENDROOT
BRANCH  17  19
ATOM     19  C   UNL     1       9.874  12.503  20.694  0.00  0.00    +0.000 C 
ATOM     20  C   UNL     1       9.809  11.195  19.893  0.00  0.00    +0.000 C 
ATOM     21  C   UNL     1       9.937  11.407  18.388  0.00  0.00    +0.000 C 
ATOM     22  C   UNL     1      11.131  12.266  18.004  0.00  0.00    +0.000 C 
ATOM     23  F   UNL     1      11.044  12.583  16.687  0.00  0.00    +0.000 F 
ATOM     24  F   UNL     1      12.260  11.522  18.143  0.00  0.00    +0.000 F 
ATOM     25  C   UNL     1      11.285  13.535  18.820  0.00  0.00    +0.000 C 
ATOM     26  C   UNL     1      11.148  13.280  20.317  0.00  0.00    +0.000 C 
ENDBRANCH  17  19
BRANCH   7  27
ATOM     27  O   UNL     1       9.767  17.254  19.229  0.00  0.00    +0.000 OA
ATOM     28  H   UNL     1      10.372  16.737  18.673  0.00  0.00    +0.000 HD
ENDBRANCH   7  27
TORSDOF 2
ENDMDL
