MODEL 1
REMARK VINA RESULT:      -6.6      0.000      0.000
REMARK  Name = 
REMARK  9 active torsions:
REMARK  status: ('A' for Active; 'I' for Inactive)
REMARK    1  A    between atoms: C_1  and  O_2
REMARK    2  A    between atoms: O_2  and  C_3
REMARK    3  A    between atoms: C_3  and  N_4
REMARK    4  A    between atoms: C_5  and  C_7
REMARK    5  A    between atoms: C_7  and  C_8
REMARK    6  A    between atoms: C_16  and  C_17
REMARK    7  A    between atoms: C_20  and  C_21
REMARK    8  A    between atoms: C_21  and  O_22
REMARK    9  A    between atoms: O_22  and  C_23
REMARK                            x       y       z     vdW  Elec       q    Type
REMARK                         _______ _______ _______ _____ _____    ______ ____
ROOT
ATOM      1  C   UNL     1       6.759   6.161  17.021  0.00  0.00    +0.000 C 
ATOM      2  C   UNL     1       6.609   4.740  17.705  0.00  0.00    +0.000 C 
ATOM      3  O   UNL     1       7.474   3.955  18.022  0.00  0.00    +0.000 OA
ATOM      4  N   UNL     1       5.285   4.962  17.886  0.00  0.00    +0.000 N 
ATOM      5  C   UNL     1       4.196   4.374  18.471  0.00  0.00    +0.000 C 
ATOM      6  C   UNL     1       3.001   5.042  18.500  0.00  0.00    +0.000 C 
ATOM      7  C   UNL     1       2.771   6.438  17.955  0.00  0.00    +0.000 C 
ATOM      8  S   UNL     1       4.284   7.433  17.778  0.00  0.00    +0.000 S 
ATOM      9  C   UNL     1       5.181   6.085  16.967  0.00  0.00    +0.000 C 
ENDROOT
BRANCH   1  10
ATOM     10  N   UNL     1       7.347   7.130  18.030  0.00  0.00    +0.000 N 
ATOM     11  C   UNL     1       8.099   8.243  17.748  0.00  0.00    +0.000 C 
ATOM     12  O   UNL     1       8.507   8.504  16.612  0.00  0.00    +0.000 OA
ATOM     13  H   UNL     1       7.202   6.883  19.010  0.00  0.00    +0.000 HD
BRANCH  11  14
ATOM     14  C   UNL     1       8.525   9.065  18.951  0.00  0.00    +0.000 C 
BRANCH  14  15
ATOM     15  C   UNL     1       8.928  10.441  18.534  0.00  0.00    +0.000 A 
ATOM     16  C   UNL     1       8.205  11.349  17.785  0.00  0.00    +0.000 A 
ATOM     17  C   UNL     1       8.888  12.591  17.637  0.00  0.00    +0.000 A 
ATOM     18  C   UNL     1      10.110  12.587  18.272  0.00  0.00    +0.000 A 
ATOM     19  S   UNL     1      10.433  11.091  19.033  0.00  0.00    +0.000 S 
ENDBRANCH  14  15
ENDBRANCH  11  14
ENDBRANCH   1  10
BRANCH   5  20
ATOM     20  C   UNL     1       4.346   2.930  19.119  0.00  0.00    +0.000 C 
ATOM     21  O   UNL     1       4.986   2.867  20.202  0.00  0.00    +0.000 OA
ATOM     22  O   UNL     1       3.810   2.008  18.432  0.00  0.00    +0.000 OA
ENDBRANCH   5  20
BRANCH   1  24
ATOM     23  C   UNL     1       7.185   5.141  14.793  0.00  0.00    +0.000 C 
ATOM     24  O   UNL     1       7.527   6.115  15.771  0.00  0.00    +0.000 OA
ENDBRANCH   1  24
BRANCH   6  25
ATOM     25  C   UNL     1       1.731   4.485  19.133  0.00  0.00    +0.000 C 
BRANCH  25  26
ATOM     26  O   UNL     1       1.708   4.633  20.554  0.00  0.00    +0.000 OA
BRANCH  26  27
ATOM     27  C   UNL     1       1.596   3.500  21.283  0.00  0.00    +0.000 C 
ATOM     28  N   UNL     1       0.692   2.680  20.700  0.00  0.00    +0.000 N 
ATOM     29  O   UNL     1       2.203   3.231  22.300  0.00  0.00    +0.000 OA
ATOM     30  H   UNL     1       0.197   3.010  19.886  0.00  0.00    +0.000 HD
ATOM     31  H   UNL     1       0.447   1.818  21.146  0.00  0.00    +0.000 HD
ENDBRANCH  26  27
ENDBRANCH  25  26
ENDBRANCH   6  25
TORSDOF 8
ENDMDL
MODEL 2
REMARK VINA RESULT:      -6.2      3.881      6.074
REMARK  Name = 
REMARK  9 active torsions:
REMARK  status: ('A' for Active; 'I' for Inactive)
REMARK    1  A    between atoms: C_1  and  O_2
REMARK    2  A    between atoms: O_2  and  C_3
REMARK    3  A    between atoms: C_3  and  N_4
REMARK    4  A    between atoms: C_5  and  C_7
REMARK    5  A    between atoms: C_7  and  C_8
REMARK    6  A    between atoms: C_16  and  C_17
REMARK    7  A    between atoms: C_20  and  C_21
REMARK    8  A    between atoms: C_21  and  O_22
REMARK    9  A    between atoms: O_22  and  C_23
REMARK                            x       y       z     vdW  Elec       q    Type
REMARK                         _______ _______ _______ _____ _____    ______ ____
ROOT
ATOM      1  C   UNL     1       2.817   5.110  19.076  0.00  0.00    +0.000 C 
ATOM      2  C   UNL     1       2.143   5.705  20.381  0.00  0.00    +0.000 C 
ATOM      3  O   UNL     1       2.052   5.210  21.481  0.00  0.00    +0.000 OA
ATOM      4  N   UNL     1       1.972   6.894  19.754  0.00  0.00    +0.000 N 
ATOM      5  C   UNL     1       1.531   8.162  20.021  0.00  0.00    +0.000 C 
ATOM      6  C   UNL     1       1.635   9.130  19.058  0.00  0.00    +0.000 C 
ATOM      7  C   UNL     1       2.246   8.930  17.685  0.00  0.00    +0.000 C 
ATOM      8  S   UNL     1       3.369   7.503  17.565  0.00  0.00    +0.000 S 
ATOM      9  C   UNL     1       2.202   6.402  18.405  0.00  0.00    +0.000 C 
ENDROOT
BRANCH   1  10
ATOM     10  N   UNL     1       4.322   5.105  19.260  0.00  0.00    +0.000 N 
ATOM     11  C   UNL     1       5.243   4.499  18.442  0.00  0.00    +0.000 C 
ATOM     12  O   UNL     1       4.921   3.752  17.513  0.00  0.00    +0.000 OA
ATOM     13  H   UNL     1       4.660   5.557  20.112  0.00  0.00    +0.000 HD
BRANCH  11  14
ATOM     14  C   UNL     1       6.695   4.689  18.838  0.00  0.00    +0.000 C 
BRANCH  14  15
ATOM     15  C   UNL     1       7.177   6.047  18.444  0.00  0.00    +0.000 A 
ATOM     16  C   UNL     1       8.100   6.844  19.092  0.00  0.00    +0.000 A 
ATOM     17  C   UNL     1       8.356   8.055  18.386  0.00  0.00    +0.000 A 
ATOM     18  C   UNL     1       7.617   8.144  17.227  0.00  0.00    +0.000 A 
ATOM     19  S   UNL     1       6.614   6.779  17.001  0.00  0.00    +0.000 S 
ENDBRANCH  14  15
ENDBRANCH  11  14
ENDBRANCH   1  10
BRANCH   5  20
ATOM     20  C   UNL     1       0.920   8.489  21.451  0.00  0.00    +0.000 C 
ATOM     21  O   UNL     1       1.719   8.946  22.310  0.00  0.00    +0.000 OA
ATOM     22  O   UNL     1      -0.316   8.218  21.548  0.00  0.00    +0.000 OA
ENDBRANCH   5  20
BRANCH   1  24
ATOM     23  C   UNL     1       1.303   3.699  17.694  0.00  0.00    +0.000 C 
ATOM     24  O   UNL     1       2.290   3.788  18.714  0.00  0.00    +0.000 OA
ENDBRANCH   1  24
BRANCH   6  25
ATOM     25  C   UNL     1       1.185  10.574  19.251  0.00  0.00    +0.000 C 
BRANCH  25  26
ATOM     26  O   UNL     1       0.036  10.907  18.469  0.00  0.00    +0.000 OA
BRANCH  26  27
ATOM     27  C   UNL     1      -0.538  12.107  18.710  0.00  0.00    +0.000 C 
ATOM     28  N   UNL     1      -1.167  12.534  17.591  0.00  0.00    +0.000 N 
ATOM     29  O   UNL     1      -0.514  12.724  19.756  0.00  0.00    +0.000 OA
ATOM     30  H   UNL     1      -1.089  11.979  16.753  0.00  0.00    +0.000 HD
ATOM     31  H   UNL     1      -1.598  13.437  17.582  0.00  0.00    +0.000 HD
ENDBRANCH  26  27
ENDBRANCH  25  26
ENDBRANCH   6  25
TORSDOF 8
ENDMDL
MODEL 3
REMARK VINA RESULT:      -6.2      5.549      8.505
REMARK  Name = 
REMARK  9 active torsions:
REMARK  status: ('A' for Active; 'I' for Inactive)
REMARK    1  A    between atoms: C_1  and  O_2
REMARK    2  A    between atoms: O_2  and  C_3
REMARK    3  A    between atoms: C_3  and  N_4
REMARK    4  A    between atoms: C_5  and  C_7
REMARK    5  A    between atoms: C_7  and  C_8
REMARK    6  A    between atoms: C_16  and  C_17
REMARK    7  A    between atoms: C_20  and  C_21
REMARK    8  A    between atoms: C_21  and  O_22
REMARK    9  A    between atoms: O_22  and  C_23
REMARK                            x       y       z     vdW  Elec       q    Type
REMARK                         _______ _______ _______ _____ _____    ______ ____
ROOT
ATOM      1  C   UNL     1       0.578   9.722  20.460  0.00  0.00    +0.000 C 
ATOM      2  C   UNL     1       0.490   8.266  21.080  0.00  0.00    +0.000 C 
ATOM      3  O   UNL     1      -0.269   7.845  21.923  0.00  0.00    +0.000 OA
ATOM      4  N   UNL     1       1.392   7.821  20.173  0.00  0.00    +0.000 N 
ATOM      5  C   UNL     1       1.983   6.653  19.772  0.00  0.00    +0.000 C 
ATOM      6  C   UNL     1       2.811   6.655  18.681  0.00  0.00    +0.000 C 
ATOM      7  C   UNL     1       3.119   7.866  17.824  0.00  0.00    +0.000 C 
ATOM      8  S   UNL     1       1.892   9.203  17.946  0.00  0.00    +0.000 S 
ATOM      9  C   UNL     1       1.864   9.132  19.756  0.00  0.00    +0.000 C 
ENDROOT
BRANCH   1  10
ATOM     10  N   UNL     1      -0.628   9.948  19.568  0.00  0.00    +0.000 N 
ATOM     11  C   UNL     1      -0.836  11.019  18.734  0.00  0.00    +0.000 C 
ATOM     12  O   UNL     1      -0.101  12.011  18.725  0.00  0.00    +0.000 OA
ATOM     13  H   UNL     1      -1.370   9.252  19.652  0.00  0.00    +0.000 HD
BRANCH  11  14
ATOM     14  C   UNL     1      -2.114  10.972  17.918  0.00  0.00    +0.000 C 
BRANCH  14  15
ATOM     15  C   UNL     1      -3.236  11.624  18.656  0.00  0.00    +0.000 A 
ATOM     16  C   UNL     1      -3.169  12.392  19.801  0.00  0.00    +0.000 A 
ATOM     17  C   UNL     1      -4.444  12.901  20.185  0.00  0.00    +0.000 A 
ATOM     18  C   UNL     1      -5.441  12.498  19.324  0.00  0.00    +0.000 A 
ATOM     19  S   UNL     1      -4.841  11.506  18.068  0.00  0.00    +0.000 S 
ENDBRANCH  14  15
ENDBRANCH  11  14
ENDBRANCH   1  10
BRANCH   5  20
ATOM     20  C   UNL     1       1.683   5.314  20.574  0.00  0.00    +0.000 C 
ATOM     21  O   UNL     1       0.626   4.703  20.267  0.00  0.00    +0.000 OA
ATOM     22  O   UNL     1       2.556   5.045  21.455  0.00  0.00    +0.000 OA
ENDBRANCH   5  20
BRANCH   1  24
ATOM     23  C   UNL     1      -0.406  11.140  22.251  0.00  0.00    +0.000 C 
ATOM     24  O   UNL     1       0.729  10.767  21.479  0.00  0.00    +0.000 OA
ENDBRANCH   1  24
BRANCH   6  25
ATOM     25  C   UNL     1       3.512   5.411  18.145  0.00  0.00    +0.000 C 
BRANCH  25  26
ATOM     26  O   UNL     1       4.937   5.504  18.212  0.00  0.00    +0.000 OA
BRANCH  26  27
ATOM     27  C   UNL     1       5.562   4.665  19.068  0.00  0.00    +0.000 C 
ATOM     28  N   UNL     1       6.725   5.225  19.473  0.00  0.00    +0.000 N 
ATOM     29  O   UNL     1       5.164   3.579  19.437  0.00  0.00    +0.000 OA
ATOM     30  H   UNL     1       7.000   6.108  19.073  0.00  0.00    +0.000 HD
ATOM     31  H   UNL     1       7.341   4.707  20.068  0.00  0.00    +0.000 HD
ENDBRANCH  26  27
ENDBRANCH  25  26
ENDBRANCH   6  25
TORSDOF 8
ENDMDL
MODEL 4
REMARK VINA RESULT:      -6.1      1.114      1.488
REMARK  Name = 
REMARK  9 active torsions:
REMARK  status: ('A' for Active; 'I' for Inactive)
REMARK    1  A    between atoms: C_1  and  O_2
REMARK    2  A    between atoms: O_2  and  C_3
REMARK    3  A    between atoms: C_3  and  N_4
REMARK    4  A    between atoms: C_5  and  C_7
REMARK    5  A    between atoms: C_7  and  C_8
REMARK    6  A    between atoms: C_16  and  C_17
REMARK    7  A    between atoms: C_20  and  C_21
REMARK    8  A    between atoms: C_21  and  O_22
REMARK    9  A    between atoms: O_22  and  C_23
REMARK                            x       y       z     vdW  Elec       q    Type
REMARK                         _______ _______ _______ _____ _____    ______ ____
ROOT
ATOM      1  C   UNL     1       7.016   6.210  17.043  0.00  0.00    +0.000 C 
ATOM      2  C   UNL     1       6.820   4.794  17.728  0.00  0.00    +0.000 C 
ATOM      3  O   UNL     1       7.655   3.962  18.003  0.00  0.00    +0.000 OA
ATOM      4  N   UNL     1       5.520   5.086  17.968  0.00  0.00    +0.000 N 
ATOM      5  C   UNL     1       4.427   4.553  18.599  0.00  0.00    +0.000 C 
ATOM      6  C   UNL     1       3.273   5.284  18.683  0.00  0.00    +0.000 C 
ATOM      7  C   UNL     1       3.094   6.693  18.154  0.00  0.00    +0.000 C 
ATOM      8  S   UNL     1       4.648   7.607  17.913  0.00  0.00    +0.000 S 
ATOM      9  C   UNL     1       5.436   6.218  17.059  0.00  0.00    +0.000 C 
ENDROOT
BRANCH   1  10
ATOM     10  N   UNL     1       7.699   7.140  18.028  0.00  0.00    +0.000 N 
ATOM     11  C   UNL     1       8.056   8.446  17.803  0.00  0.00    +0.000 C 
ATOM     12  O   UNL     1       7.980   8.977  16.691  0.00  0.00    +0.000 OA
ATOM     13  H   UNL     1       7.957   6.718  18.921  0.00  0.00    +0.000 HD
BRANCH  11  14
ATOM     14  C   UNL     1       8.688   9.163  18.981  0.00  0.00    +0.000 C 
BRANCH  14  15
ATOM     15  C   UNL     1       9.279  10.465  18.552  0.00  0.00    +0.000 A 
ATOM     16  C   UNL     1      10.614  10.811  18.477  0.00  0.00    +0.000 A 
ATOM     17  C   UNL     1      10.802  12.126  17.963  0.00  0.00    +0.000 A 
ATOM     18  C   UNL     1       9.606  12.743  17.669  0.00  0.00    +0.000 A 
ATOM     19  S   UNL     1       8.266  11.741  18.022  0.00  0.00    +0.000 S 
ENDBRANCH  14  15
ENDBRANCH  11  14
ENDBRANCH   1  10
BRANCH   5  20
ATOM     20  C   UNL     1       4.528   3.100  19.234  0.00  0.00    +0.000 C 
ATOM     21  O   UNL     1       4.034   2.158  18.559  0.00  0.00    +0.000 OA
ATOM     22  O   UNL     1       5.086   3.082  20.373  0.00  0.00    +0.000 OA
ENDBRANCH   5  20
BRANCH   1  24
ATOM     23  C   UNL     1       7.316   5.153  14.811  0.00  0.00    +0.000 C 
ATOM     24  O   UNL     1       7.725   6.130  15.760  0.00  0.00    +0.000 OA
ENDBRANCH   1  24
BRANCH   6  25
ATOM     25  C   UNL     1       2.003   4.792  19.369  0.00  0.00    +0.000 C 
BRANCH  25  26
ATOM     26  O   UNL     1       1.186   3.989  18.515  0.00  0.00    +0.000 OA
BRANCH  26  27
ATOM     27  C   UNL     1       0.688   2.848  19.043  0.00  0.00    +0.000 C 
ATOM     28  N   UNL     1       0.723   2.929  20.393  0.00  0.00    +0.000 N 
ATOM     29  O   UNL     1       0.263   1.891  18.428  0.00  0.00    +0.000 OA
ATOM     30  H   UNL     1       1.142   3.742  20.817  0.00  0.00    +0.000 HD
ATOM     31  H   UNL     1       0.441   2.141  20.941  0.00  0.00    +0.000 HD
ENDBRANCH  26  27
ENDBRANCH  25  26
ENDBRANCH   6  25
TORSDOF 8
ENDMDL
MODEL 5
REMARK VINA RESULT:      -6.1      3.748      6.168
REMARK  Name = 
REMARK  9 active torsions:
REMARK  status: ('A' for Active; 'I' for Inactive)
REMARK    1  A    between atoms: C_1  and  O_2
REMARK    2  A    between atoms: O_2  and  C_3
REMARK    3  A    between atoms: C_3  and  N_4
REMARK    4  A    between atoms: C_5  and  C_7
REMARK    5  A    between atoms: C_7  and  C_8
REMARK    6  A    between atoms: C_16  and  C_17
REMARK    7  A    between atoms: C_20  and  C_21
REMARK    8  A    between atoms: C_21  and  O_22
REMARK    9  A    between atoms: O_22  and  C_23
REMARK                            x       y       z     vdW  Elec       q    Type
REMARK                         _______ _______ _______ _____ _____    ______ ____
ROOT
ATOM      1  C   UNL     1       2.704   4.940  18.960  0.00  0.00    +0.000 C 
ATOM      2  C   UNL     1       2.086   5.552  20.285  0.00  0.00    +0.000 C 
ATOM      3  O   UNL     1       1.998   5.051  21.383  0.00  0.00    +0.000 OA
ATOM      4  N   UNL     1       1.950   6.752  19.672  0.00  0.00    +0.000 N 
ATOM      5  C   UNL     1       1.568   8.035  19.958  0.00  0.00    +0.000 C 
ATOM      6  C   UNL     1       1.691   9.006  19.000  0.00  0.00    +0.000 C 
ATOM      7  C   UNL     1       2.263   8.792  17.613  0.00  0.00    +0.000 C 
ATOM      8  S   UNL     1       3.322   7.321  17.456  0.00  0.00    +0.000 S 
ATOM      9  C   UNL     1       2.129   6.263  18.314  0.00  0.00    +0.000 C 
ENDROOT
BRANCH   1  10
ATOM     10  N   UNL     1       4.212   4.871  19.111  0.00  0.00    +0.000 N 
ATOM     11  C   UNL     1       5.107   4.434  18.166  0.00  0.00    +0.000 C 
ATOM     12  O   UNL     1       4.755   3.903  17.108  0.00  0.00    +0.000 OA
ATOM     13  H   UNL     1       4.572   5.129  20.031  0.00  0.00    +0.000 HD
BRANCH  11  14
ATOM     14  C   UNL     1       6.569   4.513  18.565  0.00  0.00    +0.000 C 
BRANCH  14  15
ATOM     15  C   UNL     1       7.108   5.885  18.329  0.00  0.00    +0.000 A 
ATOM     16  C   UNL     1       8.031   6.579  19.086  0.00  0.00    +0.000 A 
ATOM     17  C   UNL     1       8.352   7.845  18.517  0.00  0.00    +0.000 A 
ATOM     18  C   UNL     1       7.660   8.078  17.349  0.00  0.00    +0.000 A 
ATOM     19  S   UNL     1       6.623   6.779  16.950  0.00  0.00    +0.000 S 
ENDBRANCH  14  15
ENDBRANCH  11  14
ENDBRANCH   1  10
BRANCH   5  20
ATOM     20  C   UNL     1       1.004   8.374  21.404  0.00  0.00    +0.000 C 
ATOM     21  O   UNL     1       1.835   8.819  22.239  0.00  0.00    +0.000 OA
ATOM     22  O   UNL     1      -0.233   8.125  21.537  0.00  0.00    +0.000 OA
ENDBRANCH   5  20
BRANCH   1  24
ATOM     23  C   UNL     1       2.416   2.509  19.401  0.00  0.00    +0.000 C 
ATOM     24  O   UNL     1       2.115   3.645  18.601  0.00  0.00    +0.000 OA
ENDBRANCH   1  24
BRANCH   6  25
ATOM     25  C   UNL     1       1.306  10.465  19.215  0.00  0.00    +0.000 C 
BRANCH  25  26
ATOM     26  O   UNL     1       2.066  11.365  18.405  0.00  0.00    +0.000 OA
BRANCH  26  27
ATOM     27  C   UNL     1       1.715  12.670  18.449  0.00  0.00    +0.000 C 
ATOM     28  N   UNL     1       0.390  12.785  18.200  0.00  0.00    +0.000 N 
ATOM     29  O   UNL     1       2.449  13.609  18.681  0.00  0.00    +0.000 OA
ATOM     30  H   UNL     1      -0.130  11.954  17.966  0.00  0.00    +0.000 HD
ATOM     31  H   UNL     1      -0.023  13.695  18.139  0.00  0.00    +0.000 HD
ENDBRANCH  26  27
ENDBRANCH  25  26
ENDBRANCH   6  25
TORSDOF 8
ENDMDL
MODEL 6
REMARK VINA RESULT:      -6.0      8.954     11.070
REMARK  Name = 
REMARK  9 active torsions:
REMARK  status: ('A' for Active; 'I' for Inactive)
REMARK    1  A    between atoms: C_1  and  O_2
REMARK    2  A    between atoms: O_2  and  C_3
REMARK    3  A    between atoms: C_3  and  N_4
REMARK    4  A    between atoms: C_5  and  C_7
REMARK    5  A    between atoms: C_7  and  C_8
REMARK    6  A    between atoms: C_16  and  C_17
REMARK    7  A    between atoms: C_20  and  C_21
REMARK    8  A    between atoms: C_21  and  O_22
REMARK    9  A    between atoms: O_22  and  C_23
REMARK                            x       y       z     vdW  Elec       q    Type
REMARK                         _______ _______ _______ _____ _____    ______ ____
ROOT
ATOM      1  C   UNL     1      -1.112  12.201  19.346  0.00  0.00    +0.000 C 
ATOM      2  C   UNL     1      -2.384  11.950  18.435  0.00  0.00    +0.000 C 
ATOM      3  O   UNL     1      -2.445  11.442  17.339  0.00  0.00    +0.000 OA
ATOM      4  N   UNL     1      -3.192  12.338  19.451  0.00  0.00    +0.000 N 
ATOM      5  C   UNL     1      -4.525  12.428  19.751  0.00  0.00    +0.000 C 
ATOM      6  C   UNL     1      -4.909  12.804  21.010  0.00  0.00    +0.000 C 
ATOM      7  C   UNL     1      -3.964  13.108  22.155  0.00  0.00    +0.000 C 
ATOM      8  S   UNL     1      -2.302  12.393  21.965  0.00  0.00    +0.000 S 
ATOM      9  C   UNL     1      -2.155  12.966  20.254  0.00  0.00    +0.000 C 
ENDROOT
BRANCH   1  10
ATOM     10  N   UNL     1      -0.617  10.868  19.874  0.00  0.00    +0.000 N 
ATOM     11  C   UNL     1       0.458  10.668  20.704  0.00  0.00    +0.000 C 
ATOM     12  O   UNL     1       1.246  11.570  21.006  0.00  0.00    +0.000 OA
ATOM     13  H   UNL     1      -1.114  10.047  19.524  0.00  0.00    +0.000 HD
BRANCH  11  14
ATOM     14  C   UNL     1       0.706   9.229  21.117  0.00  0.00    +0.000 C 
BRANCH  14  15
ATOM     15  C   UNL     1       1.482   8.504  20.067  0.00  0.00    +0.000 A 
ATOM     16  C   UNL     1       2.026   7.237  20.133  0.00  0.00    +0.000 A 
ATOM     17  C   UNL     1       2.647   6.852  18.910  0.00  0.00    +0.000 A 
ATOM     18  C   UNL     1       2.563   7.840  17.954  0.00  0.00    +0.000 A 
ATOM     19  S   UNL     1       1.746   9.225  18.535  0.00  0.00    +0.000 S 
ENDBRANCH  14  15
ENDBRANCH  11  14
ENDBRANCH   1  10
BRANCH   5  20
ATOM     20  C   UNL     1      -5.599  12.079  18.633  0.00  0.00    +0.000 C 
ATOM     21  O   UNL     1      -6.023  13.044  17.944  0.00  0.00    +0.000 OA
ATOM     22  O   UNL     1      -5.912  10.850  18.597  0.00  0.00    +0.000 OA
ENDBRANCH   5  20
BRANCH   1  24
ATOM     23  C   UNL     1       0.133  14.327  18.998  0.00  0.00    +0.000 C 
ATOM     24  O   UNL     1      -0.059  12.959  18.659  0.00  0.00    +0.000 OA
ENDBRANCH   1  24
BRANCH   6  25
ATOM     25  C   UNL     1      -6.363  12.927  21.454  0.00  0.00    +0.000 C 
BRANCH  25  26
ATOM     26  O   UNL     1      -6.497  13.425  22.787  0.00  0.00    +0.000 OA
BRANCH  26  27
ATOM     27  C   UNL     1      -7.262  12.700  23.634  0.00  0.00    +0.000 C 
ATOM     28  N   UNL     1      -7.621  13.472  24.684  0.00  0.00    +0.000 N 
ATOM     29  O   UNL     1      -7.594  11.540  23.496  0.00  0.00    +0.000 OA
ATOM     30  H   UNL     1      -7.254  14.410  24.741  0.00  0.00    +0.000 HD
ATOM     31  H   UNL     1      -8.145  13.070  25.436  0.00  0.00    +0.000 HD
ENDBRANCH  26  27
ENDBRANCH  25  26
ENDBRANCH   6  25
TORSDOF 8
ENDMDL
MODEL 7
REMARK VINA RESULT:      -6.0      5.426      8.281
REMARK  Name = 
REMARK  9 active torsions:
REMARK  status: ('A' for Active; 'I' for Inactive)
REMARK    1  A    between atoms: C_1  and  O_2
REMARK    2  A    between atoms: O_2  and  C_3
REMARK    3  A    between atoms: C_3  and  N_4
REMARK    4  A    between atoms: C_5  and  C_7
REMARK    5  A    between atoms: C_7  and  C_8
REMARK    6  A    between atoms: C_16  and  C_17
REMARK    7  A    between atoms: C_20  and  C_21
REMARK    8  A    between atoms: C_21  and  O_22
REMARK    9  A    between atoms: O_22  and  C_23
REMARK                            x       y       z     vdW  Elec       q    Type
REMARK                         _______ _______ _______ _____ _____    ______ ____
ROOT
ATOM      1  C   UNL     1       0.691   9.605  20.393  0.00  0.00    +0.000 C 
ATOM      2  C   UNL     1       0.536   8.176  21.059  0.00  0.00    +0.000 C 
ATOM      3  O   UNL     1      -0.253   7.813  21.903  0.00  0.00    +0.000 OA
ATOM      4  N   UNL     1       1.435   7.666  20.184  0.00  0.00    +0.000 N 
ATOM      5  C   UNL     1       1.988   6.463  19.834  0.00  0.00    +0.000 C 
ATOM      6  C   UNL     1       2.833   6.396  18.759  0.00  0.00    +0.000 C 
ATOM      7  C   UNL     1       3.202   7.564  17.867  0.00  0.00    +0.000 C 
ATOM      8  S   UNL     1       2.025   8.950  17.922  0.00  0.00    +0.000 S 
ATOM      9  C   UNL     1       1.964   8.943  19.732  0.00  0.00    +0.000 C 
ENDROOT
BRANCH   1  10
ATOM     10  N   UNL     1      -0.491   9.846  19.472  0.00  0.00    +0.000 N 
ATOM     11  C   UNL     1      -0.660  10.913  18.626  0.00  0.00    +0.000 C 
ATOM     12  O   UNL     1       0.092  11.893  18.626  0.00  0.00    +0.000 OA
ATOM     13  H   UNL     1      -1.247   9.164  19.543  0.00  0.00    +0.000 HD
BRANCH  11  14
ATOM     14  C   UNL     1      -1.921  10.883  17.780  0.00  0.00    +0.000 C 
BRANCH  14  15
ATOM     15  C   UNL     1      -3.059  11.520  18.507  0.00  0.00    +0.000 A 
ATOM     16  C   UNL     1      -3.020  12.247  19.681  0.00  0.00    +0.000 A 
ATOM     17  C   UNL     1      -4.301  12.754  20.044  0.00  0.00    +0.000 A 
ATOM     18  C   UNL     1      -5.275  12.392  19.140  0.00  0.00    +0.000 A 
ATOM     19  S   UNL     1      -4.647  11.439  17.868  0.00  0.00    +0.000 S 
ENDBRANCH  14  15
ENDBRANCH  11  14
ENDBRANCH   1  10
BRANCH   5  20
ATOM     20  C   UNL     1       1.623   5.165  20.676  0.00  0.00    +0.000 C 
ATOM     21  O   UNL     1       0.558   4.573  20.358  0.00  0.00    +0.000 OA
ATOM     22  O   UNL     1       2.459   4.905  21.594  0.00  0.00    +0.000 OA
ENDBRANCH   5  20
BRANCH   1  24
ATOM     23  C   UNL     1      -0.272  11.136  22.101  0.00  0.00    +0.000 C 
ATOM     24  O   UNL     1       0.864  10.679  21.378  0.00  0.00    +0.000 OA
ENDBRANCH   1  24
BRANCH   6  25
ATOM     25  C   UNL     1       3.495   5.109  18.278  0.00  0.00    +0.000 C 
BRANCH  25  26
ATOM     26  O   UNL     1       2.604   4.269  17.540  0.00  0.00    +0.000 OA
BRANCH  26  27
ATOM     27  C   UNL     1       2.651   2.945  17.810  0.00  0.00    +0.000 C 
ATOM     28  N   UNL     1       1.451   2.543  18.287  0.00  0.00    +0.000 N 
ATOM     29  O   UNL     1       3.603   2.208  17.652  0.00  0.00    +0.000 OA
ATOM     30  H   UNL     1       0.734   3.236  18.434  0.00  0.00    +0.000 HD
ATOM     31  H   UNL     1       1.333   1.597  18.591  0.00  0.00    +0.000 HD
ENDBRANCH  26  27
ENDBRANCH  25  26
ENDBRANCH   6  25
TORSDOF 8
ENDMDL
MODEL 8
REMARK VINA RESULT:      -6.0      3.651      5.953
REMARK  Name = 
REMARK  9 active torsions:
REMARK  status: ('A' for Active; 'I' for Inactive)
REMARK    1  A    between atoms: C_1  and  O_2
REMARK    2  A    between atoms: O_2  and  C_3
REMARK    3  A    between atoms: C_3  and  N_4
REMARK    4  A    between atoms: C_5  and  C_7
REMARK    5  A    between atoms: C_7  and  C_8
REMARK    6  A    between atoms: C_16  and  C_17
REMARK    7  A    between atoms: C_20  and  C_21
REMARK    8  A    between atoms: C_21  and  O_22
REMARK    9  A    between atoms: O_22  and  C_23
REMARK                            x       y       z     vdW  Elec       q    Type
REMARK                         _______ _______ _______ _____ _____    ______ ____
ROOT
ATOM      1  C   UNL     1       2.529   4.979  18.883  0.00  0.00    +0.000 C 
ATOM      2  C   UNL     1       1.960   5.571  20.238  0.00  0.00    +0.000 C 
ATOM      3  O   UNL     1       1.870   5.038  21.321  0.00  0.00    +0.000 OA
ATOM      4  N   UNL     1       1.863   6.795  19.667  0.00  0.00    +0.000 N 
ATOM      5  C   UNL     1       1.541   8.083  20.002  0.00  0.00    +0.000 C 
ATOM      6  C   UNL     1       1.688   9.079  19.074  0.00  0.00    +0.000 C 
ATOM      7  C   UNL     1       2.226   8.889  17.670  0.00  0.00    +0.000 C 
ATOM      8  S   UNL     1       3.220   7.382  17.446  0.00  0.00    +0.000 S 
ATOM      9  C   UNL     1       1.999   6.345  18.291  0.00  0.00    +0.000 C 
ENDROOT
BRANCH   1  10
ATOM     10  N   UNL     1       4.035   4.843  19.004  0.00  0.00    +0.000 N 
ATOM     11  C   UNL     1       4.896   4.409  18.026  0.00  0.00    +0.000 C 
ATOM     12  O   UNL     1       4.505   3.935  16.954  0.00  0.00    +0.000 OA
ATOM     13  H   UNL     1       4.421   5.050  19.926  0.00  0.00    +0.000 HD
BRANCH  11  14
ATOM     14  C   UNL     1       6.366   4.412  18.401  0.00  0.00    +0.000 C 
BRANCH  14  15
ATOM     15  C   UNL     1       6.971   5.755  18.157  0.00  0.00    +0.000 A 
ATOM     16  C   UNL     1       6.704   6.634  17.125  0.00  0.00    +0.000 A 
ATOM     17  C   UNL     1       7.430   7.853  17.254  0.00  0.00    +0.000 A 
ATOM     18  C   UNL     1       8.231   7.861  18.375  0.00  0.00    +0.000 A 
ATOM     19  S   UNL     1       8.112   6.403  19.258  0.00  0.00    +0.000 S 
ENDBRANCH  14  15
ENDBRANCH  11  14
ENDBRANCH   1  10
BRANCH   5  20
ATOM     20  C   UNL     1       1.015   8.397  21.469  0.00  0.00    +0.000 C 
ATOM     21  O   UNL     1       1.867   8.839  22.285  0.00  0.00    +0.000 OA
ATOM     22  O   UNL     1      -0.215   8.133  21.634  0.00  0.00    +0.000 OA
ENDBRANCH   5  20
BRANCH   1  24
ATOM     23  C   UNL     1       2.070   2.571  19.307  0.00  0.00    +0.000 C 
ATOM     24  O   UNL     1       1.880   3.722  18.493  0.00  0.00    +0.000 OA
ENDBRANCH   1  24
BRANCH   6  25
ATOM     25  C   UNL     1       1.367  10.546  19.343  0.00  0.00    +0.000 C 
BRANCH  25  26
ATOM     26  O   UNL     1      -0.028  10.782  19.541  0.00  0.00    +0.000 OA
BRANCH  26  27
ATOM     27  C   UNL     1      -0.792  10.891  18.431  0.00  0.00    +0.000 C 
ATOM     28  N   UNL     1      -0.626  12.121  17.893  0.00  0.00    +0.000 N 
ATOM     29  O   UNL     1      -1.515  10.035  17.963  0.00  0.00    +0.000 OA
ATOM     30  H   UNL     1      -0.045  12.785  18.380  0.00  0.00    +0.000 HD
ATOM     31  H   UNL     1      -1.166  12.386  17.094  0.00  0.00    +0.000 HD
ENDBRANCH  26  27
ENDBRANCH  25  26
ENDBRANCH   6  25
TORSDOF 8
ENDMDL
MODEL 9
REMARK VINA RESULT:      -5.9      8.438      9.985
REMARK  Name = 
REMARK  9 active torsions:
REMARK  status: ('A' for Active; 'I' for Inactive)
REMARK    1  A    between atoms: C_1  and  O_2
REMARK    2  A    between atoms: O_2  and  C_3
REMARK    3  A    between atoms: C_3  and  N_4
REMARK    4  A    between atoms: C_5  and  C_7
REMARK    5  A    between atoms: C_7  and  C_8
REMARK    6  A    between atoms: C_16  and  C_17
REMARK    7  A    between atoms: C_20  and  C_21
REMARK    8  A    between atoms: C_21  and  O_22
REMARK    9  A    between atoms: O_22  and  C_23
REMARK                            x       y       z     vdW  Elec       q    Type
REMARK                         _______ _______ _______ _____ _____    ______ ____
ROOT
ATOM      1  C   UNL     1      -0.264  11.280  19.436  0.00  0.00    +0.000 C 
ATOM      2  C   UNL     1      -1.080  12.066  20.544  0.00  0.00    +0.000 C 
ATOM      3  O   UNL     1      -0.666  12.670  21.507  0.00  0.00    +0.000 OA
ATOM      4  N   UNL     1      -2.219  11.894  19.831  0.00  0.00    +0.000 N 
ATOM      5  C   UNL     1      -3.538  12.262  19.862  0.00  0.00    +0.000 C 
ATOM      6  C   UNL     1      -4.358  11.924  18.819  0.00  0.00    +0.000 C 
ATOM      7  C   UNL     1      -3.919  11.183  17.571  0.00  0.00    +0.000 C 
ATOM      8  S   UNL     1      -2.132  11.265  17.240  0.00  0.00    +0.000 S 
ATOM      9  C   UNL     1      -1.707  10.855  18.952  0.00  0.00    +0.000 C 
ENDROOT
BRANCH   1  10
ATOM     10  N   UNL     1       0.466  12.283  18.562  0.00  0.00    +0.000 N 
ATOM     11  C   UNL     1       1.658  12.900  18.850  0.00  0.00    +0.000 C 
ATOM     12  O   UNL     1       2.212  12.804  19.949  0.00  0.00    +0.000 OA
ATOM     13  H   UNL     1      -0.021  12.552  17.706  0.00  0.00    +0.000 HD
BRANCH  11  14
ATOM     14  C   UNL     1       2.188  13.831  17.775  0.00  0.00    +0.000 C 
BRANCH  14  15
ATOM     15  C   UNL     1       2.799  15.049  18.385  0.00  0.00    +0.000 A 
ATOM     16  C   UNL     1       2.164  16.069  19.067  0.00  0.00    +0.000 A 
ATOM     17  C   UNL     1       3.082  17.039  19.563  0.00  0.00    +0.000 A 
ATOM     18  C   UNL     1       4.385  16.732  19.237  0.00  0.00    +0.000 A 
ATOM     19  S   UNL     1       4.494  15.286  18.332  0.00  0.00    +0.000 S 
ENDBRANCH  14  15
ENDBRANCH  11  14
ENDBRANCH   1  10
BRANCH   5  20
ATOM     20  C   UNL     1      -4.086  13.087  21.105  0.00  0.00    +0.000 C 
ATOM     21  O   UNL     1      -4.492  12.414  22.089  0.00  0.00    +0.000 OA
ATOM     22  O   UNL     1      -4.063  14.343  20.928  0.00  0.00    +0.000 OA
ENDBRANCH   5  20
BRANCH   1  24
ATOM     23  C   UNL     1       1.212   9.300  19.132  0.00  0.00    +0.000 C 
ATOM     24  O   UNL     1       0.636  10.267  20.001  0.00  0.00    +0.000 OA
ENDBRANCH   1  24
BRANCH   6  25
ATOM     25  C   UNL     1      -5.836  12.290  18.747  0.00  0.00    +0.000 C 
BRANCH  25  26
ATOM     26  O   UNL     1      -6.678  11.157  18.522  0.00  0.00    +0.000 OA
BRANCH  26  27
ATOM     27  C   UNL     1      -7.011  10.419  19.605  0.00  0.00    +0.000 C 
ATOM     28  N   UNL     1      -7.405   9.189  19.205  0.00  0.00    +0.000 N 
ATOM     29  O   UNL     1      -6.966  10.777  20.765  0.00  0.00    +0.000 OA
ATOM     30  H   UNL     1      -7.460   8.999  18.216  0.00  0.00    +0.000 HD
ATOM     31  H   UNL     1      -7.740   8.534  19.882  0.00  0.00    +0.000 HD
ENDBRANCH  26  27
ENDBRANCH  25  26
ENDBRANCH   6  25
TORSDOF 8
ENDMDL
