MODEL 1
REMARK VINA RESULT:      -7.0      0.000      0.000
REMARK  Name = 
REMARK  6 active torsions:
REMARK  status: ('A' for Active; 'I' for Inactive)
REMARK    1  A    between atoms: C_1  and  N_2
REMARK    2  A    between atoms: N_2  and  C_3
REMARK    3  A    between atoms: N_2  and  C_4
REMARK    4  A    between atoms: C_4  and  C_5
REMARK    5  A    between atoms: C_5  and  C_6
REMARK    6  A    between atoms: C_6  and  N_7
REMARK                            x       y       z     vdW  Elec       q    Type
REMARK                         _______ _______ _______ _____ _____    ______ ____
ROOT
ATOM      1  N   UNL     1       4.258   4.859  17.025  0.00  0.00    +0.000 N 
ATOM      2  C   UNL     1       3.894   6.142  17.510  0.00  0.00    +0.000 C 
ATOM      3  O   UNL     1       4.231   7.216  17.033  0.00  0.00    +0.000 OA
ATOM      4  C   UNL     1       3.066   5.827  18.655  0.00  0.00    +0.000 A 
ATOM      5  C   UNL     1       2.426   6.661  19.565  0.00  0.00    +0.000 A 
ATOM      6  C   UNL     1       1.672   6.036  20.576  0.00  0.00    +0.000 A 
ATOM      7  C   UNL     1       1.566   4.632  20.674  0.00  0.00    +0.000 A 
ATOM      8  C   UNL     1       2.230   3.808  19.744  0.00  0.00    +0.000 A 
ATOM      9  C   UNL     1       2.242   2.402  19.678  0.00  0.00    +0.000 A 
ATOM     10  C   UNL     1       2.979   1.747  18.665  0.00  0.00    +0.000 A 
ATOM     11  C   UNL     1       3.722   2.459  17.697  0.00  0.00    +0.000 A 
ATOM     12  C   UNL     1       3.675   3.842  17.790  0.00  0.00    +0.000 A 
ATOM     13  C   UNL     1       2.951   4.456  18.785  0.00  0.00    +0.000 A 
ENDROOT
BRANCH   1  14
ATOM     14  C   UNL     1       5.108   4.669  15.870  0.00  0.00    +0.000 C 
BRANCH  14  15
ATOM     15  C   UNL     1       6.517   5.239  16.052  0.00  0.00    +0.000 C 
BRANCH  15  16
ATOM     16  C   UNL     1       7.279   4.617  17.230  0.00  0.00    +0.000 C 
BRANCH  16  18
ATOM     17  C   UNL     1       7.606   6.969  17.763  0.00  0.00    +0.000 C 
ATOM     18  N   UNL     1       7.682   5.594  18.257  0.00  0.00    +0.000 NA
ATOM     19  C   UNL     1       6.841   5.446  19.447  0.00  0.00    +0.000 C 
ENDBRANCH  16  18
ENDBRANCH  15  16
ENDBRANCH  14  15
ENDBRANCH   1  14
TORSDOF 4
ENDMDL
MODEL 2
REMARK VINA RESULT:      -6.9      1.539      2.849
REMARK  Name = 
REMARK  6 active torsions:
REMARK  status: ('A' for Active; 'I' for Inactive)
REMARK    1  A    between atoms: C_1  and  N_2
REMARK    2  A    between atoms: N_2  and  C_3
REMARK    3  A    between atoms: N_2  and  C_4
REMARK    4  A    between atoms: C_4  and  C_5
REMARK    5  A    between atoms: C_5  and  C_6
REMARK    6  A    between atoms: C_6  and  N_7
REMARK                            x       y       z     vdW  Elec       q    Type
REMARK                         _______ _______ _______ _____ _____    ______ ____
ROOT
ATOM      1  N   UNL     1       3.963   4.056  17.167  0.00  0.00    +0.000 N 
ATOM      2  C   UNL     1       3.536   2.911  17.886  0.00  0.00    +0.000 C 
ATOM      3  O   UNL     1       3.798   1.748  17.615  0.00  0.00    +0.000 OA
ATOM      4  C   UNL     1       2.751   3.483  18.960  0.00  0.00    +0.000 A 
ATOM      5  C   UNL     1       2.045   2.872  19.990  0.00  0.00    +0.000 A 
ATOM      6  C   UNL     1       1.384   3.722  20.897  0.00  0.00    +0.000 A 
ATOM      7  C   UNL     1       1.426   5.127  20.775  0.00  0.00    +0.000 A 
ATOM      8  C   UNL     1       2.142   5.723  19.719  0.00  0.00    +0.000 A 
ATOM      9  C   UNL     1       2.299   7.093  19.436  0.00  0.00    +0.000 A 
ATOM     10  C   UNL     1       3.058   7.502  18.315  0.00  0.00    +0.000 A 
ATOM     11  C   UNL     1       3.676   6.574  17.448  0.00  0.00    +0.000 A 
ATOM     12  C   UNL     1       3.506   5.235  17.767  0.00  0.00    +0.000 A 
ATOM     13  C   UNL     1       2.763   4.862  18.863  0.00  0.00    +0.000 A 
ENDROOT
BRANCH   1  14
ATOM     14  C   UNL     1       4.786   3.975  15.980  0.00  0.00    +0.000 C 
BRANCH  14  15
ATOM     15  C   UNL     1       6.287   4.044  16.275  0.00  0.00    +0.000 C 
BRANCH  15  16
ATOM     16  C   UNL     1       6.901   5.421  15.993  0.00  0.00    +0.000 C 
BRANCH  16  18
ATOM     17  C   UNL     1       7.244   7.366  17.416  0.00  0.00    +0.000 C 
ATOM     18  N   UNL     1       7.642   5.986  17.136  0.00  0.00    +0.000 NA
ATOM     19  C   UNL     1       7.434   5.158  18.326  0.00  0.00    +0.000 C 
ENDBRANCH  16  18
ENDBRANCH  15  16
ENDBRANCH  14  15
ENDBRANCH   1  14
TORSDOF 4
ENDMDL
MODEL 3
REMARK VINA RESULT:      -6.7      1.214      2.912
REMARK  Name = 
REMARK  6 active torsions:
REMARK  status: ('A' for Active; 'I' for Inactive)
REMARK    1  A    between atoms: C_1  and  N_2
REMARK    2  A    between atoms: N_2  and  C_3
REMARK    3  A    between atoms: N_2  and  C_4
REMARK    4  A    between atoms: C_4  and  C_5
REMARK    5  A    between atoms: C_5  and  C_6
REMARK    6  A    between atoms: C_6  and  N_7
REMARK                            x       y       z     vdW  Elec       q    Type
REMARK                         _______ _______ _______ _____ _____    ______ ____
ROOT
ATOM      1  N   UNL     1       3.936   5.538  17.327  0.00  0.00    +0.000 N 
ATOM      2  C   UNL     1       3.989   4.188  16.895  0.00  0.00    +0.000 C 
ATOM      3  O   UNL     1       4.650   3.754  15.962  0.00  0.00    +0.000 OA
ATOM      4  C   UNL     1       3.092   3.522  17.815  0.00  0.00    +0.000 A 
ATOM      5  C   UNL     1       2.702   2.190  17.895  0.00  0.00    +0.000 A 
ATOM      6  C   UNL     1       1.811   1.851  18.930  0.00  0.00    +0.000 A 
ATOM      7  C   UNL     1       1.327   2.808  19.847  0.00  0.00    +0.000 A 
ATOM      8  C   UNL     1       1.731   4.154  19.742  0.00  0.00    +0.000 A 
ATOM      9  C   UNL     1       1.362   5.240  20.556  0.00  0.00    +0.000 A 
ATOM     10  C   UNL     1       1.871   6.532  20.287  0.00  0.00    +0.000 A 
ATOM     11  C   UNL     1       2.753   6.782  19.212  0.00  0.00    +0.000 A 
ATOM     12  C   UNL     1       3.100   5.683  18.441  0.00  0.00    +0.000 A 
ATOM     13  C   UNL     1       2.592   4.437  18.722  0.00  0.00    +0.000 A 
ENDROOT
BRANCH   1  14
ATOM     14  C   UNL     1       4.683   6.597  16.686  0.00  0.00    +0.000 C 
BRANCH  14  15
ATOM     15  C   UNL     1       5.754   7.217  17.588  0.00  0.00    +0.000 C 
BRANCH  15  16
ATOM     16  C   UNL     1       7.176   6.745  17.259  0.00  0.00    +0.000 C 
BRANCH  16  18
ATOM     17  C   UNL     1       6.861   5.578  19.371  0.00  0.00    +0.000 C 
ATOM     18  N   UNL     1       7.674   5.688  18.159  0.00  0.00    +0.000 NA
ATOM     19  C   UNL     1       7.698   4.403  17.457  0.00  0.00    +0.000 C 
ENDBRANCH  16  18
ENDBRANCH  15  16
ENDBRANCH  14  15
ENDBRANCH   1  14
TORSDOF 4
ENDMDL
MODEL 4
REMARK VINA RESULT:      -6.6      2.063      5.353
REMARK  Name = 
REMARK  6 active torsions:
REMARK  status: ('A' for Active; 'I' for Inactive)
REMARK    1  A    between atoms: C_1  and  N_2
REMARK    2  A    between atoms: N_2  and  C_3
REMARK    3  A    between atoms: N_2  and  C_4
REMARK    4  A    between atoms: C_4  and  C_5
REMARK    5  A    between atoms: C_5  and  C_6
REMARK    6  A    between atoms: C_6  and  N_7
REMARK                            x       y       z     vdW  Elec       q    Type
REMARK                         _______ _______ _______ _____ _____    ______ ____
ROOT
ATOM      1  N   UNL     1       4.312   3.348  17.851  0.00  0.00    +0.000 N 
ATOM      2  C   UNL     1       4.883   3.749  19.086  0.00  0.00    +0.000 C 
ATOM      3  O   UNL     1       4.554   3.355  20.195  0.00  0.00    +0.000 OA
ATOM      4  C   UNL     1       5.897   4.698  18.676  0.00  0.00    +0.000 A 
ATOM      5  C   UNL     1       6.784   5.457  19.430  0.00  0.00    +0.000 A 
ATOM      6  C   UNL     1       7.669   6.289  18.719  0.00  0.00    +0.000 A 
ATOM      7  C   UNL     1       7.665   6.360  17.310  0.00  0.00    +0.000 A 
ATOM      8  C   UNL     1       6.752   5.585  16.567  0.00  0.00    +0.000 A 
ATOM      9  C   UNL     1       6.600   5.521  15.170  0.00  0.00    +0.000 A 
ATOM     10  C   UNL     1       5.613   4.680  14.604  0.00  0.00    +0.000 A 
ATOM     11  C   UNL     1       4.755   3.888  15.399  0.00  0.00    +0.000 A 
ATOM     12  C   UNL     1       4.945   3.973  16.770  0.00  0.00    +0.000 A 
ATOM     13  C   UNL     1       5.911   4.798  17.297  0.00  0.00    +0.000 A 
ENDROOT
BRANCH   1  14
ATOM     14  C   UNL     1       3.229   2.393  17.760  0.00  0.00    +0.000 C 
BRANCH  14  15
ATOM     15  C   UNL     1       1.854   3.005  18.041  0.00  0.00    +0.000 C 
BRANCH  15  16
ATOM     16  C   UNL     1       1.092   2.300  19.171  0.00  0.00    +0.000 C 
BRANCH  16  18
ATOM     17  C   UNL     1       1.496   2.631  21.547  0.00  0.00    +0.000 C 
ATOM     18  N   UNL     1       0.846   3.155  20.345  0.00  0.00    +0.000 NA
ATOM     19  C   UNL     1       1.316   4.517  20.081  0.00  0.00    +0.000 C 
ENDBRANCH  16  18
ENDBRANCH  15  16
ENDBRANCH  14  15
ENDBRANCH   1  14
TORSDOF 4
ENDMDL
MODEL 5
REMARK VINA RESULT:      -6.4      1.493      2.391
REMARK  Name = 
REMARK  6 active torsions:
REMARK  status: ('A' for Active; 'I' for Inactive)
REMARK    1  A    between atoms: C_1  and  N_2
REMARK    2  A    between atoms: N_2  and  C_3
REMARK    3  A    between atoms: N_2  and  C_4
REMARK    4  A    between atoms: C_4  and  C_5
REMARK    5  A    between atoms: C_5  and  C_6
REMARK    6  A    between atoms: C_6  and  N_7
REMARK                            x       y       z     vdW  Elec       q    Type
REMARK                         _______ _______ _______ _____ _____    ______ ____
ROOT
ATOM      1  N   UNL     1       3.319   5.976  18.200  0.00  0.00    +0.000 N 
ATOM      2  C   UNL     1       2.590   6.302  19.372  0.00  0.00    +0.000 C 
ATOM      3  O   UNL     1       2.373   7.427  19.798  0.00  0.00    +0.000 OA
ATOM      4  C   UNL     1       2.207   5.002  19.882  0.00  0.00    +0.000 A 
ATOM      5  C   UNL     1       1.494   4.652  21.023  0.00  0.00    +0.000 A 
ATOM      6  C   UNL     1       1.273   3.278  21.235  0.00  0.00    +0.000 A 
ATOM      7  C   UNL     1       1.749   2.294  20.341  0.00  0.00    +0.000 A 
ATOM      8  C   UNL     1       2.475   2.674  19.195  0.00  0.00    +0.000 A 
ATOM      9  C   UNL     1       3.023   1.847  18.198  0.00  0.00    +0.000 A 
ATOM     10  C   UNL     1       3.732   2.418  17.115  0.00  0.00    +0.000 A 
ATOM     11  C   UNL     1       3.918   3.813  16.992  0.00  0.00    +0.000 A 
ATOM     12  C   UNL     1       3.354   4.593  17.990  0.00  0.00    +0.000 A 
ATOM     13  C   UNL     1       2.669   4.014  19.033  0.00  0.00    +0.000 A 
ENDROOT
BRANCH   1  14
ATOM     14  C   UNL     1       3.917   6.977  17.344  0.00  0.00    +0.000 C 
BRANCH  14  15
ATOM     15  C   UNL     1       5.443   6.877  17.266  0.00  0.00    +0.000 C 
BRANCH  15  16
ATOM     16  C   UNL     1       5.958   6.489  15.874  0.00  0.00    +0.000 C 
BRANCH  16  18
ATOM     17  C   UNL     1       7.319   4.969  17.201  0.00  0.00    +0.000 C 
ATOM     18  N   UNL     1       7.151   5.625  15.902  0.00  0.00    +0.000 NA
ATOM     19  C   UNL     1       7.064   4.616  14.844  0.00  0.00    +0.000 C 
ENDBRANCH  16  18
ENDBRANCH  15  16
ENDBRANCH  14  15
ENDBRANCH   1  14
TORSDOF 4
ENDMDL
MODEL 6
REMARK VINA RESULT:      -6.4      1.851      2.896
REMARK  Name = 
REMARK  6 active torsions:
REMARK  status: ('A' for Active; 'I' for Inactive)
REMARK    1  A    between atoms: C_1  and  N_2
REMARK    2  A    between atoms: N_2  and  C_3
REMARK    3  A    between atoms: N_2  and  C_4
REMARK    4  A    between atoms: C_4  and  C_5
REMARK    5  A    between atoms: C_5  and  C_6
REMARK    6  A    between atoms: C_6  and  N_7
REMARK                            x       y       z     vdW  Elec       q    Type
REMARK                         _______ _______ _______ _____ _____    ______ ____
ROOT
ATOM      1  N   UNL     1       4.707   4.503  17.495  0.00  0.00    +0.000 N 
ATOM      2  C   UNL     1       4.464   5.826  17.945  0.00  0.00    +0.000 C 
ATOM      3  O   UNL     1       5.070   6.830  17.599  0.00  0.00    +0.000 OA
ATOM      4  C   UNL     1       3.365   5.652  18.871  0.00  0.00    +0.000 A 
ATOM      5  C   UNL     1       2.688   6.578  19.657  0.00  0.00    +0.000 A 
ATOM      6  C   UNL     1       1.638   6.085  20.455  0.00  0.00    +0.000 A 
ATOM      7  C   UNL     1       1.282   4.719  20.467  0.00  0.00    +0.000 A 
ATOM      8  C   UNL     1       1.987   3.799  19.667  0.00  0.00    +0.000 A 
ATOM      9  C   UNL     1       1.779   2.413  19.545  0.00  0.00    +0.000 A 
ATOM     10  C   UNL     1       2.601   1.646  18.686  0.00  0.00    +0.000 A 
ATOM     11  C   UNL     1       3.646   2.226  17.932  0.00  0.00    +0.000 A 
ATOM     12  C   UNL     1       3.810   3.596  18.072  0.00  0.00    +0.000 A 
ATOM     13  C   UNL     1       2.998   4.320  18.914  0.00  0.00    +0.000 A 
ENDROOT
BRANCH   1  14
ATOM     14  C   UNL     1       5.745   4.177  16.542  0.00  0.00    +0.000 C 
BRANCH  14  15
ATOM     15  C   UNL     1       5.315   4.370  15.086  0.00  0.00    +0.000 C 
BRANCH  15  16
ATOM     16  C   UNL     1       6.495   4.445  14.107  0.00  0.00    +0.000 C 
BRANCH  16  18
ATOM     17  C   UNL     1       4.950   3.519  12.470  0.00  0.00    +0.000 C 
ATOM     18  N   UNL     1       6.340   3.578  12.925  0.00  0.00    +0.000 NA
ATOM     19  C   UNL     1       7.199   4.055  11.838  0.00  0.00    +0.000 C 
ENDBRANCH  16  18
ENDBRANCH  15  16
ENDBRANCH  14  15
ENDBRANCH   1  14
TORSDOF 4
ENDMDL
MODEL 7
REMARK VINA RESULT:      -6.4      1.170      2.033
REMARK  Name = 
REMARK  6 active torsions:
REMARK  status: ('A' for Active; 'I' for Inactive)
REMARK    1  A    between atoms: C_1  and  N_2
REMARK    2  A    between atoms: N_2  and  C_3
REMARK    3  A    between atoms: N_2  and  C_4
REMARK    4  A    between atoms: C_4  and  C_5
REMARK    5  A    between atoms: C_5  and  C_6
REMARK    6  A    between atoms: C_6  and  N_7
REMARK                            x       y       z     vdW  Elec       q    Type
REMARK                         _______ _______ _______ _____ _____    ______ ____
ROOT
ATOM      1  N   UNL     1       3.517   6.028  18.019  0.00  0.00    +0.000 N 
ATOM      2  C   UNL     1       2.665   6.379  19.097  0.00  0.00    +0.000 C 
ATOM      3  O   UNL     1       2.431   7.511  19.494  0.00  0.00    +0.000 OA
ATOM      4  C   UNL     1       2.189   5.092  19.559  0.00  0.00    +0.000 A 
ATOM      5  C   UNL     1       1.337   4.766  20.609  0.00  0.00    +0.000 A 
ATOM      6  C   UNL     1       1.054   3.400  20.794  0.00  0.00    +0.000 A 
ATOM      7  C   UNL     1       1.603   2.400  19.963  0.00  0.00    +0.000 A 
ATOM      8  C   UNL     1       2.469   2.755  18.910  0.00  0.00    +0.000 A 
ATOM      9  C   UNL     1       3.106   1.908  17.985  0.00  0.00    +0.000 A 
ATOM     10  C   UNL     1       3.953   2.455  16.992  0.00  0.00    +0.000 A 
ATOM     11  C   UNL     1       4.192   3.843  16.891  0.00  0.00    +0.000 A 
ATOM     12  C   UNL     1       3.537   4.643  17.815  0.00  0.00    +0.000 A 
ATOM     13  C   UNL     1       2.718   4.088  18.771  0.00  0.00    +0.000 A 
ENDROOT
BRANCH   1  14
ATOM     14  C   UNL     1       4.239   7.008  17.238  0.00  0.00    +0.000 C 
BRANCH  14  15
ATOM     15  C   UNL     1       5.545   6.471  16.645  0.00  0.00    +0.000 C 
BRANCH  15  16
ATOM     16  C   UNL     1       6.798   6.975  17.373  0.00  0.00    +0.000 C 
BRANCH  16  18
ATOM     17  C   UNL     1       7.191   5.613  19.351  0.00  0.00    +0.000 C 
ATOM     18  N   UNL     1       7.606   5.901  17.977  0.00  0.00    +0.000 NA
ATOM     19  C   UNL     1       7.513   4.686  17.164  0.00  0.00    +0.000 C 
ENDBRANCH  16  18
ENDBRANCH  15  16
ENDBRANCH  14  15
ENDBRANCH   1  14
TORSDOF 4
ENDMDL
MODEL 8
REMARK VINA RESULT:      -6.4      2.507      3.693
REMARK  Name = 
REMARK  6 active torsions:
REMARK  status: ('A' for Active; 'I' for Inactive)
REMARK    1  A    between atoms: C_1  and  N_2
REMARK    2  A    between atoms: N_2  and  C_3
REMARK    3  A    between atoms: N_2  and  C_4
REMARK    4  A    between atoms: C_4  and  C_5
REMARK    5  A    between atoms: C_5  and  C_6
REMARK    6  A    between atoms: C_6  and  N_7
REMARK                            x       y       z     vdW  Elec       q    Type
REMARK                         _______ _______ _______ _____ _____    ______ ____
ROOT
ATOM      1  N   UNL     1       5.037   4.555  16.220  0.00  0.00    +0.000 N 
ATOM      2  C   UNL     1       4.921   5.964  16.324  0.00  0.00    +0.000 C 
ATOM      3  O   UNL     1       5.506   6.790  15.638  0.00  0.00    +0.000 OA
ATOM      4  C   UNL     1       3.975   6.128  17.408  0.00  0.00    +0.000 A 
ATOM      5  C   UNL     1       3.469   7.279  18.001  0.00  0.00    +0.000 A 
ATOM      6  C   UNL     1       2.538   7.098  19.042  0.00  0.00    +0.000 A 
ATOM      7  C   UNL     1       2.134   5.817  19.474  0.00  0.00    +0.000 A 
ATOM      8  C   UNL     1       2.667   4.665  18.861  0.00  0.00    +0.000 A 
ATOM      9  C   UNL     1       2.387   3.317  19.150  0.00  0.00    +0.000 A 
ATOM     10  C   UNL     1       3.032   2.289  18.424  0.00  0.00    +0.000 A 
ATOM     11  C   UNL     1       3.968   2.565  17.402  0.00  0.00    +0.000 A 
ATOM     12  C   UNL     1       4.207   3.906  17.142  0.00  0.00    +0.000 A 
ATOM     13  C   UNL     1       3.567   4.888  17.861  0.00  0.00    +0.000 A 
ENDROOT
BRANCH   1  14
ATOM     14  C   UNL     1       5.899   3.907  15.255  0.00  0.00    +0.000 C 
BRANCH  14  15
ATOM     15  C   UNL     1       5.364   3.974  13.822  0.00  0.00    +0.000 C 
BRANCH  15  16
ATOM     16  C   UNL     1       6.392   3.548  12.767  0.00  0.00    +0.000 C 
BRANCH  16  18
ATOM     17  C   UNL     1       6.012   1.516  11.483  0.00  0.00    +0.000 C 
ATOM     18  N   UNL     1       5.792   2.961  11.555  0.00  0.00    +0.000 NA
ATOM     19  C   UNL     1       4.356   3.248  11.519  0.00  0.00    +0.000 C 
ENDBRANCH  16  18
ENDBRANCH  15  16
ENDBRANCH  14  15
ENDBRANCH   1  14
TORSDOF 4
ENDMDL
MODEL 9
REMARK VINA RESULT:      -6.4      0.867      1.254
REMARK  Name = 
REMARK  6 active torsions:
REMARK  status: ('A' for Active; 'I' for Inactive)
REMARK    1  A    between atoms: C_1  and  N_2
REMARK    2  A    between atoms: N_2  and  C_3
REMARK    3  A    between atoms: N_2  and  C_4
REMARK    4  A    between atoms: C_4  and  C_5
REMARK    5  A    between atoms: C_5  and  C_6
REMARK    6  A    between atoms: C_6  and  N_7
REMARK                            x       y       z     vdW  Elec       q    Type
REMARK                         _______ _______ _______ _____ _____    ______ ____
ROOT
ATOM      1  N   UNL     1       3.840   5.025  17.611  0.00  0.00    +0.000 N 
ATOM      2  C   UNL     1       3.667   6.432  17.650  0.00  0.00    +0.000 C 
ATOM      3  O   UNL     1       4.144   7.241  16.867  0.00  0.00    +0.000 OA
ATOM      4  C   UNL     1       2.819   6.617  18.809  0.00  0.00    +0.000 A 
ATOM      5  C   UNL     1       2.314   7.778  19.385  0.00  0.00    +0.000 A 
ATOM      6  C   UNL     1       1.495   7.618  20.518  0.00  0.00    +0.000 A 
ATOM      7  C   UNL     1       1.194   6.348  21.055  0.00  0.00    +0.000 A 
ATOM      8  C   UNL     1       1.723   5.187  20.457  0.00  0.00    +0.000 A 
ATOM      9  C   UNL     1       1.537   3.847  20.843  0.00  0.00    +0.000 A 
ATOM     10  C   UNL     1       2.160   2.807  20.115  0.00  0.00    +0.000 A 
ATOM     11  C   UNL     1       2.982   3.063  18.995  0.00  0.00    +0.000 A 
ATOM     12  C   UNL     1       3.131   4.396  18.642  0.00  0.00    +0.000 A 
ATOM     13  C   UNL     1       2.514   5.389  19.365  0.00  0.00    +0.000 A 
ENDROOT
BRANCH   1  14
ATOM     14  C   UNL     1       4.638   4.360  16.605  0.00  0.00    +0.000 C 
BRANCH  14  15
ATOM     15  C   UNL     1       6.105   4.189  17.008  0.00  0.00    +0.000 C 
BRANCH  15  16
ATOM     16  C   UNL     1       7.009   5.328  16.519  0.00  0.00    +0.000 C 
BRANCH  16  18
ATOM     17  C   UNL     1       7.545   7.497  17.483  0.00  0.00    +0.000 C 
ATOM     18  N   UNL     1       7.699   6.047  17.605  0.00  0.00    +0.000 NA
ATOM     19  C   UNL     1       7.189   5.601  18.904  0.00  0.00    +0.000 C 
ENDBRANCH  16  18
ENDBRANCH  15  16
ENDBRANCH  14  15
ENDBRANCH   1  14
TORSDOF 4
ENDMDL
