MODEL 1
REMARK VINA RESULT:      -7.0      0.000      0.000
REMARK  Name = 
REMARK  3 active torsions:
REMARK  status: ('A' for Active; 'I' for Inactive)
REMARK    1  A    between atoms: C_1  and  C_2
REMARK    2  A    between atoms: N_4  and  C_5
REMARK    3  A    between atoms: C_9  and  C_10
REMARK                            x       y       z     vdW  Elec       q    Type
REMARK                         _______ _______ _______ _____ _____    ______ ____
ROOT
ATOM      1  C   UNL     1       3.148   5.315  19.414  0.00  0.00    +0.000 A 
ATOM      2  C   UNL     1       2.485   6.519  19.163  0.00  0.00    +0.000 A 
ATOM      3  C   UNL     1       2.940   7.387  18.172  0.00  0.00    +0.000 A 
ATOM      4  C   UNL     1       4.057   7.057  17.410  0.00  0.00    +0.000 A 
ATOM      5  C   UNL     1       4.744   5.858  17.643  0.00  0.00    +0.000 A 
ATOM      6  C   UNL     1       4.291   5.001  18.663  0.00  0.00    +0.000 A 
ENDROOT
BRANCH   5   7
ATOM      7  C   UNL     1       5.890   5.512  16.812  0.00  0.00    +0.000 A 
ATOM      8  N   UNL     1       6.880   4.648  17.234  0.00  0.00    +0.000 NA
ATOM      9  N   UNL     1       7.774   4.580  16.260  0.00  0.00    +0.000 NA
ATOM     10  N   UNL     1       7.296   5.388  15.309  0.00  0.00    +0.000 N 
ATOM     11  N   UNL     1       6.129   5.996  15.580  0.00  0.00    +0.000 NA
ATOM     12  H   UNL     1       7.795   5.532  14.436  0.00  0.00    +0.000 HD
ENDBRANCH   5   7
BRANCH   1  16
ATOM     13  C   UNL     1       1.414   2.738  21.559  0.00  0.00    +0.000 C 
ATOM     14  C   UNL     1       1.670   3.502  20.286  0.00  0.00    +0.000 C 
ATOM     15  O   UNL     1       0.980   3.303  19.292  0.00  0.00    +0.000 OA
ATOM     16  N   UNL     1       2.722   4.397  20.401  0.00  0.00    +0.000 N 
ATOM     17  H   UNL     1       3.295   4.333  21.233  0.00  0.00    +0.000 HD
ENDBRANCH   1  16
TORSDOF 2
ENDMDL
MODEL 2
REMARK VINA RESULT:      -6.9      2.187      3.031
REMARK  Name = 
REMARK  3 active torsions:
REMARK  status: ('A' for Active; 'I' for Inactive)
REMARK    1  A    between atoms: C_1  and  C_2
REMARK    2  A    between atoms: N_4  and  C_5
REMARK    3  A    between atoms: C_9  and  C_10
REMARK                            x       y       z     vdW  Elec       q    Type
REMARK                         _______ _______ _______ _____ _____    ______ ____
ROOT
ATOM      1  C   UNL     1       2.555   5.535  19.309  0.00  0.00    +0.000 A 
ATOM      2  C   UNL     1       1.715   4.706  18.561  0.00  0.00    +0.000 A 
ATOM      3  C   UNL     1       2.236   3.857  17.587  0.00  0.00    +0.000 A 
ATOM      4  C   UNL     1       3.609   3.818  17.356  0.00  0.00    +0.000 A 
ATOM      5  C   UNL     1       4.475   4.641  18.087  0.00  0.00    +0.000 A 
ATOM      6  C   UNL     1       3.934   5.513  19.050  0.00  0.00    +0.000 A 
ENDROOT
BRANCH   5   7
ATOM      7  C   UNL     1       5.912   4.559  17.856  0.00  0.00    +0.000 A 
ATOM      8  N   UNL     1       6.457   4.493  16.591  0.00  0.00    +0.000 NA
ATOM      9  N   UNL     1       7.769   4.397  16.741  0.00  0.00    +0.000 NA
ATOM     10  N   UNL     1       7.957   4.410  18.064  0.00  0.00    +0.000 N 
ATOM     11  N   UNL     1       6.850   4.513  18.818  0.00  0.00    +0.000 NA
ATOM     12  H   UNL     1       8.887   4.341  18.468  0.00  0.00    +0.000 HD
ENDBRANCH   5   7
BRANCH   1  16
ATOM     13  C   UNL     1       1.407   8.420  21.455  0.00  0.00    +0.000 C 
ATOM     14  C   UNL     1       1.806   7.757  20.162  0.00  0.00    +0.000 C 
ATOM     15  O   UNL     1       1.867   8.408  19.125  0.00  0.00    +0.000 OA
ATOM     16  N   UNL     1       2.076   6.407  20.313  0.00  0.00    +0.000 N 
ATOM     17  H   UNL     1       1.827   5.981  21.197  0.00  0.00    +0.000 HD
ENDBRANCH   1  16
TORSDOF 2
ENDMDL
MODEL 3
REMARK VINA RESULT:      -6.8      2.159      2.439
REMARK  Name = 
REMARK  3 active torsions:
REMARK  status: ('A' for Active; 'I' for Inactive)
REMARK    1  A    between atoms: C_1  and  C_2
REMARK    2  A    between atoms: N_4  and  C_5
REMARK    3  A    between atoms: C_9  and  C_10
REMARK                            x       y       z     vdW  Elec       q    Type
REMARK                         _______ _______ _______ _____ _____    ______ ____
ROOT
ATOM      1  C   UNL     1       4.183   3.833  18.414  0.00  0.00    +0.000 A 
ATOM      2  C   UNL     1       4.758   4.628  19.408  0.00  0.00    +0.000 A 
ATOM      3  C   UNL     1       5.878   5.410  19.134  0.00  0.00    +0.000 A 
ATOM      4  C   UNL     1       6.432   5.415  17.857  0.00  0.00    +0.000 A 
ATOM      5  C   UNL     1       5.880   4.624  16.841  0.00  0.00    +0.000 A 
ATOM      6  C   UNL     1       4.764   3.819  17.137  0.00  0.00    +0.000 A 
ENDROOT
BRANCH   5   7
ATOM      7  C   UNL     1       6.452   4.670  15.501  0.00  0.00    +0.000 A 
ATOM      8  N   UNL     1       7.486   5.519  15.165  0.00  0.00    +0.000 NA
ATOM      9  N   UNL     1       7.738   5.330  13.879  0.00  0.00    +0.000 NA
ATOM     10  N   UNL     1       6.863   4.393  13.501  0.00  0.00    +0.000 N 
ATOM     11  N   UNL     1       6.038   3.934  14.455  0.00  0.00    +0.000 NA
ATOM     12  H   UNL     1       6.829   4.056  12.543  0.00  0.00    +0.000 HD
ENDBRANCH   5   7
BRANCH   1  16
ATOM     13  C   UNL     1       0.749   2.294  18.707  0.00  0.00    +0.000 C 
ATOM     14  C   UNL     1       1.753   3.302  18.211  0.00  0.00    +0.000 C 
ATOM     15  O   UNL     1       1.395   4.241  17.509  0.00  0.00    +0.000 OA
ATOM     16  N   UNL     1       3.042   3.030  18.639  0.00  0.00    +0.000 N 
ATOM     17  H   UNL     1       3.203   2.133  19.080  0.00  0.00    +0.000 HD
ENDBRANCH   1  16
TORSDOF 2
ENDMDL
MODEL 4
REMARK VINA RESULT:      -6.8      0.735      1.214
REMARK  Name = 
REMARK  3 active torsions:
REMARK  status: ('A' for Active; 'I' for Inactive)
REMARK    1  A    between atoms: C_1  and  C_2
REMARK    2  A    between atoms: N_4  and  C_5
REMARK    3  A    between atoms: C_9  and  C_10
REMARK                            x       y       z     vdW  Elec       q    Type
REMARK                         _______ _______ _______ _____ _____    ______ ____
ROOT
ATOM      1  C   UNL     1       3.045   5.294  19.611  0.00  0.00    +0.000 A 
ATOM      2  C   UNL     1       2.450   6.433  19.063  0.00  0.00    +0.000 A 
ATOM      3  C   UNL     1       3.079   7.141  18.040  0.00  0.00    +0.000 A 
ATOM      4  C   UNL     1       4.307   6.711  17.544  0.00  0.00    +0.000 A 
ATOM      5  C   UNL     1       4.929   5.575  18.078  0.00  0.00    +0.000 A 
ATOM      6  C   UNL     1       4.296   4.884  19.128  0.00  0.00    +0.000 A 
ENDROOT
BRANCH   5   7
ATOM      7  C   UNL     1       6.196   5.120  17.521  0.00  0.00    +0.000 A 
ATOM      8  N   UNL     1       6.499   5.229  16.180  0.00  0.00    +0.000 NA
ATOM      9  N   UNL     1       7.700   4.698  16.010  0.00  0.00    +0.000 NA
ATOM     10  N   UNL     1       8.064   4.298  17.232  0.00  0.00    +0.000 N 
ATOM     11  N   UNL     1       7.184   4.532  18.219  0.00  0.00    +0.000 NA
ATOM     12  H   UNL     1       8.957   3.842  17.396  0.00  0.00    +0.000 HD
ENDBRANCH   5   7
BRANCH   1  16
ATOM     13  C   UNL     1       1.365   2.727  21.811  0.00  0.00    +0.000 C 
ATOM     14  C   UNL     1       2.074   3.204  20.570  0.00  0.00    +0.000 C 
ATOM     15  O   UNL     1       2.266   2.438  19.632  0.00  0.00    +0.000 OA
ATOM     16  N   UNL     1       2.444   4.537  20.643  0.00  0.00    +0.000 N 
ATOM     17  H   UNL     1       2.358   4.993  21.543  0.00  0.00    +0.000 HD
ENDBRANCH   1  16
TORSDOF 2
ENDMDL
MODEL 5
REMARK VINA RESULT:      -6.7      0.813      1.262
REMARK  Name = 
REMARK  3 active torsions:
REMARK  status: ('A' for Active; 'I' for Inactive)
REMARK    1  A    between atoms: C_1  and  C_2
REMARK    2  A    between atoms: N_4  and  C_5
REMARK    3  A    between atoms: C_9  and  C_10
REMARK                            x       y       z     vdW  Elec       q    Type
REMARK                         _______ _______ _______ _____ _____    ______ ____
ROOT
ATOM      1  C   UNL     1       2.909   5.573  18.712  0.00  0.00    +0.000 A 
ATOM      2  C   UNL     1       2.498   6.894  18.520  0.00  0.00    +0.000 A 
ATOM      3  C   UNL     1       3.230   7.756  17.705  0.00  0.00    +0.000 A 
ATOM      4  C   UNL     1       4.379   7.302  17.061  0.00  0.00    +0.000 A 
ATOM      5  C   UNL     1       4.818   5.984  17.240  0.00  0.00    +0.000 A 
ATOM      6  C   UNL     1       4.084   5.131  18.085  0.00  0.00    +0.000 A 
ENDROOT
BRANCH   5   7
ATOM      7  C   UNL     1       6.001   5.517  16.529  0.00  0.00    +0.000 A 
ATOM      8  N   UNL     1       6.280   5.885  15.229  0.00  0.00    +0.000 NA
ATOM      9  N   UNL     1       7.398   5.267  14.884  0.00  0.00    +0.000 NA
ATOM     10  N   UNL     1       7.742   4.566  15.968  0.00  0.00    +0.000 N 
ATOM     11  N   UNL     1       6.925   4.676  17.028  0.00  0.00    +0.000 NA
ATOM     12  H   UNL     1       8.573   3.982  15.980  0.00  0.00    +0.000 HD
ENDBRANCH   5   7
BRANCH   1  16
ATOM     13  C   UNL     1       0.660   2.932  20.200  0.00  0.00    +0.000 C 
ATOM     14  C   UNL     1       1.339   3.667  19.074  0.00  0.00    +0.000 C 
ATOM     15  O   UNL     1       1.107   3.367  17.908  0.00  0.00    +0.000 OA
ATOM     16  N   UNL     1       2.197   4.659  19.521  0.00  0.00    +0.000 N 
ATOM     17  H   UNL     1       2.402   4.680  20.512  0.00  0.00    +0.000 HD
ENDBRANCH   1  16
TORSDOF 2
ENDMDL
MODEL 6
REMARK VINA RESULT:      -6.7      2.265      2.668
REMARK  Name = 
REMARK  3 active torsions:
REMARK  status: ('A' for Active; 'I' for Inactive)
REMARK    1  A    between atoms: C_1  and  C_2
REMARK    2  A    between atoms: N_4  and  C_5
REMARK    3  A    between atoms: C_9  and  C_10
REMARK                            x       y       z     vdW  Elec       q    Type
REMARK                         _______ _______ _______ _____ _____    ______ ____
ROOT
ATOM      1  C   UNL     1       4.295   4.257  18.268  0.00  0.00    +0.000 A 
ATOM      2  C   UNL     1       5.120   4.765  19.274  0.00  0.00    +0.000 A 
ATOM      3  C   UNL     1       6.394   5.245  18.976  0.00  0.00    +0.000 A 
ATOM      4  C   UNL     1       6.856   5.233  17.662  0.00  0.00    +0.000 A 
ATOM      5  C   UNL     1       6.052   4.725  16.633  0.00  0.00    +0.000 A 
ATOM      6  C   UNL     1       4.778   4.220  16.951  0.00  0.00    +0.000 A 
ENDROOT
BRANCH   5   7
ATOM      7  C   UNL     1       6.538   4.755  15.259  0.00  0.00    +0.000 A 
ATOM      8  N   UNL     1       6.046   3.917  14.280  0.00  0.00    +0.000 NA
ATOM      9  N   UNL     1       6.718   4.182  13.171  0.00  0.00    +0.000 NA
ATOM     10  N   UNL     1       7.572   5.150  13.520  0.00  0.00    +0.000 N 
ATOM     11  N   UNL     1       7.513   5.558  14.798  0.00  0.00    +0.000 NA
ATOM     12  H   UNL     1       8.226   5.546  12.851  0.00  0.00    +0.000 HD
ENDBRANCH   5   7
BRANCH   1  16
ATOM     13  C   UNL     1       1.138   2.252  18.778  0.00  0.00    +0.000 C 
ATOM     14  C   UNL     1       2.624   2.435  18.603  0.00  0.00    +0.000 C 
ATOM     15  O   UNL     1       3.366   1.461  18.545  0.00  0.00    +0.000 OA
ATOM     16  N   UNL     1       2.994   3.767  18.519  0.00  0.00    +0.000 N 
ATOM     17  H   UNL     1       2.288   4.458  18.742  0.00  0.00    +0.000 HD
ENDBRANCH   1  16
TORSDOF 2
ENDMDL
MODEL 7
REMARK VINA RESULT:      -6.7      1.266      1.444
REMARK  Name = 
REMARK  3 active torsions:
REMARK  status: ('A' for Active; 'I' for Inactive)
REMARK    1  A    between atoms: C_1  and  C_2
REMARK    2  A    between atoms: N_4  and  C_5
REMARK    3  A    between atoms: C_9  and  C_10
REMARK                            x       y       z     vdW  Elec       q    Type
REMARK                         _______ _______ _______ _____ _____    ______ ____
ROOT
ATOM      1  C   UNL     1       2.823   5.268  18.259  0.00  0.00    +0.000 A 
ATOM      2  C   UNL     1       2.536   6.627  18.410  0.00  0.00    +0.000 A 
ATOM      3  C   UNL     1       3.305   7.593  17.764  0.00  0.00    +0.000 A 
ATOM      4  C   UNL     1       4.365   7.211  16.946  0.00  0.00    +0.000 A 
ATOM      5  C   UNL     1       4.679   5.856  16.779  0.00  0.00    +0.000 A 
ATOM      6  C   UNL     1       3.912   4.891  17.458  0.00  0.00    +0.000 A 
ENDROOT
BRANCH   5   7
ATOM      7  C   UNL     1       5.769   5.473  15.890  0.00  0.00    +0.000 A 
ATOM      8  N   UNL     1       5.596   4.601  14.836  0.00  0.00    +0.000 NA
ATOM      9  N   UNL     1       6.778   4.449  14.261  0.00  0.00    +0.000 NA
ATOM     10  N   UNL     1       7.600   5.222  14.978  0.00  0.00    +0.000 N 
ATOM     11  N   UNL     1       7.042   5.891  16.000  0.00  0.00    +0.000 NA
ATOM     12  H   UNL     1       8.589   5.291  14.757  0.00  0.00    +0.000 HD
ENDBRANCH   5   7
BRANCH   1  16
ATOM     13  C   UNL     1       1.153   2.813  20.589  0.00  0.00    +0.000 C 
ATOM     14  C   UNL     1       1.947   4.048  20.252  0.00  0.00    +0.000 C 
ATOM     15  O   UNL     1       2.410   4.751  21.144  0.00  0.00    +0.000 OA
ATOM     16  N   UNL     1       2.069   4.252  18.887  0.00  0.00    +0.000 N 
ATOM     17  H   UNL     1       1.499   3.675  18.281  0.00  0.00    +0.000 HD
ENDBRANCH   1  16
TORSDOF 2
ENDMDL
MODEL 8
REMARK VINA RESULT:      -6.7      2.409      2.925
REMARK  Name = 
REMARK  3 active torsions:
REMARK  status: ('A' for Active; 'I' for Inactive)
REMARK    1  A    between atoms: C_1  and  C_2
REMARK    2  A    between atoms: N_4  and  C_5
REMARK    3  A    between atoms: C_9  and  C_10
REMARK                            x       y       z     vdW  Elec       q    Type
REMARK                         _______ _______ _______ _____ _____    ______ ____
ROOT
ATOM      1  C   UNL     1       4.495   4.273  17.947  0.00  0.00    +0.000 A 
ATOM      2  C   UNL     1       5.379   4.721  18.932  0.00  0.00    +0.000 A 
ATOM      3  C   UNL     1       6.672   5.120  18.600  0.00  0.00    +0.000 A 
ATOM      4  C   UNL     1       7.095   5.087  17.274  0.00  0.00    +0.000 A 
ATOM      5  C   UNL     1       6.233   4.638  16.265  0.00  0.00    +0.000 A 
ATOM      6  C   UNL     1       4.938   4.213  16.617  0.00  0.00    +0.000 A 
ENDROOT
BRANCH   5   7
ATOM      7  C   UNL     1       6.681   4.645  14.879  0.00  0.00    +0.000 A 
ATOM      8  N   UNL     1       7.676   5.485  14.425  0.00  0.00    +0.000 NA
ATOM      9  N   UNL     1       7.812   5.258  13.128  0.00  0.00    +0.000 NA
ATOM     10  N   UNL     1       6.912   4.308  12.858  0.00  0.00    +0.000 N 
ATOM     11  N   UNL     1       6.178   3.876  13.897  0.00  0.00    +0.000 NA
ATOM     12  H   UNL     1       6.793   3.941  11.918  0.00  0.00    +0.000 HD
ENDBRANCH   5   7
BRANCH   1  16
ATOM     13  C   UNL     1       1.251   2.464  18.616  0.00  0.00    +0.000 C 
ATOM     14  C   UNL     1       2.743   2.564  18.436  0.00  0.00    +0.000 C 
ATOM     15  O   UNL     1       3.442   1.557  18.474  0.00  0.00    +0.000 OA
ATOM     16  N   UNL     1       3.173   3.866  18.233  0.00  0.00    +0.000 N 
ATOM     17  H   UNL     1       2.498   4.604  18.386  0.00  0.00    +0.000 HD
ENDBRANCH   1  16
TORSDOF 2
ENDMDL
MODEL 9
REMARK VINA RESULT:      -6.6      3.150      5.833
REMARK  Name = 
REMARK  3 active torsions:
REMARK  status: ('A' for Active; 'I' for Inactive)
REMARK    1  A    between atoms: C_1  and  C_2
REMARK    2  A    between atoms: N_4  and  C_5
REMARK    3  A    between atoms: C_9  and  C_10
REMARK                            x       y       z     vdW  Elec       q    Type
REMARK                         _______ _______ _______ _____ _____    ______ ____
ROOT
ATOM      1  C   UNL     1       6.287   6.096  16.591  0.00  0.00    +0.000 A 
ATOM      2  C   UNL     1       6.799   5.155  15.694  0.00  0.00    +0.000 A 
ATOM      3  C   UNL     1       6.135   3.950  15.470  0.00  0.00    +0.000 A 
ATOM      4  C   UNL     1       4.941   3.676  16.132  0.00  0.00    +0.000 A 
ATOM      5  C   UNL     1       4.406   4.599  17.040  0.00  0.00    +0.000 A 
ATOM      6  C   UNL     1       5.099   5.800  17.277  0.00  0.00    +0.000 A 
ENDROOT
BRANCH   5   7
ATOM      7  C   UNL     1       3.137   4.310  17.696  0.00  0.00    +0.000 A 
ATOM      8  N   UNL     1       2.807   4.823  18.933  0.00  0.00    +0.000 NA
ATOM      9  N   UNL     1       1.613   4.344  19.245  0.00  0.00    +0.000 NA
ATOM     10  N   UNL     1       1.278   3.577  18.202  0.00  0.00    +0.000 N 
ATOM     11  N   UNL     1       2.173   3.513  17.203  0.00  0.00    +0.000 NA
ATOM     12  H   UNL     1       0.397   3.072  18.178  0.00  0.00    +0.000 HD
ENDBRANCH   5   7
BRANCH   1  16
ATOM     13  C   UNL     1       8.194   9.060  17.940  0.00  0.00    +0.000 C 
ATOM     14  C   UNL     1       7.776   7.613  17.897  0.00  0.00    +0.000 C 
ATOM     15  O   UNL     1       8.189   6.822  18.739  0.00  0.00    +0.000 OA
ATOM     16  N   UNL     1       6.918   7.334  16.846  0.00  0.00    +0.000 N 
ATOM     17  H   UNL     1       6.795   8.054  16.145  0.00  0.00    +0.000 HD
ENDBRANCH   1  16
TORSDOF 2
ENDMDL
