MODEL 1
REMARK VINA RESULT:      -7.4      0.000      0.000
REMARK  Name = 
REMARK  9 active torsions:
REMARK  status: ('A' for Active; 'I' for Inactive)
REMARK    1  A    between atoms: C_1  and  O_2
REMARK    2  A    between atoms: O_2  and  C_3
REMARK    3  A    between atoms: C_5  and  C_6
REMARK    4  A    between atoms: C_6  and  C_7
REMARK    5  A    between atoms: C_7  and  C_8
REMARK    6  A    between atoms: C_11  and  N_12
REMARK    7  A    between atoms: C_18  and  O_19
REMARK    8  A    between atoms: O_19  and  C_20
REMARK    9  A    between atoms: C_21  and  O_22
REMARK                            x       y       z     vdW  Elec       q    Type
REMARK                         _______ _______ _______ _____ _____    ______ ____
ROOT
ATOM      1  C   UNL     1       6.040   6.298  17.552  0.00  0.00    +0.000 A 
ATOM      2  C   UNL     1       4.733   6.791  17.391  0.00  0.00    +0.000 A 
ATOM      3  C   UNL     1       3.638   6.164  17.990  0.00  0.00    +0.000 A 
ATOM      4  C   UNL     1       3.871   4.998  18.727  0.00  0.00    +0.000 A 
ATOM      5  C   UNL     1       5.165   4.471  18.903  0.00  0.00    +0.000 A 
ATOM      6  C   UNL     1       6.257   5.140  18.323  0.00  0.00    +0.000 A 
ENDROOT
BRANCH   1   8
ATOM      7  C   UNL     1       7.687   8.054  17.605  0.00  0.00    +0.000 C 
ATOM      8  O   UNL     1       6.960   7.069  16.886  0.00  0.00    +0.000 OA
ENDBRANCH   1   8
BRANCH   5   9
ATOM      9  O   UNL     1       5.135   3.345  19.679  0.00  0.00    +0.000 OA
ATOM     10  C   UNL     1       4.213   2.297  19.442  0.00  0.00    +0.000 C 
ENDBRANCH   5   9
BRANCH   6  11
ATOM     11  O   UNL     1       7.543   4.715  18.514  0.00  0.00    +0.000 OA
ATOM     12  H   UNL     1       8.116   5.493  18.497  0.00  0.00    +0.000 HD
ENDBRANCH   6  11
BRANCH   3  13
ATOM     13  C   UNL     1       2.247   6.743  17.864  0.00  0.00    +0.000 C 
BRANCH  13  14
ATOM     14  C   UNL     1       2.220   8.273  17.959  0.00  0.00    +0.000 C 
BRANCH  14  15
ATOM     15  C   UNL     1       1.581   8.762  19.244  0.00  0.00    +0.000 A 
ATOM     16  C   UNL     1       1.697   8.006  20.422  0.00  0.00    +0.000 A 
ATOM     17  C   UNL     1       1.109   8.447  21.612  0.00  0.00    +0.000 A 
ATOM     18  C   UNL     1       0.394   9.648  21.630  0.00  0.00    +0.000 A 
ATOM     19  C   UNL     1       0.267  10.412  20.462  0.00  0.00    +0.000 A 
ATOM     20  C   UNL     1       0.860   9.964  19.274  0.00  0.00    +0.000 A 
BRANCH  18  21
ATOM     21  N   UNL     1      -0.227  10.110  22.876  0.00  0.00    +0.000 N 
ATOM     22  O   UNL     1       0.271   9.723  23.948  0.00  0.00    +0.000 OA
ATOM     23  O   UNL     1      -1.210  10.859  22.794  0.00  0.00    +0.000 OA
ENDBRANCH  18  21
ENDBRANCH  14  15
ENDBRANCH  13  14
ENDBRANCH   3  13
TORSDOF 7
ENDMDL
MODEL 2
REMARK VINA RESULT:      -7.4      3.806      4.785
REMARK  Name = 
REMARK  9 active torsions:
REMARK  status: ('A' for Active; 'I' for Inactive)
REMARK    1  A    between atoms: C_1  and  O_2
REMARK    2  A    between atoms: O_2  and  C_3
REMARK    3  A    between atoms: C_5  and  C_6
REMARK    4  A    between atoms: C_6  and  C_7
REMARK    5  A    between atoms: C_7  and  C_8
REMARK    6  A    between atoms: C_11  and  N_12
REMARK    7  A    between atoms: C_18  and  O_19
REMARK    8  A    between atoms: O_19  and  C_20
REMARK    9  A    between atoms: C_21  and  O_22
REMARK                            x       y       z     vdW  Elec       q    Type
REMARK                         _______ _______ _______ _____ _____    ______ ____
ROOT
ATOM      1  C   UNL     1       6.586   5.281  18.301  0.00  0.00    +0.000 A 
ATOM      2  C   UNL     1       5.477   6.127  18.476  0.00  0.00    +0.000 A 
ATOM      3  C   UNL     1       4.768   6.636  17.385  0.00  0.00    +0.000 A 
ATOM      4  C   UNL     1       5.219   6.313  16.101  0.00  0.00    +0.000 A 
ATOM      5  C   UNL     1       6.330   5.474  15.887  0.00  0.00    +0.000 A 
ATOM      6  C   UNL     1       7.006   4.943  16.999  0.00  0.00    +0.000 A 
ENDROOT
BRANCH   1   8
ATOM      7  C   UNL     1       8.246   5.598  20.015  0.00  0.00    +0.000 C 
ATOM      8  O   UNL     1       7.125   4.894  19.502  0.00  0.00    +0.000 OA
ENDBRANCH   1   8
BRANCH   5   9
ATOM      9  O   UNL     1       6.556   5.290  14.550  0.00  0.00    +0.000 OA
ATOM     10  C   UNL     1       6.201   4.090  13.890  0.00  0.00    +0.000 C 
ENDBRANCH   5   9
BRANCH   6  11
ATOM     11  O   UNL     1       8.049   4.071  16.857  0.00  0.00    +0.000 OA
ATOM     12  H   UNL     1       8.816   4.451  17.304  0.00  0.00    +0.000 HD
ENDBRANCH   6  11
BRANCH   3  13
ATOM     13  C   UNL     1       3.538   7.490  17.589  0.00  0.00    +0.000 C 
BRANCH  13  14
ATOM     14  C   UNL     1       2.235   6.682  17.584  0.00  0.00    +0.000 C 
BRANCH  14  15
ATOM     15  C   UNL     1       2.211   5.618  18.664  0.00  0.00    +0.000 A 
ATOM     16  C   UNL     1       2.172   5.985  20.018  0.00  0.00    +0.000 A 
ATOM     17  C   UNL     1       2.152   5.011  21.021  0.00  0.00    +0.000 A 
ATOM     18  C   UNL     1       2.178   3.657  20.674  0.00  0.00    +0.000 A 
ATOM     19  C   UNL     1       2.220   3.274  19.327  0.00  0.00    +0.000 A 
ATOM     20  C   UNL     1       2.239   4.256  18.328  0.00  0.00    +0.000 A 
BRANCH  18  21
ATOM     21  N   UNL     1       2.162   2.633  21.724  0.00  0.00    +0.000 N 
ATOM     22  O   UNL     1       3.226   2.030  21.960  0.00  0.00    +0.000 OA
ATOM     23  O   UNL     1       1.096   2.423  22.318  0.00  0.00    +0.000 OA
ENDBRANCH  18  21
ENDBRANCH  14  15
ENDBRANCH  13  14
ENDBRANCH   3  13
TORSDOF 7
ENDMDL
MODEL 3
REMARK VINA RESULT:      -7.4      3.786      4.762
REMARK  Name = 
REMARK  9 active torsions:
REMARK  status: ('A' for Active; 'I' for Inactive)
REMARK    1  A    between atoms: C_1  and  O_2
REMARK    2  A    between atoms: O_2  and  C_3
REMARK    3  A    between atoms: C_5  and  C_6
REMARK    4  A    between atoms: C_6  and  C_7
REMARK    5  A    between atoms: C_7  and  C_8
REMARK    6  A    between atoms: C_11  and  N_12
REMARK    7  A    between atoms: C_18  and  O_19
REMARK    8  A    between atoms: O_19  and  C_20
REMARK    9  A    between atoms: C_21  and  O_22
REMARK                            x       y       z     vdW  Elec       q    Type
REMARK                         _______ _______ _______ _____ _____    ______ ____
ROOT
ATOM      1  C   UNL     1       6.508   5.301  18.264  0.00  0.00    +0.000 A 
ATOM      2  C   UNL     1       5.407   6.157  18.440  0.00  0.00    +0.000 A 
ATOM      3  C   UNL     1       4.703   6.675  17.351  0.00  0.00    +0.000 A 
ATOM      4  C   UNL     1       5.151   6.351  16.066  0.00  0.00    +0.000 A 
ATOM      5  C   UNL     1       6.254   5.502  15.851  0.00  0.00    +0.000 A 
ATOM      6  C   UNL     1       6.924   4.962  16.962  0.00  0.00    +0.000 A 
ENDROOT
BRANCH   1   8
ATOM      7  C   UNL     1       8.194   5.573  19.960  0.00  0.00    +0.000 C 
ATOM      8  O   UNL     1       7.043   4.906  19.465  0.00  0.00    +0.000 OA
ENDBRANCH   1   8
BRANCH   5   9
ATOM      9  O   UNL     1       6.479   5.319  14.513  0.00  0.00    +0.000 OA
ATOM     10  C   UNL     1       6.228   4.081  13.875  0.00  0.00    +0.000 C 
ENDBRANCH   5   9
BRANCH   6  11
ATOM     11  O   UNL     1       7.959   4.080  16.818  0.00  0.00    +0.000 OA
ATOM     12  H   UNL     1       8.631   4.500  16.265  0.00  0.00    +0.000 HD
ENDBRANCH   6  11
BRANCH   3  13
ATOM     13  C   UNL     1       3.481   7.541  17.557  0.00  0.00    +0.000 C 
BRANCH  13  14
ATOM     14  C   UNL     1       2.173   6.740  17.590  0.00  0.00    +0.000 C 
BRANCH  14  15
ATOM     15  C   UNL     1       2.173   5.678  18.672  0.00  0.00    +0.000 A 
ATOM     16  C   UNL     1       2.184   4.318  18.327  0.00  0.00    +0.000 A 
ATOM     17  C   UNL     1       2.181   3.331  19.318  0.00  0.00    +0.000 A 
ATOM     18  C   UNL     1       2.161   3.701  20.665  0.00  0.00    +0.000 A 
ATOM     19  C   UNL     1       2.147   5.055  21.027  0.00  0.00    +0.000 A 
ATOM     20  C   UNL     1       2.151   6.037  20.028  0.00  0.00    +0.000 A 
BRANCH  18  21
ATOM     21  N   UNL     1       2.154   2.668  21.707  0.00  0.00    +0.000 N 
ATOM     22  O   UNL     1       1.074   2.433  22.280  0.00  0.00    +0.000 OA
ATOM     23  O   UNL     1       3.218   2.086  21.959  0.00  0.00    +0.000 OA
ENDBRANCH  18  21
ENDBRANCH  14  15
ENDBRANCH  13  14
ENDBRANCH   3  13
TORSDOF 7
ENDMDL
MODEL 4
REMARK VINA RESULT:      -7.2      1.346      2.327
REMARK  Name = 
REMARK  9 active torsions:
REMARK  status: ('A' for Active; 'I' for Inactive)
REMARK    1  A    between atoms: C_1  and  O_2
REMARK    2  A    between atoms: O_2  and  C_3
REMARK    3  A    between atoms: C_5  and  C_6
REMARK    4  A    between atoms: C_6  and  C_7
REMARK    5  A    between atoms: C_7  and  C_8
REMARK    6  A    between atoms: C_11  and  N_12
REMARK    7  A    between atoms: C_18  and  O_19
REMARK    8  A    between atoms: O_19  and  C_20
REMARK    9  A    between atoms: C_21  and  O_22
REMARK                            x       y       z     vdW  Elec       q    Type
REMARK                         _______ _______ _______ _____ _____    ______ ____
ROOT
ATOM      1  C   UNL     1       5.033   4.063  18.771  0.00  0.00    +0.000 A 
ATOM      2  C   UNL     1       4.267   5.098  18.208  0.00  0.00    +0.000 A 
ATOM      3  C   UNL     1       2.886   5.173  18.402  0.00  0.00    +0.000 A 
ATOM      4  C   UNL     1       2.271   4.158  19.144  0.00  0.00    +0.000 A 
ATOM      5  C   UNL     1       3.005   3.101  19.716  0.00  0.00    +0.000 A 
ATOM      6  C   UNL     1       4.399   3.067  19.540  0.00  0.00    +0.000 A 
ENDROOT
BRANCH   1   8
ATOM      7  C   UNL     1       6.745   5.017  17.373  0.00  0.00    +0.000 C 
ATOM      8  O   UNL     1       6.364   4.188  18.461  0.00  0.00    +0.000 OA
ENDBRANCH   1   8
BRANCH   5   9
ATOM      9  O   UNL     1       2.186   2.254  20.410  0.00  0.00    +0.000 OA
ATOM     10  C   UNL     1       1.532   2.652  21.601  0.00  0.00    +0.000 C 
ENDBRANCH   5   9
BRANCH   6  11
ATOM     11  O   UNL     1       5.174   2.105  20.126  0.00  0.00    +0.000 OA
ATOM     12  H   UNL     1       4.612   1.340  20.304  0.00  0.00    +0.000 HD
ENDBRANCH   6  11
BRANCH   3  13
ATOM     13  C   UNL     1       2.085   6.328  17.847  0.00  0.00    +0.000 C 
BRANCH  13  14
ATOM     14  C   UNL     1       2.682   7.697  18.193  0.00  0.00    +0.000 C 
BRANCH  14  15
ATOM     15  C   UNL     1       1.868   8.435  19.238  0.00  0.00    +0.000 A 
ATOM     16  C   UNL     1       1.254   9.658  18.922  0.00  0.00    +0.000 A 
ATOM     17  C   UNL     1       0.504  10.347  19.880  0.00  0.00    +0.000 A 
ATOM     18  C   UNL     1       0.367   9.819  21.166  0.00  0.00    +0.000 A 
ATOM     19  C   UNL     1       0.976   8.601  21.498  0.00  0.00    +0.000 A 
ATOM     20  C   UNL     1       1.725   7.916  20.533  0.00  0.00    +0.000 A 
BRANCH  18  21
ATOM     21  N   UNL     1      -0.416  10.542  22.174  0.00  0.00    +0.000 N 
ATOM     22  O   UNL     1      -0.131  10.354  23.371  0.00  0.00    +0.000 OA
ATOM     23  O   UNL     1      -1.315  11.298  21.782  0.00  0.00    +0.000 OA
ENDBRANCH  18  21
ENDBRANCH  14  15
ENDBRANCH  13  14
ENDBRANCH   3  13
TORSDOF 7
ENDMDL
MODEL 5
REMARK VINA RESULT:      -7.2      1.294      3.253
REMARK  Name = 
REMARK  9 active torsions:
REMARK  status: ('A' for Active; 'I' for Inactive)
REMARK    1  A    between atoms: C_1  and  O_2
REMARK    2  A    between atoms: O_2  and  C_3
REMARK    3  A    between atoms: C_5  and  C_6
REMARK    4  A    between atoms: C_6  and  C_7
REMARK    5  A    between atoms: C_7  and  C_8
REMARK    6  A    between atoms: C_11  and  N_12
REMARK    7  A    between atoms: C_18  and  O_19
REMARK    8  A    between atoms: O_19  and  C_20
REMARK    9  A    between atoms: C_21  and  O_22
REMARK                            x       y       z     vdW  Elec       q    Type
REMARK                         _______ _______ _______ _____ _____    ______ ____
ROOT
ATOM      1  C   UNL     1       3.044   3.291  19.627  0.00  0.00    +0.000 A 
ATOM      2  C   UNL     1       2.303   4.344  19.062  0.00  0.00    +0.000 A 
ATOM      3  C   UNL     1       2.926   5.391  18.378  0.00  0.00    +0.000 A 
ATOM      4  C   UNL     1       4.323   5.387  18.303  0.00  0.00    +0.000 A 
ATOM      5  C   UNL     1       5.098   4.353  18.863  0.00  0.00    +0.000 A 
ATOM      6  C   UNL     1       4.448   3.291  19.514  0.00  0.00    +0.000 A 
ENDROOT
BRANCH   1   8
ATOM      7  C   UNL     1       1.767   2.633  21.558  0.00  0.00    +0.000 C 
ATOM      8  O   UNL     1       2.234   2.371  20.243  0.00  0.00    +0.000 OA
ENDBRANCH   1   8
BRANCH   5   9
ATOM      9  O   UNL     1       6.432   4.563  18.638  0.00  0.00    +0.000 OA
ATOM     10  C   UNL     1       7.161   5.557  19.334  0.00  0.00    +0.000 C 
ENDBRANCH   5   9
BRANCH   6  11
ATOM     11  O   UNL     1       5.142   2.225  20.018  0.00  0.00    +0.000 OA
ATOM     12  H   UNL     1       4.502   1.609  20.397  0.00  0.00    +0.000 HD
ENDBRANCH   6  11
BRANCH   3  13
ATOM     13  C   UNL     1       2.111   6.481  17.719  0.00  0.00    +0.000 C 
BRANCH  13  14
ATOM     14  C   UNL     1       2.634   7.890  18.022  0.00  0.00    +0.000 C 
BRANCH  14  15
ATOM     15  C   UNL     1       1.871   8.561  19.147  0.00  0.00    +0.000 A 
ATOM     16  C   UNL     1       1.778   7.944  20.404  0.00  0.00    +0.000 A 
ATOM     17  C   UNL     1       1.073   8.554  21.447  0.00  0.00    +0.000 A 
ATOM     18  C   UNL     1       0.451   9.787  21.236  0.00  0.00    +0.000 A 
ATOM     19  C   UNL     1       0.532  10.415  19.986  0.00  0.00    +0.000 A 
ATOM     20  C   UNL     1       1.240   9.797  18.947  0.00  0.00    +0.000 A 
BRANCH  18  21
ATOM     21  N   UNL     1      -0.293  10.426  22.328  0.00  0.00    +0.000 N 
ATOM     22  O   UNL     1      -1.188  11.234  22.021  0.00  0.00    +0.000 OA
ATOM     23  O   UNL     1       0.010  10.129  23.491  0.00  0.00    +0.000 OA
ENDBRANCH  18  21
ENDBRANCH  14  15
ENDBRANCH  13  14
ENDBRANCH   3  13
TORSDOF 7
ENDMDL
MODEL 6
REMARK VINA RESULT:      -7.0      1.543      3.170
REMARK  Name = 
REMARK  9 active torsions:
REMARK  status: ('A' for Active; 'I' for Inactive)
REMARK    1  A    between atoms: C_1  and  O_2
REMARK    2  A    between atoms: O_2  and  C_3
REMARK    3  A    between atoms: C_5  and  C_6
REMARK    4  A    between atoms: C_6  and  C_7
REMARK    5  A    between atoms: C_7  and  C_8
REMARK    6  A    between atoms: C_11  and  N_12
REMARK    7  A    between atoms: C_18  and  O_19
REMARK    8  A    between atoms: O_19  and  C_20
REMARK    9  A    between atoms: C_21  and  O_22
REMARK                            x       y       z     vdW  Elec       q    Type
REMARK                         _______ _______ _______ _____ _____    ______ ____
ROOT
ATOM      1  C   UNL     1       2.777   4.146  17.794  0.00  0.00    +0.000 A 
ATOM      2  C   UNL     1       2.533   5.530  17.812  0.00  0.00    +0.000 A 
ATOM      3  C   UNL     1       3.567   6.452  17.989  0.00  0.00    +0.000 A 
ATOM      4  C   UNL     1       4.859   5.957  18.192  0.00  0.00    +0.000 A 
ATOM      5  C   UNL     1       5.141   4.577  18.187  0.00  0.00    +0.000 A 
ATOM      6  C   UNL     1       4.090   3.669  17.970  0.00  0.00    +0.000 A 
ENDROOT
BRANCH   1   8
ATOM      7  C   UNL     1       0.993   2.819  18.716  0.00  0.00    +0.000 C 
ATOM      8  O   UNL     1       1.623   3.428  17.600  0.00  0.00    +0.000 OA
ENDBRANCH   1   8
BRANCH   5   9
ATOM      9  O   UNL     1       6.476   4.348  18.382  0.00  0.00    +0.000 OA
ATOM     10  C   UNL     1       7.432   4.585  17.366  0.00  0.00    +0.000 C 
ENDBRANCH   5   9
BRANCH   6  11
ATOM     11  O   UNL     1       4.310   2.322  17.888  0.00  0.00    +0.000 OA
ATOM     12  H   UNL     1       4.358   2.086  16.952  0.00  0.00    +0.000 HD
ENDBRANCH   6  11
BRANCH   3  13
ATOM     13  C   UNL     1       3.299   7.939  17.939  0.00  0.00    +0.000 C 
BRANCH  13  14
ATOM     14  C   UNL     1       1.812   8.279  17.780  0.00  0.00    +0.000 C 
BRANCH  14  15
ATOM     15  C   UNL     1       1.229   8.917  19.025  0.00  0.00    +0.000 A 
ATOM     16  C   UNL     1       0.407  10.051  18.919  0.00  0.00    +0.000 A 
ATOM     17  C   UNL     1      -0.134  10.648  20.062  0.00  0.00    +0.000 A 
ATOM     18  C   UNL     1       0.150  10.117  21.323  0.00  0.00    +0.000 A 
ATOM     19  C   UNL     1       0.971   8.988  21.446  0.00  0.00    +0.000 A 
ATOM     20  C   UNL     1       1.508   8.395  20.296  0.00  0.00    +0.000 A 
BRANCH  18  21
ATOM     21  N   UNL     1      -0.413  10.745  22.524  0.00  0.00    +0.000 N 
ATOM     22  O   UNL     1      -1.066  10.024  23.301  0.00  0.00    +0.000 OA
ATOM     23  O   UNL     1      -0.208  11.953  22.701  0.00  0.00    +0.000 OA
ENDBRANCH  18  21
ENDBRANCH  14  15
ENDBRANCH  13  14
ENDBRANCH   3  13
TORSDOF 7
ENDMDL
MODEL 7
REMARK VINA RESULT:      -7.0      1.229      3.240
REMARK  Name = 
REMARK  9 active torsions:
REMARK  status: ('A' for Active; 'I' for Inactive)
REMARK    1  A    between atoms: C_1  and  O_2
REMARK    2  A    between atoms: O_2  and  C_3
REMARK    3  A    between atoms: C_5  and  C_6
REMARK    4  A    between atoms: C_6  and  C_7
REMARK    5  A    between atoms: C_7  and  C_8
REMARK    6  A    between atoms: C_11  and  N_12
REMARK    7  A    between atoms: C_18  and  O_19
REMARK    8  A    between atoms: O_19  and  C_20
REMARK    9  A    between atoms: C_21  and  O_22
REMARK                            x       y       z     vdW  Elec       q    Type
REMARK                         _______ _______ _______ _____ _____    ______ ____
ROOT
ATOM      1  C   UNL     1       3.096   3.383  19.076  0.00  0.00    +0.000 A 
ATOM      2  C   UNL     1       2.306   4.439  18.590  0.00  0.00    +0.000 A 
ATOM      3  C   UNL     1       2.866   5.670  18.240  0.00  0.00    +0.000 A 
ATOM      4  C   UNL     1       4.242   5.841  18.427  0.00  0.00    +0.000 A 
ATOM      5  C   UNL     1       5.064   4.808  18.919  0.00  0.00    +0.000 A 
ATOM      6  C   UNL     1       4.484   3.566  19.228  0.00  0.00    +0.000 A 
ENDROOT
BRANCH   1   8
ATOM      7  C   UNL     1       1.040   2.162  18.797  0.00  0.00    +0.000 C 
ATOM      8  O   UNL     1       2.344   2.268  19.349  0.00  0.00    +0.000 OA
ENDBRANCH   1   8
BRANCH   5   9
ATOM      9  O   UNL     1       6.370   5.211  18.988  0.00  0.00    +0.000 OA
ATOM     10  C   UNL     1       7.318   4.850  18.002  0.00  0.00    +0.000 C 
ENDBRANCH   5   9
BRANCH   6  11
ATOM     11  O   UNL     1       5.239   2.505  19.646  0.00  0.00    +0.000 OA
ATOM     12  H   UNL     1       5.064   2.369  20.586  0.00  0.00    +0.000 HD
ENDBRANCH   6  11
BRANCH   3  13
ATOM     13  C   UNL     1       2.014   6.773  17.656  0.00  0.00    +0.000 C 
BRANCH  13  14
ATOM     14  C   UNL     1       2.498   8.176  18.041  0.00  0.00    +0.000 C 
BRANCH  14  15
ATOM     15  C   UNL     1       1.757   8.735  19.239  0.00  0.00    +0.000 A 
ATOM     16  C   UNL     1       1.033   9.933  19.126  0.00  0.00    +0.000 A 
ATOM     17  C   UNL     1       0.347  10.458  20.227  0.00  0.00    +0.000 A 
ATOM     18  C   UNL     1       0.388   9.789  21.453  0.00  0.00    +0.000 A 
ATOM     19  C   UNL     1       1.109   8.594  21.583  0.00  0.00    +0.000 A 
ATOM     20  C   UNL     1       1.792   8.075  20.476  0.00  0.00    +0.000 A 
BRANCH  18  21
ATOM     21  N   UNL     1      -0.326  10.339  22.611  0.00  0.00    +0.000 N 
ATOM     22  O   UNL     1       0.005   9.934  23.740  0.00  0.00    +0.000 OA
ATOM     23  O   UNL     1      -1.216  11.175  22.403  0.00  0.00    +0.000 OA
ENDBRANCH  18  21
ENDBRANCH  14  15
ENDBRANCH  13  14
ENDBRANCH   3  13
TORSDOF 7
ENDMDL
MODEL 8
REMARK VINA RESULT:      -7.0      3.786      4.635
REMARK  Name = 
REMARK  9 active torsions:
REMARK  status: ('A' for Active; 'I' for Inactive)
REMARK    1  A    between atoms: C_1  and  O_2
REMARK    2  A    between atoms: O_2  and  C_3
REMARK    3  A    between atoms: C_5  and  C_6
REMARK    4  A    between atoms: C_6  and  C_7
REMARK    5  A    between atoms: C_7  and  C_8
REMARK    6  A    between atoms: C_11  and  N_12
REMARK    7  A    between atoms: C_18  and  O_19
REMARK    8  A    between atoms: O_19  and  C_20
REMARK    9  A    between atoms: C_21  and  O_22
REMARK                            x       y       z     vdW  Elec       q    Type
REMARK                         _______ _______ _______ _____ _____    ______ ____
ROOT
ATOM      1  C   UNL     1       6.336   5.368  15.951  0.00  0.00    +0.000 A 
ATOM      2  C   UNL     1       5.213   6.201  16.101  0.00  0.00    +0.000 A 
ATOM      3  C   UNL     1       4.773   6.614  17.361  0.00  0.00    +0.000 A 
ATOM      4  C   UNL     1       5.460   6.141  18.483  0.00  0.00    +0.000 A 
ATOM      5  C   UNL     1       6.585   5.300  18.373  0.00  0.00    +0.000 A 
ATOM      6  C   UNL     1       7.032   4.927  17.094  0.00  0.00    +0.000 A 
ENDROOT
BRANCH   1   8
ATOM      7  C   UNL     1       5.774   4.157  13.948  0.00  0.00    +0.000 C 
ATOM      8  O   UNL     1       6.593   5.094  14.632  0.00  0.00    +0.000 OA
ENDBRANCH   1   8
BRANCH   5   9
ATOM      9  O   UNL     1       7.093   4.995  19.606  0.00  0.00    +0.000 OA
ATOM     10  C   UNL     1       8.299   5.565  20.080  0.00  0.00    +0.000 C 
ENDBRANCH   5   9
BRANCH   6  11
ATOM     11  O   UNL     1       8.156   4.169  16.919  0.00  0.00    +0.000 OA
ATOM     12  H   UNL     1       8.384   3.777  17.772  0.00  0.00    +0.000 HD
ENDBRANCH   6  11
BRANCH   3  13
ATOM     13  C   UNL     1       3.604   7.563  17.503  0.00  0.00    +0.000 C 
BRANCH  13  14
ATOM     14  C   UNL     1       2.254   6.844  17.604  0.00  0.00    +0.000 C 
BRANCH  14  15
ATOM     15  C   UNL     1       2.263   5.741  18.644  0.00  0.00    +0.000 A 
ATOM     16  C   UNL     1       2.095   6.049  20.003  0.00  0.00    +0.000 A 
ATOM     17  C   UNL     1       2.104   5.039  20.970  0.00  0.00    +0.000 A 
ATOM     18  C   UNL     1       2.288   3.709  20.582  0.00  0.00    +0.000 A 
ATOM     19  C   UNL     1       2.460   3.384  19.230  0.00  0.00    +0.000 A 
ATOM     20  C   UNL     1       2.449   4.403  18.268  0.00  0.00    +0.000 A 
BRANCH  18  21
ATOM     21  N   UNL     1       2.303   2.647  21.595  0.00  0.00    +0.000 N 
ATOM     22  O   UNL     1       3.357   2.001  21.739  0.00  0.00    +0.000 OA
ATOM     23  O   UNL     1       1.270   2.452  22.250  0.00  0.00    +0.000 OA
ENDBRANCH  18  21
ENDBRANCH  14  15
ENDBRANCH  13  14
ENDBRANCH   3  13
TORSDOF 7
ENDMDL
MODEL 9
REMARK VINA RESULT:      -7.0      3.884      4.727
REMARK  Name = 
REMARK  9 active torsions:
REMARK  status: ('A' for Active; 'I' for Inactive)
REMARK    1  A    between atoms: C_1  and  O_2
REMARK    2  A    between atoms: O_2  and  C_3
REMARK    3  A    between atoms: C_5  and  C_6
REMARK    4  A    between atoms: C_6  and  C_7
REMARK    5  A    between atoms: C_7  and  C_8
REMARK    6  A    between atoms: C_11  and  N_12
REMARK    7  A    between atoms: C_18  and  O_19
REMARK    8  A    between atoms: O_19  and  C_20
REMARK    9  A    between atoms: C_21  and  O_22
REMARK                            x       y       z     vdW  Elec       q    Type
REMARK                         _______ _______ _______ _____ _____    ______ ____
ROOT
ATOM      1  C   UNL     1       7.069   6.021  17.723  0.00  0.00    +0.000 A 
ATOM      2  C   UNL     1       5.959   6.876  17.610  0.00  0.00    +0.000 A 
ATOM      3  C   UNL     1       4.939   6.631  16.688  0.00  0.00    +0.000 A 
ATOM      4  C   UNL     1       5.072   5.526  15.841  0.00  0.00    +0.000 A 
ATOM      5  C   UNL     1       6.174   4.652  15.919  0.00  0.00    +0.000 A 
ATOM      6  C   UNL     1       7.169   4.897  16.881  0.00  0.00    +0.000 A 
ENDROOT
BRANCH   1   8
ATOM      7  C   UNL     1       8.040   5.709  19.903  0.00  0.00    +0.000 C 
ATOM      8  O   UNL     1       7.942   6.445  18.694  0.00  0.00    +0.000 OA
ENDBRANCH   1   8
BRANCH   5   9
ATOM      9  O   UNL     1       6.063   3.639  15.006  0.00  0.00    +0.000 OA
ATOM     10  C   UNL     1       6.315   3.842  13.628  0.00  0.00    +0.000 C 
ENDBRANCH   5   9
BRANCH   6  11
ATOM     11  O   UNL     1       8.228   4.048  17.050  0.00  0.00    +0.000 OA
ATOM     12  H   UNL     1       8.256   3.453  16.290  0.00  0.00    +0.000 HD
ENDBRANCH   6  11
BRANCH   3  13
ATOM     13  C   UNL     1       3.719   7.521  16.624  0.00  0.00    +0.000 C 
BRANCH  13  14
ATOM     14  C   UNL     1       3.015   7.677  17.978  0.00  0.00    +0.000 C 
BRANCH  14  15
ATOM     15  C   UNL     1       2.626   6.343  18.584  0.00  0.00    +0.000 A 
ATOM     16  C   UNL     1       1.904   5.407  17.827  0.00  0.00    +0.000 A 
ATOM     17  C   UNL     1       1.538   4.174  18.379  0.00  0.00    +0.000 A 
ATOM     18  C   UNL     1       1.889   3.873  19.697  0.00  0.00    +0.000 A 
ATOM     19  C   UNL     1       2.608   4.798  20.467  0.00  0.00    +0.000 A 
ATOM     20  C   UNL     1       2.971   6.029  19.907  0.00  0.00    +0.000 A 
BRANCH  18  21
ATOM     21  N   UNL     1       1.503   2.582  20.280  0.00  0.00    +0.000 N 
ATOM     22  O   UNL     1       1.179   2.565  21.481  0.00  0.00    +0.000 OA
ATOM     23  O   UNL     1       1.521   1.584  19.547  0.00  0.00    +0.000 OA
ENDBRANCH  18  21
ENDBRANCH  14  15
ENDBRANCH  13  14
ENDBRANCH   3  13
TORSDOF 7
ENDMDL
