MODEL 1
REMARK VINA RESULT:      -7.0      0.000      0.000
REMARK  Name = 
REMARK  5 active torsions:
REMARK  status: ('A' for Active; 'I' for Inactive)
REMARK    1  A    between atoms: C_4  and  C_5
REMARK    2  A    between atoms: C_5  and  O_6
REMARK    3  A    between atoms: O_6  and  C_7
REMARK    4  A    between atoms: N_11  and  C_12
REMARK    5  A    between atoms: C_12  and  C_13
REMARK                            x       y       z     vdW  Elec       q    Type
REMARK                         _______ _______ _______ _____ _____    ______ ____
ROOT
ATOM      1  C   UNL     1       4.974   3.994  16.897  0.00  0.00    +0.000 C 
ATOM      2  N   UNL     1       5.990   3.381  16.054  0.00  0.00    +0.000 NA
ATOM      3  C   UNL     1       5.847   4.040  14.760  0.00  0.00    +0.000 C 
ATOM      4  C   UNL     1       5.580   5.468  15.165  0.00  0.00    +0.000 C 
ATOM      5  N   UNL     1       4.741   5.337  16.363  0.00  0.00    +0.000 NA
ATOM      6  H   UNL     1       5.763   2.400  15.941  0.00  0.00    +0.000 HD
ENDROOT
BRANCH   1   7
ATOM      7  O   UNL     1       3.767   3.247  16.837  0.00  0.00    +0.000 OA
BRANCH   7   8
ATOM      8  C   UNL     1       3.696   2.198  17.805  0.00  0.00    +0.000 C 
BRANCH   8  12
ATOM      9  C   UNL     1       1.276   3.191  21.250  0.00  0.00    +0.000 A 
ATOM     10  C   UNL     1       0.714   3.229  19.978  0.00  0.00    +0.000 A 
ATOM     11  C   UNL     1       1.490   2.921  18.858  0.00  0.00    +0.000 A 
ATOM     12  C   UNL     1       2.842   2.580  18.996  0.00  0.00    +0.000 A 
ATOM     13  C   UNL     1       3.392   2.530  20.287  0.00  0.00    +0.000 A 
ATOM     14  C   UNL     1       2.615   2.839  21.407  0.00  0.00    +0.000 A 
ENDBRANCH   8  12
ENDBRANCH   7   8
ENDBRANCH   1   7
BRANCH   5  15
ATOM     15  C   UNL     1       5.043   6.380  17.353  0.00  0.00    +0.000 C 
BRANCH  15  16
ATOM     16  C   UNL     1       3.831   6.862  18.130  0.00  0.00    +0.000 A 
ATOM     17  C   UNL     1       3.116   7.995  17.717  0.00  0.00    +0.000 A 
ATOM     18  C   UNL     1       2.010   8.442  18.443  0.00  0.00    +0.000 A 
ATOM     19  C   UNL     1       1.604   7.764  19.591  0.00  0.00    +0.000 A 
ATOM     20  C   UNL     1       2.303   6.634  20.012  0.00  0.00    +0.000 A 
ATOM     21  C   UNL     1       3.408   6.185  19.287  0.00  0.00    +0.000 A 
ENDBRANCH  15  16
ENDBRANCH   5  15
TORSDOF 5
ENDMDL
MODEL 2
REMARK VINA RESULT:      -7.0      0.125      1.085
REMARK  Name = 
REMARK  5 active torsions:
REMARK  status: ('A' for Active; 'I' for Inactive)
REMARK    1  A    between atoms: C_4  and  C_5
REMARK    2  A    between atoms: C_5  and  O_6
REMARK    3  A    between atoms: O_6  and  C_7
REMARK    4  A    between atoms: N_11  and  C_12
REMARK    5  A    between atoms: C_12  and  C_13
REMARK                            x       y       z     vdW  Elec       q    Type
REMARK                         _______ _______ _______ _____ _____    ______ ____
ROOT
ATOM      1  C   UNL     1       4.961   4.082  16.900  0.00  0.00    +0.000 C 
ATOM      2  N   UNL     1       6.004   3.376  16.170  0.00  0.00    +0.000 NA
ATOM      3  C   UNL     1       5.938   3.912  14.815  0.00  0.00    +0.000 C 
ATOM      4  C   UNL     1       5.683   5.377  15.073  0.00  0.00    +0.000 C 
ATOM      5  N   UNL     1       4.784   5.373  16.234  0.00  0.00    +0.000 NA
ATOM      6  H   UNL     1       5.760   2.392  16.137  0.00  0.00    +0.000 HD
ENDROOT
BRANCH   1   7
ATOM      7  O   UNL     1       3.742   3.354  16.848  0.00  0.00    +0.000 OA
BRANCH   7   8
ATOM      8  C   UNL     1       3.683   2.273  17.782  0.00  0.00    +0.000 C 
BRANCH   8  12
ATOM      9  C   UNL     1       1.289   3.141  21.278  0.00  0.00    +0.000 A 
ATOM     10  C   UNL     1       0.709   3.195  20.015  0.00  0.00    +0.000 A 
ATOM     11  C   UNL     1       1.477   2.927  18.878  0.00  0.00    +0.000 A 
ATOM     12  C   UNL     1       2.837   2.612  18.992  0.00  0.00    +0.000 A 
ATOM     13  C   UNL     1       3.405   2.544  20.274  0.00  0.00    +0.000 A 
ATOM     14  C   UNL     1       2.636   2.813  21.411  0.00  0.00    +0.000 A 
ENDBRANCH   8  12
ENDBRANCH   7   8
ENDBRANCH   1   7
BRANCH   5  15
ATOM     15  C   UNL     1       5.060   6.498  17.136  0.00  0.00    +0.000 C 
BRANCH  15  16
ATOM     16  C   UNL     1       3.877   6.902  17.999  0.00  0.00    +0.000 A 
ATOM     17  C   UNL     1       3.510   6.142  19.118  0.00  0.00    +0.000 A 
ATOM     18  C   UNL     1       2.413   6.511  19.900  0.00  0.00    +0.000 A 
ATOM     19  C   UNL     1       1.667   7.642  19.573  0.00  0.00    +0.000 A 
ATOM     20  C   UNL     1       2.022   8.409  18.465  0.00  0.00    +0.000 A 
ATOM     21  C   UNL     1       3.119   8.043  17.683  0.00  0.00    +0.000 A 
ENDBRANCH  15  16
ENDBRANCH   5  15
TORSDOF 5
ENDMDL
MODEL 3
REMARK VINA RESULT:      -7.0      0.161      1.531
REMARK  Name = 
REMARK  5 active torsions:
REMARK  status: ('A' for Active; 'I' for Inactive)
REMARK    1  A    between atoms: C_4  and  C_5
REMARK    2  A    between atoms: C_5  and  O_6
REMARK    3  A    between atoms: O_6  and  C_7
REMARK    4  A    between atoms: N_11  and  C_12
REMARK    5  A    between atoms: C_12  and  C_13
REMARK                            x       y       z     vdW  Elec       q    Type
REMARK                         _______ _______ _______ _____ _____    ______ ____
ROOT
ATOM      1  C   UNL     1       4.948   4.080  16.900  0.00  0.00    +0.000 C 
ATOM      2  N   UNL     1       5.991   3.352  16.193  0.00  0.00    +0.000 NA
ATOM      3  C   UNL     1       5.941   3.864  14.827  0.00  0.00    +0.000 C 
ATOM      4  C   UNL     1       5.696   5.335  15.056  0.00  0.00    +0.000 C 
ATOM      5  N   UNL     1       4.787   5.360  16.208  0.00  0.00    +0.000 NA
ATOM      6  H   UNL     1       5.741   2.370  16.176  0.00  0.00    +0.000 HD
ENDROOT
BRANCH   1   7
ATOM      7  O   UNL     1       3.724   3.360  16.851  0.00  0.00    +0.000 OA
BRANCH   7   8
ATOM      8  C   UNL     1       3.685   2.239  17.737  0.00  0.00    +0.000 C 
BRANCH   8  12
ATOM      9  C   UNL     1       1.274   3.132  21.216  0.00  0.00    +0.000 A 
ATOM     10  C   UNL     1       2.627   2.847  21.370  0.00  0.00    +0.000 A 
ATOM     11  C   UNL     1       3.412   2.547  20.253  0.00  0.00    +0.000 A 
ATOM     12  C   UNL     1       2.850   2.517  18.970  0.00  0.00    +0.000 A 
ATOM     13  C   UNL     1       1.487   2.824  18.829  0.00  0.00    +0.000 A 
ATOM     14  C   UNL     1       0.702   3.124  19.945  0.00  0.00    +0.000 A 
ENDBRANCH   8  12
ENDBRANCH   7   8
ENDBRANCH   1   7
BRANCH   5  15
ATOM     15  C   UNL     1       5.063   6.499  17.093  0.00  0.00    +0.000 C 
BRANCH  15  16
ATOM     16  C   UNL     1       3.900   6.879  17.992  0.00  0.00    +0.000 A 
ATOM     17  C   UNL     1       3.574   6.101  19.112  0.00  0.00    +0.000 A 
ATOM     18  C   UNL     1       2.495   6.448  19.928  0.00  0.00    +0.000 A 
ATOM     19  C   UNL     1       1.727   7.574  19.636  0.00  0.00    +0.000 A 
ATOM     20  C   UNL     1       2.042   8.358  18.527  0.00  0.00    +0.000 A 
ATOM     21  C   UNL     1       3.121   8.015  17.711  0.00  0.00    +0.000 A 
ENDBRANCH  15  16
ENDBRANCH   5  15
TORSDOF 5
ENDMDL
MODEL 4
REMARK VINA RESULT:      -7.0      0.197      1.095
REMARK  Name = 
REMARK  5 active torsions:
REMARK  status: ('A' for Active; 'I' for Inactive)
REMARK    1  A    between atoms: C_4  and  C_5
REMARK    2  A    between atoms: C_5  and  O_6
REMARK    3  A    between atoms: O_6  and  C_7
REMARK    4  A    between atoms: N_11  and  C_12
REMARK    5  A    between atoms: C_12  and  C_13
REMARK                            x       y       z     vdW  Elec       q    Type
REMARK                         _______ _______ _______ _____ _____    ______ ____
ROOT
ATOM      1  C   UNL     1       4.888   4.108  16.845  0.00  0.00    +0.000 C 
ATOM      2  N   UNL     1       5.941   3.365  16.167  0.00  0.00    +0.000 NA
ATOM      3  C   UNL     1       5.926   3.868  14.797  0.00  0.00    +0.000 C 
ATOM      4  C   UNL     1       5.689   5.343  15.009  0.00  0.00    +0.000 C 
ATOM      5  N   UNL     1       4.754   5.384  16.141  0.00  0.00    +0.000 NA
ATOM      6  H   UNL     1       5.682   2.385  16.151  0.00  0.00    +0.000 HD
ENDROOT
BRANCH   1   7
ATOM      7  O   UNL     1       3.659   3.398  16.773  0.00  0.00    +0.000 OA
BRANCH   7   8
ATOM      8  C   UNL     1       3.607   2.258  17.634  0.00  0.00    +0.000 C 
BRANCH   8  12
ATOM      9  C   UNL     1       1.336   3.148  21.206  0.00  0.00    +0.000 A 
ATOM     10  C   UNL     1       2.689   2.843  21.308  0.00  0.00    +0.000 A 
ATOM     11  C   UNL     1       3.429   2.544  20.160  0.00  0.00    +0.000 A 
ATOM     12  C   UNL     1       2.821   2.535  18.898  0.00  0.00    +0.000 A 
ATOM     13  C   UNL     1       1.458   2.861  18.809  0.00  0.00    +0.000 A 
ATOM     14  C   UNL     1       0.718   3.161  19.957  0.00  0.00    +0.000 A 
ENDBRANCH   8  12
ENDBRANCH   7   8
ENDBRANCH   1   7
BRANCH   5  15
ATOM     15  C   UNL     1       5.021   6.527  17.023  0.00  0.00    +0.000 C 
BRANCH  15  16
ATOM     16  C   UNL     1       3.864   6.881  17.941  0.00  0.00    +0.000 A 
ATOM     17  C   UNL     1       3.041   7.983  17.668  0.00  0.00    +0.000 A 
ATOM     18  C   UNL     1       1.987   8.311  18.523  0.00  0.00    +0.000 A 
ATOM     19  C   UNL     1       1.742   7.546  19.662  0.00  0.00    +0.000 A 
ATOM     20  C   UNL     1       2.550   6.446  19.944  0.00  0.00    +0.000 A 
ATOM     21  C   UNL     1       3.604   6.114  19.090  0.00  0.00    +0.000 A 
ENDBRANCH  15  16
ENDBRANCH   5  15
TORSDOF 5
ENDMDL
MODEL 5
REMARK VINA RESULT:      -6.8      1.609      4.251
REMARK  Name = 
REMARK  5 active torsions:
REMARK  status: ('A' for Active; 'I' for Inactive)
REMARK    1  A    between atoms: C_4  and  C_5
REMARK    2  A    between atoms: C_5  and  O_6
REMARK    3  A    between atoms: O_6  and  C_7
REMARK    4  A    between atoms: N_11  and  C_12
REMARK    5  A    between atoms: C_12  and  C_13
REMARK                            x       y       z     vdW  Elec       q    Type
REMARK                         _______ _______ _______ _____ _____    ______ ____
ROOT
ATOM      1  C   UNL     1       4.738   6.064  16.780  0.00  0.00    +0.000 C 
ATOM      2  N   UNL     1       5.932   6.329  15.991  0.00  0.00    +0.000 NA
ATOM      3  C   UNL     1       7.041   5.918  16.846  0.00  0.00    +0.000 C 
ATOM      4  C   UNL     1       6.494   4.665  17.485  0.00  0.00    +0.000 C 
ATOM      5  N   UNL     1       5.076   4.978  17.701  0.00  0.00    +0.000 NA
ATOM      6  H   UNL     1       5.999   7.328  15.838  0.00  0.00    +0.000 HD
ENDROOT
BRANCH   1   7
ATOM      7  O   UNL     1       4.374   7.218  17.526  0.00  0.00    +0.000 OA
BRANCH   7   8
ATOM      8  C   UNL     1       3.024   7.634  17.309  0.00  0.00    +0.000 C 
BRANCH   8  12
ATOM      9  C   UNL     1       0.923   8.432  21.005  0.00  0.00    +0.000 A 
ATOM     10  C   UNL     1       0.899   9.374  19.982  0.00  0.00    +0.000 A 
ATOM     11  C   UNL     1       1.584   9.130  18.788  0.00  0.00    +0.000 A 
ATOM     12  C   UNL     1       2.309   7.945  18.608  0.00  0.00    +0.000 A 
ATOM     13  C   UNL     1       2.310   6.996  19.643  0.00  0.00    +0.000 A 
ATOM     14  C   UNL     1       1.625   7.240  20.837  0.00  0.00    +0.000 A 
ENDBRANCH   8  12
ENDBRANCH   7   8
ENDBRANCH   1   7
BRANCH   5  15
ATOM     15  C   UNL     1       4.224   3.799  17.495  0.00  0.00    +0.000 C 
BRANCH  15  16
ATOM     16  C   UNL     1       3.159   3.614  18.561  0.00  0.00    +0.000 A 
ATOM     17  C   UNL     1       1.801   3.559  18.219  0.00  0.00    +0.000 A 
ATOM     18  C   UNL     1       0.825   3.401  19.205  0.00  0.00    +0.000 A 
ATOM     19  C   UNL     1       1.192   3.297  20.545  0.00  0.00    +0.000 A 
ATOM     20  C   UNL     1       2.539   3.346  20.900  0.00  0.00    +0.000 A 
ATOM     21  C   UNL     1       3.517   3.502  19.916  0.00  0.00    +0.000 A 
ENDBRANCH  15  16
ENDBRANCH   5  15
TORSDOF 5
ENDMDL
MODEL 6
REMARK VINA RESULT:      -6.7      0.840      1.793
REMARK  Name = 
REMARK  5 active torsions:
REMARK  status: ('A' for Active; 'I' for Inactive)
REMARK    1  A    between atoms: C_4  and  C_5
REMARK    2  A    between atoms: C_5  and  O_6
REMARK    3  A    between atoms: O_6  and  C_7
REMARK    4  A    between atoms: N_11  and  C_12
REMARK    5  A    between atoms: C_12  and  C_13
REMARK                            x       y       z     vdW  Elec       q    Type
REMARK                         _______ _______ _______ _____ _____    ______ ____
ROOT
ATOM      1  C   UNL     1       4.207   3.907  17.304  0.00  0.00    +0.000 C 
ATOM      2  N   UNL     1       5.412   3.665  16.524  0.00  0.00    +0.000 NA
ATOM      3  C   UNL     1       5.454   4.756  15.556  0.00  0.00    +0.000 C 
ATOM      4  C   UNL     1       4.992   5.927  16.388  0.00  0.00    +0.000 C 
ATOM      5  N   UNL     1       3.960   5.349  17.257  0.00  0.00    +0.000 NA
ATOM      6  H   UNL     1       5.297   2.794  16.019  0.00  0.00    +0.000 HD
ENDROOT
BRANCH   1   7
ATOM      7  O   UNL     1       3.102   3.221  16.730  0.00  0.00    +0.000 OA
BRANCH   7   8
ATOM      8  C   UNL     1       2.608   2.154  17.542  0.00  0.00    +0.000 C 
BRANCH   8  12
ATOM      9  C   UNL     1       1.629   3.583  21.506  0.00  0.00    +0.000 A 
ATOM     10  C   UNL     1       2.730   2.753  21.325  0.00  0.00    +0.000 A 
ATOM     11  C   UNL     1       3.048   2.277  20.050  0.00  0.00    +0.000 A 
ATOM     12  C   UNL     1       2.262   2.618  18.942  0.00  0.00    +0.000 A 
ATOM     13  C   UNL     1       1.164   3.471  19.137  0.00  0.00    +0.000 A 
ATOM     14  C   UNL     1       0.846   3.947  20.412  0.00  0.00    +0.000 A 
ENDBRANCH   8  12
ENDBRANCH   7   8
ENDBRANCH   1   7
BRANCH   5  15
ATOM     15  C   UNL     1       3.979   5.951  18.596  0.00  0.00    +0.000 C 
BRANCH  15  16
ATOM     16  C   UNL     1       2.996   7.095  18.773  0.00  0.00    +0.000 A 
ATOM     17  C   UNL     1       2.303   7.267  19.979  0.00  0.00    +0.000 A 
ATOM     18  C   UNL     1       1.390   8.313  20.132  0.00  0.00    +0.000 A 
ATOM     19  C   UNL     1       1.157   9.199  19.082  0.00  0.00    +0.000 A 
ATOM     20  C   UNL     1       1.841   9.043  17.878  0.00  0.00    +0.000 A 
ATOM     21  C   UNL     1       2.756   7.999  17.723  0.00  0.00    +0.000 A 
ENDBRANCH  15  16
ENDBRANCH   5  15
TORSDOF 5
ENDMDL
MODEL 7
REMARK VINA RESULT:      -6.6      1.693      4.392
REMARK  Name = 
REMARK  5 active torsions:
REMARK  status: ('A' for Active; 'I' for Inactive)
REMARK    1  A    between atoms: C_4  and  C_5
REMARK    2  A    between atoms: C_5  and  O_6
REMARK    3  A    between atoms: O_6  and  C_7
REMARK    4  A    between atoms: N_11  and  C_12
REMARK    5  A    between atoms: C_12  and  C_13
REMARK                            x       y       z     vdW  Elec       q    Type
REMARK                         _______ _______ _______ _____ _____    ______ ____
ROOT
ATOM      1  C   UNL     1       4.977   6.150  16.929  0.00  0.00    +0.000 C 
ATOM      2  N   UNL     1       6.292   6.434  16.373  0.00  0.00    +0.000 NA
ATOM      3  C   UNL     1       7.226   6.121  17.450  0.00  0.00    +0.000 C 
ATOM      4  C   UNL     1       6.612   4.876  18.042  0.00  0.00    +0.000 C 
ATOM      5  N   UNL     1       5.168   5.129  17.960  0.00  0.00    +0.000 NA
ATOM      6  H   UNL     1       6.350   7.427  16.178  0.00  0.00    +0.000 HD
ENDROOT
BRANCH   1   7
ATOM      7  O   UNL     1       4.429   7.320  17.521  0.00  0.00    +0.000 OA
BRANCH   7   8
ATOM      8  C   UNL     1       3.019   7.453  17.324  0.00  0.00    +0.000 C 
BRANCH   8  12
ATOM      9  C   UNL     1       0.929   8.652  20.917  0.00  0.00    +0.000 A 
ATOM     10  C   UNL     1       0.934   9.493  19.809  0.00  0.00    +0.000 A 
ATOM     11  C   UNL     1       1.616   9.119  18.648  0.00  0.00    +0.000 A 
ATOM     12  C   UNL     1       2.309   7.904  18.584  0.00  0.00    +0.000 A 
ATOM     13  C   UNL     1       2.281   7.057  19.704  0.00  0.00    +0.000 A 
ATOM     14  C   UNL     1       1.600   7.431  20.866  0.00  0.00    +0.000 A 
ENDBRANCH   8  12
ENDBRANCH   7   8
ENDBRANCH   1   7
BRANCH   5  15
ATOM     15  C   UNL     1       4.419   3.902  17.661  0.00  0.00    +0.000 C 
BRANCH  15  16
ATOM     16  C   UNL     1       3.214   3.680  18.558  0.00  0.00    +0.000 A 
ATOM     17  C   UNL     1       3.349   3.676  19.953  0.00  0.00    +0.000 A 
ATOM     18  C   UNL     1       2.239   3.458  20.773  0.00  0.00    +0.000 A 
ATOM     19  C   UNL     1       0.983   3.241  20.211  0.00  0.00    +0.000 A 
ATOM     20  C   UNL     1       0.834   3.246  18.825  0.00  0.00    +0.000 A 
ATOM     21  C   UNL     1       1.941   3.465  18.003  0.00  0.00    +0.000 A 
ENDBRANCH  15  16
ENDBRANCH   5  15
TORSDOF 5
ENDMDL
MODEL 8
REMARK VINA RESULT:      -6.6      2.189      5.088
REMARK  Name = 
REMARK  5 active torsions:
REMARK  status: ('A' for Active; 'I' for Inactive)
REMARK    1  A    between atoms: C_4  and  C_5
REMARK    2  A    between atoms: C_5  and  O_6
REMARK    3  A    between atoms: O_6  and  C_7
REMARK    4  A    between atoms: N_11  and  C_12
REMARK    5  A    between atoms: C_12  and  C_13
REMARK                            x       y       z     vdW  Elec       q    Type
REMARK                         _______ _______ _______ _____ _____    ______ ____
ROOT
ATOM      1  C   UNL     1       2.273   3.589  20.056  0.00  0.00    +0.000 C 
ATOM      2  N   UNL     1       1.299   2.512  20.155  0.00  0.00    +0.000 NA
ATOM      3  C   UNL     1       0.834   2.303  18.787  0.00  0.00    +0.000 C 
ATOM      4  C   UNL     1       2.111   2.458  17.998  0.00  0.00    +0.000 C 
ATOM      5  N   UNL     1       2.825   3.532  18.701  0.00  0.00    +0.000 NA
ATOM      6  H   UNL     1       0.517   2.838  20.712  0.00  0.00    +0.000 HD
ENDROOT
BRANCH   1   7
ATOM      7  O   UNL     1       1.640   4.846  20.254  0.00  0.00    +0.000 OA
BRANCH   7   8
ATOM      8  C   UNL     1       2.558   5.916  20.488  0.00  0.00    +0.000 C 
BRANCH   8  12
ATOM      9  C   UNL     1       1.631   9.484  18.224  0.00  0.00    +0.000 A 
ATOM     10  C   UNL     1       1.161   9.352  19.527  0.00  0.00    +0.000 A 
ATOM     11  C   UNL     1       1.446   8.199  20.262  0.00  0.00    +0.000 A 
ATOM     12  C   UNL     1       2.196   7.158  19.700  0.00  0.00    +0.000 A 
ATOM     13  C   UNL     1       2.678   7.313  18.390  0.00  0.00    +0.000 A 
ATOM     14  C   UNL     1       2.393   8.466  17.654  0.00  0.00    +0.000 A 
ENDBRANCH   8  12
ENDBRANCH   7   8
ENDBRANCH   1   7
BRANCH   5  15
ATOM     15  C   UNL     1       4.275   3.304  18.709  0.00  0.00    +0.000 C 
BRANCH  15  16
ATOM     16  C   UNL     1       5.083   4.443  18.113  0.00  0.00    +0.000 A 
ATOM     17  C   UNL     1       4.849   4.879  16.801  0.00  0.00    +0.000 A 
ATOM     18  C   UNL     1       5.604   5.919  16.253  0.00  0.00    +0.000 A 
ATOM     19  C   UNL     1       6.601   6.535  17.006  0.00  0.00    +0.000 A 
ATOM     20  C   UNL     1       6.842   6.114  18.313  0.00  0.00    +0.000 A 
ATOM     21  C   UNL     1       6.088   5.076  18.864  0.00  0.00    +0.000 A 
ENDBRANCH  15  16
ENDBRANCH   5  15
TORSDOF 5
ENDMDL
MODEL 9
REMARK VINA RESULT:      -6.6      1.747      4.551
REMARK  Name = 
REMARK  5 active torsions:
REMARK  status: ('A' for Active; 'I' for Inactive)
REMARK    1  A    between atoms: C_4  and  C_5
REMARK    2  A    between atoms: C_5  and  O_6
REMARK    3  A    between atoms: O_6  and  C_7
REMARK    4  A    between atoms: N_11  and  C_12
REMARK    5  A    between atoms: C_12  and  C_13
REMARK                            x       y       z     vdW  Elec       q    Type
REMARK                         _______ _______ _______ _____ _____    ______ ____
ROOT
ATOM      1  C   UNL     1       5.181   6.309  17.027  0.00  0.00    +0.000 C 
ATOM      2  N   UNL     1       6.529   6.656  16.600  0.00  0.00    +0.000 NA
ATOM      3  C   UNL     1       7.370   6.380  17.760  0.00  0.00    +0.000 C 
ATOM      4  C   UNL     1       6.761   5.105  18.289  0.00  0.00    +0.000 C 
ATOM      5  N   UNL     1       5.321   5.291  18.070  0.00  0.00    +0.000 NA
ATOM      6  H   UNL     1       6.559   7.651  16.413  0.00  0.00    +0.000 HD
ENDROOT
BRANCH   1   7
ATOM      7  O   UNL     1       4.526   7.449  17.566  0.00  0.00    +0.000 OA
BRANCH   7   8
ATOM      8  C   UNL     1       3.122   7.478  17.300  0.00  0.00    +0.000 C 
BRANCH   8  12
ATOM      9  C   UNL     1       0.902   8.827  20.759  0.00  0.00    +0.000 A 
ATOM     10  C   UNL     1       1.572   7.609  20.802  0.00  0.00    +0.000 A 
ATOM     11  C   UNL     1       2.283   7.160  19.686  0.00  0.00    +0.000 A 
ATOM     12  C   UNL     1       2.323   7.919  18.510  0.00  0.00    +0.000 A 
ATOM     13  C   UNL     1       1.656   9.155  18.487  0.00  0.00    +0.000 A 
ATOM     14  C   UNL     1       0.946   9.604  19.603  0.00  0.00    +0.000 A 
ENDBRANCH   8  12
ENDBRANCH   7   8
ENDBRANCH   1   7
BRANCH   5  15
ATOM     15  C   UNL     1       4.662   4.033  17.699  0.00  0.00    +0.000 C 
BRANCH  15  16
ATOM     16  C   UNL     1       3.385   3.753  18.472  0.00  0.00    +0.000 A 
ATOM     17  C   UNL     1       3.388   3.712  19.874  0.00  0.00    +0.000 A 
ATOM     18  C   UNL     1       2.214   3.442  20.579  0.00  0.00    +0.000 A 
ATOM     19  C   UNL     1       1.023   3.207  19.896  0.00  0.00    +0.000 A 
ATOM     20  C   UNL     1       1.004   3.248  18.503  0.00  0.00    +0.000 A 
ATOM     21  C   UNL     1       2.176   3.519  17.795  0.00  0.00    +0.000 A 
ENDBRANCH  15  16
ENDBRANCH   5  15
TORSDOF 5
ENDMDL
