MODEL 1
REMARK VINA RESULT:      -5.7      0.000      0.000
REMARK  Name = 
REMARK  8 active torsions:
REMARK  status: ('A' for Active; 'I' for Inactive)
REMARK    1  A    between atoms: C_1  and  O_2
REMARK    2  A    between atoms: O_2  and  C_3
REMARK    3  A    between atoms: C_8  and  O_9
REMARK    4  A    between atoms: O_9  and  C_10
REMARK    5  A    between atoms: C_15  and  O_16
REMARK    6  A    between atoms: O_16  and  C_17
REMARK    7  A    between atoms: C_18  and  O_19
REMARK    8  A    between atoms: O_19  and  C_20
REMARK                            x       y       z     vdW  Elec       q    Type
REMARK                         _______ _______ _______ _____ _____    ______ ____
ROOT
ATOM      1  C   UNL     1      -0.485  11.477  20.159  0.00  0.00    +0.000 A 
ATOM      2  C   UNL     1      -0.420  10.224  20.797  0.00  0.00    +0.000 A 
ATOM      3  C   UNL     1       0.473   9.237  20.357  0.00  0.00    +0.000 A 
ATOM      4  C   UNL     1       1.199   9.445  19.174  0.00  0.00    +0.000 A 
ATOM      5  C   UNL     1       1.189  10.713  18.595  0.00  0.00    +0.000 A 
ATOM      6  C   UNL     1       0.373  11.735  19.083  0.00  0.00    +0.000 A 
ATOM      7  C   UNL     1       2.044   8.370  18.579  0.00  0.00    +0.000 C 
ATOM      8  C   UNL     1       1.292   7.257  17.764  0.00  0.00    +0.000 C 
ATOM      9  C   UNL     1       2.229   6.107  17.999  0.00  0.00    +0.000 A 
ATOM     10  C   UNL     1       2.100   4.749  17.832  0.00  0.00    +0.000 A 
ATOM     11  C   UNL     1       3.146   3.960  18.325  0.00  0.00    +0.000 A 
ATOM     12  C   UNL     1       4.394   4.529  18.648  0.00  0.00    +0.000 A 
ATOM     13  C   UNL     1       4.408   5.853  19.044  0.00  0.00    +0.000 A 
ATOM     14  C   UNL     1       3.240   6.553  18.852  0.00  0.00    +0.000 A 
ATOM     15  N   UNL     1       2.782   7.660  19.671  0.00  0.00    +0.000 N 
ATOM     16  C   UNL     1       1.808   7.046  20.665  0.00  0.00    +0.000 C 
ATOM     17  C   UNL     1       0.722   8.006  21.186  0.00  0.00    +0.000 C 
ENDROOT
BRANCH   1  19
ATOM     18  C   UNL     1      -2.600  12.556  19.853  0.00  0.00    +0.000 C 
ATOM     19  O   UNL     1      -1.360  12.462  20.535  0.00  0.00    +0.000 OA
ENDBRANCH   1  19
BRANCH   6  20
ATOM     20  O   UNL     1       0.577  12.901  18.389  0.00  0.00    +0.000 OA
ATOM     21  C   UNL     1       1.666  13.728  18.752  0.00  0.00    +0.000 C 
ENDBRANCH   6  20
BRANCH  11  22
ATOM     22  O   UNL     1       2.867   2.681  18.760  0.00  0.00    +0.000 OA
ATOM     23  C   UNL     1       1.442   2.451  18.648  0.00  0.00    +0.000 C 
ENDBRANCH  11  22
BRANCH  12  24
ATOM     24  O   UNL     1       5.524   3.761  18.693  0.00  0.00    +0.000 OA
ATOM     25  C   UNL     1       6.621   4.467  18.083  0.00  0.00    +0.000 C 
ENDBRANCH  12  24
TORSDOF 4
ENDMDL
MODEL 2
REMARK VINA RESULT:      -5.7      0.938      1.063
REMARK  Name = 
REMARK  8 active torsions:
REMARK  status: ('A' for Active; 'I' for Inactive)
REMARK    1  A    between atoms: C_1  and  O_2
REMARK    2  A    between atoms: O_2  and  C_3
REMARK    3  A    between atoms: C_8  and  O_9
REMARK    4  A    between atoms: O_9  and  C_10
REMARK    5  A    between atoms: C_15  and  O_16
REMARK    6  A    between atoms: O_16  and  C_17
REMARK    7  A    between atoms: C_18  and  O_19
REMARK    8  A    between atoms: O_19  and  C_20
REMARK                            x       y       z     vdW  Elec       q    Type
REMARK                         _______ _______ _______ _____ _____    ______ ____
ROOT
ATOM      1  C   UNL     1       0.111  11.662  19.771  0.00  0.00    +0.000 A 
ATOM      2  C   UNL     1      -0.141  10.429  20.401  0.00  0.00    +0.000 A 
ATOM      3  C   UNL     1       0.633   9.298  20.107  0.00  0.00    +0.000 A 
ATOM      4  C   UNL     1       1.566   9.357  19.061  0.00  0.00    +0.000 A 
ATOM      5  C   UNL     1       1.866  10.596  18.498  0.00  0.00    +0.000 A 
ATOM      6  C   UNL     1       1.165  11.750  18.852  0.00  0.00    +0.000 A 
ATOM      7  C   UNL     1       2.303   8.143  18.605  0.00  0.00    +0.000 C 
ATOM      8  C   UNL     1       1.518   7.156  17.668  0.00  0.00    +0.000 C 
ATOM      9  C   UNL     1       2.197   5.871  18.045  0.00  0.00    +0.000 A 
ATOM     10  C   UNL     1       1.869   4.550  17.849  0.00  0.00    +0.000 A 
ATOM     11  C   UNL     1       2.672   3.607  18.501  0.00  0.00    +0.000 A 
ATOM     12  C   UNL     1       3.928   3.965  19.029  0.00  0.00    +0.000 A 
ATOM     13  C   UNL     1       4.101   5.276  19.432  0.00  0.00    +0.000 A 
ATOM     14  C   UNL     1       3.115   6.158  19.057  0.00  0.00    +0.000 A 
ATOM     15  N   UNL     1       2.723   7.343  19.798  0.00  0.00    +0.000 N 
ATOM     16  C   UNL     1       1.510   6.921  20.613  0.00  0.00    +0.000 C 
ATOM     17  C   UNL     1       0.531   8.059  20.955  0.00  0.00    +0.000 C 
ENDROOT
BRANCH   1  19
ATOM     18  C   UNL     1      -1.656  12.724  20.987  0.00  0.00    +0.000 C 
ATOM     19  O   UNL     1      -0.634  12.787  20.005  0.00  0.00    +0.000 OA
ENDBRANCH   1  19
BRANCH   6  20
ATOM     20  O   UNL     1       1.673  12.852  18.210  0.00  0.00    +0.000 OA
ATOM     21  C   UNL     1       2.784  13.519  18.778  0.00  0.00    +0.000 C 
ENDBRANCH   6  20
BRANCH  11  22
ATOM     22  O   UNL     1       2.114   2.402  18.875  0.00  0.00    +0.000 OA
ATOM     23  C   UNL     1       0.914   2.662  19.643  0.00  0.00    +0.000 C 
ENDBRANCH  11  22
BRANCH  12  24
ATOM     24  O   UNL     1       4.890   3.019  19.254  0.00  0.00    +0.000 OA
ATOM     25  C   UNL     1       4.563   2.259  20.432  0.00  0.00    +0.000 C 
ENDBRANCH  12  24
TORSDOF 4
ENDMDL
MODEL 3
REMARK VINA RESULT:      -5.7      3.733      8.063
REMARK  Name = 
REMARK  8 active torsions:
REMARK  status: ('A' for Active; 'I' for Inactive)
REMARK    1  A    between atoms: C_1  and  O_2
REMARK    2  A    between atoms: O_2  and  C_3
REMARK    3  A    between atoms: C_8  and  O_9
REMARK    4  A    between atoms: O_9  and  C_10
REMARK    5  A    between atoms: C_15  and  O_16
REMARK    6  A    between atoms: O_16  and  C_17
REMARK    7  A    between atoms: C_18  and  O_19
REMARK    8  A    between atoms: O_19  and  C_20
REMARK                            x       y       z     vdW  Elec       q    Type
REMARK                         _______ _______ _______ _____ _____    ______ ____
ROOT
ATOM      1  C   UNL     1       7.447   5.100  13.898  0.00  0.00    +0.000 A 
ATOM      2  C   UNL     1       7.430   5.775  15.133  0.00  0.00    +0.000 A 
ATOM      3  C   UNL     1       6.511   5.427  16.132  0.00  0.00    +0.000 A 
ATOM      4  C   UNL     1       5.496   4.502  15.840  0.00  0.00    +0.000 A 
ATOM      5  C   UNL     1       5.567   3.782  14.649  0.00  0.00    +0.000 A 
ATOM      6  C   UNL     1       6.538   4.055  13.684  0.00  0.00    +0.000 A 
ATOM      7  C   UNL     1       4.403   4.212  16.812  0.00  0.00    +0.000 C 
ATOM      8  C   UNL     1       3.237   5.262  16.891  0.00  0.00    +0.000 C 
ATOM      9  C   UNL     1       2.835   5.074  18.325  0.00  0.00    +0.000 A 
ATOM     10  C   UNL     1       2.076   5.827  19.188  0.00  0.00    +0.000 A 
ATOM     11  C   UNL     1       2.058   5.413  20.525  0.00  0.00    +0.000 A 
ATOM     12  C   UNL     1       2.495   4.124  20.890  0.00  0.00    +0.000 A 
ATOM     13  C   UNL     1       3.451   3.525  20.092  0.00  0.00    +0.000 A 
ATOM     14  C   UNL     1       3.706   4.140  18.889  0.00  0.00    +0.000 A 
ATOM     15  N   UNL     1       4.978   4.123  18.191  0.00  0.00    +0.000 N 
ATOM     16  C   UNL     1       5.660   5.428  18.571  0.00  0.00    +0.000 C 
ATOM     17  C   UNL     1       6.656   5.968  17.529  0.00  0.00    +0.000 C 
ENDROOT
BRANCH   1  19
ATOM     18  C   UNL     1       7.788   6.098  11.749  0.00  0.00    +0.000 C 
ATOM     19  O   UNL     1       8.308   5.422  12.883  0.00  0.00    +0.000 OA
ENDBRANCH   1  19
BRANCH   6  20
ATOM     20  O   UNL     1       6.442   3.185  12.628  0.00  0.00    +0.000 OA
ATOM     21  C   UNL     1       5.228   3.127  11.902  0.00  0.00    +0.000 C 
ENDBRANCH   6  20
BRANCH  11  22
ATOM     22  O   UNL     1       1.880   6.358  21.513  0.00  0.00    +0.000 OA
ATOM     23  C   UNL     1       1.471   7.604  20.898  0.00  0.00    +0.000 C 
ENDBRANCH  11  22
BRANCH  12  24
ATOM     24  O   UNL     1       2.083   3.550  22.061  0.00  0.00    +0.000 OA
ATOM     25  C   UNL     1       1.352   2.341  21.782  0.00  0.00    +0.000 C 
ENDBRANCH  12  24
TORSDOF 4
ENDMDL
MODEL 4
REMARK VINA RESULT:      -5.5      4.248     10.325
REMARK  Name = 
REMARK  8 active torsions:
REMARK  status: ('A' for Active; 'I' for Inactive)
REMARK    1  A    between atoms: C_1  and  O_2
REMARK    2  A    between atoms: O_2  and  C_3
REMARK    3  A    between atoms: C_8  and  O_9
REMARK    4  A    between atoms: O_9  and  C_10
REMARK    5  A    between atoms: C_15  and  O_16
REMARK    6  A    between atoms: O_16  and  C_17
REMARK    7  A    between atoms: C_18  and  O_19
REMARK    8  A    between atoms: O_19  and  C_20
REMARK                            x       y       z     vdW  Elec       q    Type
REMARK                         _______ _______ _______ _____ _____    ______ ____
ROOT
ATOM      1  C   UNL     1       0.286  10.033  19.757  0.00  0.00    +0.000 A 
ATOM      2  C   UNL     1       0.140  10.463  21.089  0.00  0.00    +0.000 A 
ATOM      3  C   UNL     1      -0.944  11.266  21.472  0.00  0.00    +0.000 A 
ATOM      4  C   UNL     1      -1.805  11.773  20.487  0.00  0.00    +0.000 A 
ATOM      5  C   UNL     1      -1.702  11.280  19.187  0.00  0.00    +0.000 A 
ATOM      6  C   UNL     1      -0.682  10.404  18.815  0.00  0.00    +0.000 A 
ATOM      7  C   UNL     1      -2.878  12.754  20.820  0.00  0.00    +0.000 C 
ATOM      8  C   UNL     1      -2.430  14.248  21.007  0.00  0.00    +0.000 C 
ATOM      9  C   UNL     1      -3.476  14.696  21.986  0.00  0.00    +0.000 A 
ATOM     10  C   UNL     1      -3.572  15.789  22.814  0.00  0.00    +0.000 A 
ATOM     11  C   UNL     1      -4.632  15.786  23.728  0.00  0.00    +0.000 A 
ATOM     12  C   UNL     1      -5.720  14.904  23.574  0.00  0.00    +0.000 A 
ATOM     13  C   UNL     1      -5.481  13.703  22.933  0.00  0.00    +0.000 A 
ATOM     14  C   UNL     1      -4.268  13.589  22.296  0.00  0.00    +0.000 A 
ATOM     15  N   UNL     1      -3.534  12.351  22.104  0.00  0.00    +0.000 N 
ATOM     16  C   UNL     1      -2.517  12.311  23.235  0.00  0.00    +0.000 C 
ATOM     17  C   UNL     1      -1.237  11.513  22.927  0.00  0.00    +0.000 C 
ENDROOT
BRANCH   1  19
ATOM     18  C   UNL     1       1.686   8.118  20.082  0.00  0.00    +0.000 C 
ATOM     19  O   UNL     1       1.341   9.271  19.330  0.00  0.00    +0.000 OA
ENDBRANCH   1  19
BRANCH   6  20
ATOM     20  O   UNL     1      -0.819  10.016  17.505  0.00  0.00    +0.000 OA
ATOM     21  C   UNL     1      -2.112  10.008  16.930  0.00  0.00    +0.000 C 
ENDBRANCH   6  20
BRANCH  11  22
ATOM     22  O   UNL     1      -4.477  16.445  24.930  0.00  0.00    +0.000 OA
ATOM     23  C   UNL     1      -3.224  17.172  24.905  0.00  0.00    +0.000 C 
ENDBRANCH  11  22
BRANCH  12  24
ATOM     24  O   UNL     1      -6.928  15.173  24.154  0.00  0.00    +0.000 OA
ATOM     25  C   UNL     1      -7.740  13.984  24.168  0.00  0.00    +0.000 C 
ENDBRANCH  12  24
TORSDOF 4
ENDMDL
MODEL 5
REMARK VINA RESULT:      -5.4      2.329      8.474
REMARK  Name = 
REMARK  8 active torsions:
REMARK  status: ('A' for Active; 'I' for Inactive)
REMARK    1  A    between atoms: C_1  and  O_2
REMARK    2  A    between atoms: O_2  and  C_3
REMARK    3  A    between atoms: C_8  and  O_9
REMARK    4  A    between atoms: O_9  and  C_10
REMARK    5  A    between atoms: C_15  and  O_16
REMARK    6  A    between atoms: O_16  and  C_17
REMARK    7  A    between atoms: C_18  and  O_19
REMARK    8  A    between atoms: O_19  and  C_20
REMARK                            x       y       z     vdW  Elec       q    Type
REMARK                         _______ _______ _______ _____ _____    ______ ____
ROOT
ATOM      1  C   UNL     1       2.528   7.022  18.357  0.00  0.00    +0.000 A 
ATOM      2  C   UNL     1       2.241   8.296  17.832  0.00  0.00    +0.000 A 
ATOM      3  C   UNL     1       1.695   9.302  18.641  0.00  0.00    +0.000 A 
ATOM      4  C   UNL     1       1.286   8.988  19.946  0.00  0.00    +0.000 A 
ATOM      5  C   UNL     1       1.644   7.752  20.483  0.00  0.00    +0.000 A 
ATOM      6  C   UNL     1       2.276   6.775  19.712  0.00  0.00    +0.000 A 
ATOM      7  C   UNL     1       0.559   9.976  20.794  0.00  0.00    +0.000 C 
ATOM      8  C   UNL     1      -0.974  10.159  20.502  0.00  0.00    +0.000 C 
ATOM      9  C   UNL     1      -1.133  11.592  20.922  0.00  0.00    +0.000 A 
ATOM     10  C   UNL     1      -2.118  12.525  20.701  0.00  0.00    +0.000 A 
ATOM     11  C   UNL     1      -1.838  13.833  21.113  0.00  0.00    +0.000 A 
ATOM     12  C   UNL     1      -0.779  14.103  22.001  0.00  0.00    +0.000 A 
ATOM     13  C   UNL     1       0.299  13.238  21.991  0.00  0.00    +0.000 A 
ATOM     14  C   UNL     1       0.126  12.067  21.290  0.00  0.00    +0.000 A 
ATOM     15  N   UNL     1       1.181  11.327  20.622  0.00  0.00    +0.000 N 
ATOM     16  C   UNL     1       1.115  11.764  19.167  0.00  0.00    +0.000 C 
ATOM     17  C   UNL     1       1.626  10.724  18.153  0.00  0.00    +0.000 C 
ENDROOT
BRANCH   1  19
ATOM     18  C   UNL     1       4.440   5.942  17.405  0.00  0.00    +0.000 C 
ATOM     19  O   UNL     1       3.037   6.000  17.600  0.00  0.00    +0.000 OA
ENDBRANCH   1  19
BRANCH   6  20
ATOM     20  O   UNL     1       2.577   5.670  20.469  0.00  0.00    +0.000 OA
ATOM     21  C   UNL     1       1.592   4.666  20.630  0.00  0.00    +0.000 C 
ENDBRANCH   6  20
BRANCH  11  22
ATOM     22  O   UNL     1      -2.417  14.883  20.431  0.00  0.00    +0.000 OA
ATOM     23  C   UNL     1      -3.754  15.094  20.946  0.00  0.00    +0.000 C 
ENDBRANCH  11  22
BRANCH  12  24
ATOM     24  O   UNL     1      -0.764  15.249  22.747  0.00  0.00    +0.000 OA
ATOM     25  C   UNL     1      -1.343  14.999  24.041  0.00  0.00    +0.000 C 
ENDBRANCH  12  24
TORSDOF 4
ENDMDL
MODEL 6
REMARK VINA RESULT:      -5.4      1.622      7.762
REMARK  Name = 
REMARK  8 active torsions:
REMARK  status: ('A' for Active; 'I' for Inactive)
REMARK    1  A    between atoms: C_1  and  O_2
REMARK    2  A    between atoms: O_2  and  C_3
REMARK    3  A    between atoms: C_8  and  O_9
REMARK    4  A    between atoms: O_9  and  C_10
REMARK    5  A    between atoms: C_15  and  O_16
REMARK    6  A    between atoms: O_16  and  C_17
REMARK    7  A    between atoms: C_18  and  O_19
REMARK    8  A    between atoms: O_19  and  C_20
REMARK                            x       y       z     vdW  Elec       q    Type
REMARK                         _______ _______ _______ _____ _____    ______ ____
ROOT
ATOM      1  C   UNL     1       4.188   4.541  18.983  0.00  0.00    +0.000 A 
ATOM      2  C   UNL     1       3.637   5.388  19.964  0.00  0.00    +0.000 A 
ATOM      3  C   UNL     1       2.865   6.500  19.603  0.00  0.00    +0.000 A 
ATOM      4  C   UNL     1       2.769   6.862  18.250  0.00  0.00    +0.000 A 
ATOM      5  C   UNL     1       3.248   5.978  17.285  0.00  0.00    +0.000 A 
ATOM      6  C   UNL     1       3.938   4.816  17.633  0.00  0.00    +0.000 A 
ATOM      7  C   UNL     1       2.091   8.120  17.826  0.00  0.00    +0.000 C 
ATOM      8  C   UNL     1       2.915   9.449  17.984  0.00  0.00    +0.000 C 
ATOM      9  C   UNL     1       1.784  10.412  18.200  0.00  0.00    +0.000 A 
ATOM     10  C   UNL     1       1.734  11.700  18.679  0.00  0.00    +0.000 A 
ATOM     11  C   UNL     1       0.458  12.231  18.902  0.00  0.00    +0.000 A 
ATOM     12  C   UNL     1      -0.687  11.626  18.347  0.00  0.00    +0.000 A 
ATOM     13  C   UNL     1      -0.640  10.264  18.115  0.00  0.00    +0.000 A 
ATOM     14  C   UNL     1       0.599   9.676  18.223  0.00  0.00    +0.000 A 
ATOM     15  N   UNL     1       0.843   8.304  18.631  0.00  0.00    +0.000 N 
ATOM     16  C   UNL     1       1.170   8.382  20.114  0.00  0.00    +0.000 C 
ATOM     17  C   UNL     1       2.073   7.251  20.640  0.00  0.00    +0.000 C 
ENDROOT
BRANCH   1  19
ATOM     18  C   UNL     1       4.370   2.358  19.948  0.00  0.00    +0.000 C 
ATOM     19  O   UNL     1       4.972   3.459  19.286  0.00  0.00    +0.000 OA
ENDBRANCH   1  19
BRANCH   6  20
ATOM     20  O   UNL     1       4.261   4.082  16.519  0.00  0.00    +0.000 OA
ATOM     21  C   UNL     1       5.530   4.272  15.923  0.00  0.00    +0.000 C 
ENDBRANCH   6  20
BRANCH  11  22
ATOM     22  O   UNL     1       0.295  13.177  19.893  0.00  0.00    +0.000 OA
ATOM     23  C   UNL     1       0.173  12.501  21.168  0.00  0.00    +0.000 C 
ENDBRANCH  11  22
BRANCH  12  24
ATOM     24  O   UNL     1      -1.840  12.338  18.170  0.00  0.00    +0.000 OA
ATOM     25  C   UNL     1      -2.949  11.438  17.991  0.00  0.00    +0.000 C 
ENDBRANCH  12  24
TORSDOF 4
ENDMDL
MODEL 7
REMARK VINA RESULT:      -5.3      3.518      6.276
REMARK  Name = 
REMARK  8 active torsions:
REMARK  status: ('A' for Active; 'I' for Inactive)
REMARK    1  A    between atoms: C_1  and  O_2
REMARK    2  A    between atoms: O_2  and  C_3
REMARK    3  A    between atoms: C_8  and  O_9
REMARK    4  A    between atoms: O_9  and  C_10
REMARK    5  A    between atoms: C_15  and  O_16
REMARK    6  A    between atoms: O_16  and  C_17
REMARK    7  A    between atoms: C_18  and  O_19
REMARK    8  A    between atoms: O_19  and  C_20
REMARK                            x       y       z     vdW  Elec       q    Type
REMARK                         _______ _______ _______ _____ _____    ______ ____
ROOT
ATOM      1  C   UNL     1       1.834   6.474  20.510  0.00  0.00    +0.000 A 
ATOM      2  C   UNL     1       2.508   7.234  19.535  0.00  0.00    +0.000 A 
ATOM      3  C   UNL     1       3.225   6.610  18.505  0.00  0.00    +0.000 A 
ATOM      4  C   UNL     1       3.402   5.218  18.535  0.00  0.00    +0.000 A 
ATOM      5  C   UNL     1       2.668   4.469  19.453  0.00  0.00    +0.000 A 
ATOM      6  C   UNL     1       1.873   5.076  20.426  0.00  0.00    +0.000 A 
ATOM      7  C   UNL     1       4.283   4.523  17.553  0.00  0.00    +0.000 C 
ATOM      8  C   UNL     1       5.829   4.590  17.827  0.00  0.00    +0.000 C 
ATOM      9  C   UNL     1       6.331   4.505  16.415  0.00  0.00    +0.000 A 
ATOM     10  C   UNL     1       7.550   4.775  15.840  0.00  0.00    +0.000 A 
ATOM     11  C   UNL     1       7.599   4.743  14.442  0.00  0.00    +0.000 A 
ATOM     12  C   UNL     1       6.571   4.135  13.694  0.00  0.00    +0.000 A 
ATOM     13  C   UNL     1       5.304   4.119  14.247  0.00  0.00    +0.000 A 
ATOM     14  C   UNL     1       5.219   4.478  15.571  0.00  0.00    +0.000 A 
ATOM     15  N   UNL     1       4.074   5.116  16.195  0.00  0.00    +0.000 N 
ATOM     16  C   UNL     1       4.400   6.602  16.204  0.00  0.00    +0.000 C 
ATOM     17  C   UNL     1       3.728   7.407  17.331  0.00  0.00    +0.000 C 
ENDROOT
BRANCH   1  19
ATOM     18  C   UNL     1       0.884   8.432  21.507  0.00  0.00    +0.000 C 
ATOM     19  O   UNL     1       1.143   7.038  21.549  0.00  0.00    +0.000 OA
ENDBRANCH   1  19
BRANCH   6  20
ATOM     20  O   UNL     1       1.208   4.138  21.176  0.00  0.00    +0.000 OA
ATOM     21  C   UNL     1       1.512   2.770  20.979  0.00  0.00    +0.000 C 
ENDBRANCH   6  20
BRANCH  11  22
ATOM     22  O   UNL     1       8.507   5.550  13.788  0.00  0.00    +0.000 OA
ATOM     23  C   UNL     1       7.981   5.880  12.480  0.00  0.00    +0.000 C 
ENDBRANCH  11  22
BRANCH  12  24
ATOM     24  O   UNL     1       6.796   3.700  12.417  0.00  0.00    +0.000 OA
ATOM     25  C   UNL     1       5.686   2.899  11.971  0.00  0.00    +0.000 C 
ENDBRANCH  12  24
TORSDOF 4
ENDMDL
MODEL 8
REMARK VINA RESULT:      -5.3      1.335      1.504
REMARK  Name = 
REMARK  8 active torsions:
REMARK  status: ('A' for Active; 'I' for Inactive)
REMARK    1  A    between atoms: C_1  and  O_2
REMARK    2  A    between atoms: O_2  and  C_3
REMARK    3  A    between atoms: C_8  and  O_9
REMARK    4  A    between atoms: O_9  and  C_10
REMARK    5  A    between atoms: C_15  and  O_16
REMARK    6  A    between atoms: O_16  and  C_17
REMARK    7  A    between atoms: C_18  and  O_19
REMARK    8  A    between atoms: O_19  and  C_20
REMARK                            x       y       z     vdW  Elec       q    Type
REMARK                         _______ _______ _______ _____ _____    ______ ____
ROOT
ATOM      1  C   UNL     1      -0.215  10.517  20.629  0.00  0.00    +0.000 A 
ATOM      2  C   UNL     1       0.258   9.307  21.172  0.00  0.00    +0.000 A 
ATOM      3  C   UNL     1       1.114   8.475  20.438  0.00  0.00    +0.000 A 
ATOM      4  C   UNL     1       1.377   8.774  19.092  0.00  0.00    +0.000 A 
ATOM      5  C   UNL     1       0.972  10.009  18.588  0.00  0.00    +0.000 A 
ATOM      6  C   UNL     1       0.198  10.890  19.344  0.00  0.00    +0.000 A 
ATOM      7  C   UNL     1       2.153   7.842  18.224  0.00  0.00    +0.000 C 
ATOM      8  C   UNL     1       1.376   6.601  17.656  0.00  0.00    +0.000 C 
ATOM      9  C   UNL     1       2.516   5.630  17.542  0.00  0.00    +0.000 A 
ATOM     10  C   UNL     1       2.568   4.266  17.381  0.00  0.00    +0.000 A 
ATOM     11  C   UNL     1       3.832   3.675  17.488  0.00  0.00    +0.000 A 
ATOM     12  C   UNL     1       5.005   4.452  17.413  0.00  0.00    +0.000 A 
ATOM     13  C   UNL     1       4.925   5.769  17.826  0.00  0.00    +0.000 A 
ATOM     14  C   UNL     1       3.658   6.259  18.041  0.00  0.00    +0.000 A 
ATOM     15  N   UNL     1       3.310   7.292  18.999  0.00  0.00    +0.000 N 
ATOM     16  C   UNL     1       2.821   6.546  20.231  0.00  0.00    +0.000 C 
ATOM     17  C   UNL     1       1.816   7.321  21.103  0.00  0.00    +0.000 C 
ENDROOT
BRANCH   1  19
ATOM     18  C   UNL     1      -1.065  11.328  22.715  0.00  0.00    +0.000 C 
ATOM     19  O   UNL     1      -1.074  11.349  21.297  0.00  0.00    +0.000 OA
ENDBRANCH   1  19
BRANCH   6  20
ATOM     20  O   UNL     1      -0.029  12.058  18.659  0.00  0.00    +0.000 OA
ATOM     21  C   UNL     1      -1.269  12.230  17.999  0.00  0.00    +0.000 C 
ENDBRANCH   6  20
BRANCH  11  22
ATOM     22  O   UNL     1       3.924   2.378  17.948  0.00  0.00    +0.000 OA
ATOM     23  C   UNL     1       3.983   2.399  19.394  0.00  0.00    +0.000 C 
ENDBRANCH  11  22
BRANCH  12  24
ATOM     24  O   UNL     1       6.201   3.886  17.070  0.00  0.00    +0.000 OA
ATOM     25  C   UNL     1       7.282   4.623  17.671  0.00  0.00    +0.000 C 
ENDBRANCH  12  24
TORSDOF 4
ENDMDL
MODEL 9
REMARK VINA RESULT:      -5.3      2.524      8.486
REMARK  Name = 
REMARK  8 active torsions:
REMARK  status: ('A' for Active; 'I' for Inactive)
REMARK    1  A    between atoms: C_1  and  O_2
REMARK    2  A    between atoms: O_2  and  C_3
REMARK    3  A    between atoms: C_8  and  O_9
REMARK    4  A    between atoms: O_9  and  C_10
REMARK    5  A    between atoms: C_15  and  O_16
REMARK    6  A    between atoms: O_16  and  C_17
REMARK    7  A    between atoms: C_18  and  O_19
REMARK    8  A    between atoms: O_19  and  C_20
REMARK                            x       y       z     vdW  Elec       q    Type
REMARK                         _______ _______ _______ _____ _____    ______ ____
ROOT
ATOM      1  C   UNL     1       2.177   6.901  20.008  0.00  0.00    +0.000 A 
ATOM      2  C   UNL     1       1.501   7.475  21.101  0.00  0.00    +0.000 A 
ATOM      3  C   UNL     1       0.887   8.729  20.990  0.00  0.00    +0.000 A 
ATOM      4  C   UNL     1       1.080   9.489  19.826  0.00  0.00    +0.000 A 
ATOM      5  C   UNL     1       1.680   8.884  18.722  0.00  0.00    +0.000 A 
ATOM      6  C   UNL     1       2.212   7.596  18.792  0.00  0.00    +0.000 A 
ATOM      7  C   UNL     1       0.580  10.890  19.717  0.00  0.00    +0.000 C 
ATOM      8  C   UNL     1       1.440  11.999  20.422  0.00  0.00    +0.000 C 
ATOM      9  C   UNL     1       0.354  12.984  20.743  0.00  0.00    +0.000 A 
ATOM     10  C   UNL     1       0.294  14.064  21.591  0.00  0.00    +0.000 A 
ATOM     11  C   UNL     1      -0.964  14.655  21.758  0.00  0.00    +0.000 A 
ATOM     12  C   UNL     1      -2.015  14.389  20.859  0.00  0.00    +0.000 A 
ATOM     13  C   UNL     1      -2.011  13.164  20.218  0.00  0.00    +0.000 A 
ATOM     14  C   UNL     1      -0.858  12.424  20.335  0.00  0.00    +0.000 A 
ATOM     15  N   UNL     1      -0.787  10.975  20.322  0.00  0.00    +0.000 N 
ATOM     16  C   UNL     1      -0.751  10.563  21.785  0.00  0.00    +0.000 C 
ATOM     17  C   UNL     1      -0.042   9.225  22.066  0.00  0.00    +0.000 C 
ENDROOT
BRANCH   1  19
ATOM     18  C   UNL     1       2.023   4.518  20.175  0.00  0.00    +0.000 C 
ATOM     19  O   UNL     1       2.815   5.690  20.076  0.00  0.00    +0.000 OA
ENDBRANCH   1  19
BRANCH   6  20
ATOM     20  O   UNL     1       2.698   7.197  17.572  0.00  0.00    +0.000 OA
ATOM     21  C   UNL     1       4.092   7.008  17.423  0.00  0.00    +0.000 C 
ENDBRANCH   6  20
BRANCH  11  22
ATOM     22  O   UNL     1      -1.256  15.273  22.956  0.00  0.00    +0.000 OA
ATOM     23  C   UNL     1      -1.542  14.256  23.947  0.00  0.00    +0.000 C 
ENDBRANCH  11  22
BRANCH  12  24
ATOM     24  O   UNL     1      -3.064  15.257  20.729  0.00  0.00    +0.000 OA
ATOM     25  C   UNL     1      -4.285  14.613  21.137  0.00  0.00    +0.000 C 
ENDBRANCH  12  24
TORSDOF 4
ENDMDL
