MODEL 1
REMARK VINA RESULT:      -8.0      0.000      0.000
REMARK  Name = 
REMARK  5 active torsions:
REMARK  status: ('A' for Active; 'I' for Inactive)
REMARK    1  A    between atoms: C_1  and  O_2
REMARK    2  A    between atoms: O_2  and  C_3
REMARK    3  A    between atoms: C_5  and  O_6
REMARK    4  A    between atoms: O_6  and  C_7
REMARK    5  A    between atoms: N_10  and  C_11
REMARK                            x       y       z     vdW  Elec       q    Type
REMARK                         _______ _______ _______ _____ _____    ______ ____
ROOT
ATOM      1  C   UNL     1       6.672   4.720  14.788  0.00  0.00    +0.000 A 
ATOM      2  N   UNL     1       7.490   5.486  15.542  0.00  0.00    +0.000 NA
ATOM      3  C   UNL     1       7.122   5.662  16.820  0.00  0.00    +0.000 A 
ATOM      4  C   UNL     1       5.991   5.112  17.344  0.00  0.00    +0.000 A 
ATOM      5  S   UNL     1       5.323   5.291  18.929  0.00  0.00    +0.000 S 
ATOM      6  N   UNL     1       3.991   4.267  18.522  0.00  0.00    +0.000 N 
ATOM      7  C   UNL     1       4.059   3.754  17.209  0.00  0.00    +0.000 A 
ATOM      8  O   UNL     1       3.288   2.975  16.663  0.00  0.00    +0.000 OA
ATOM      9  C   UNL     1       5.256   4.326  16.507  0.00  0.00    +0.000 A 
ATOM     10  N   UNL     1       5.556   4.099  15.212  0.00  0.00    +0.000 NA
ENDROOT
BRANCH   6  11
ATOM     11  C   UNL     1       3.090   3.900  19.565  0.00  0.00    +0.000 A 
ATOM     12  C   UNL     1       1.773   4.360  19.626  0.00  0.00    +0.000 A 
ATOM     13  C   UNL     1       0.879   3.829  20.571  0.00  0.00    +0.000 A 
ATOM     14  C   UNL     1       1.296   2.860  21.484  0.00  0.00    +0.000 A 
ATOM     15  C   UNL     1       2.618   2.447  21.489  0.00  0.00    +0.000 A 
ATOM     16  C   UNL     1       3.502   2.973  20.551  0.00  0.00    +0.000 A 
ENDBRANCH   6  11
BRANCH   1  18
ATOM     17  C   UNL     1       6.132   3.588  12.814  0.00  0.00    +0.000 C 
ATOM     18  O   UNL     1       6.963   4.557  13.449  0.00  0.00    +0.000 OA
ENDBRANCH   1  18
BRANCH   3  19
ATOM     19  O   UNL     1       7.879   6.428  17.682  0.00  0.00    +0.000 OA
ATOM     20  C   UNL     1       7.695   7.827  17.562  0.00  0.00    +0.000 C 
ENDBRANCH   3  19
TORSDOF 3
ENDMDL
MODEL 2
REMARK VINA RESULT:      -7.8      0.160      1.086
REMARK  Name = 
REMARK  5 active torsions:
REMARK  status: ('A' for Active; 'I' for Inactive)
REMARK    1  A    between atoms: C_1  and  O_2
REMARK    2  A    between atoms: O_2  and  C_3
REMARK    3  A    between atoms: C_5  and  O_6
REMARK    4  A    between atoms: O_6  and  C_7
REMARK    5  A    between atoms: N_10  and  C_11
REMARK                            x       y       z     vdW  Elec       q    Type
REMARK                         _______ _______ _______ _____ _____    ______ ____
ROOT
ATOM      1  C   UNL     1       6.714   4.811  14.746  0.00  0.00    +0.000 A 
ATOM      2  N   UNL     1       7.504   5.562  15.545  0.00  0.00    +0.000 NA
ATOM      3  C   UNL     1       7.117   5.668  16.825  0.00  0.00    +0.000 A 
ATOM      4  C   UNL     1       5.996   5.065  17.309  0.00  0.00    +0.000 A 
ATOM      5  S   UNL     1       5.307   5.151  18.893  0.00  0.00    +0.000 S 
ATOM      6  N   UNL     1       4.008   4.113  18.423  0.00  0.00    +0.000 N 
ATOM      7  C   UNL     1       4.103   3.663  17.088  0.00  0.00    +0.000 A 
ATOM      8  O   UNL     1       3.359   2.891  16.497  0.00  0.00    +0.000 OA
ATOM      9  C   UNL     1       5.291   4.300  16.428  0.00  0.00    +0.000 A 
ATOM     10  N   UNL     1       5.611   4.141  15.127  0.00  0.00    +0.000 NA
ENDROOT
BRANCH   6  11
ATOM     11  C   UNL     1       3.106   3.672  19.436  0.00  0.00    +0.000 A 
ATOM     12  C   UNL     1       3.476   2.778  20.443  0.00  0.00    +0.000 A 
ATOM     13  C   UNL     1       2.606   2.517  21.515  0.00  0.00    +0.000 A 
ATOM     14  C   UNL     1       1.348   3.118  21.577  0.00  0.00    +0.000 A 
ATOM     15  C   UNL     1       0.933   3.948  20.549  0.00  0.00    +0.000 A 
ATOM     16  C   UNL     1       1.798   4.206  19.489  0.00  0.00    +0.000 A 
ENDBRANCH   6  11
BRANCH   1  18
ATOM     17  C   UNL     1       6.341   3.653  12.748  0.00  0.00    +0.000 C 
ATOM     18  O   UNL     1       7.024   4.719  13.404  0.00  0.00    +0.000 OA
ENDBRANCH   1  18
BRANCH   3  19
ATOM     19  O   UNL     1       7.845   6.413  17.730  0.00  0.00    +0.000 OA
ATOM     20  C   UNL     1       7.719   7.817  17.593  0.00  0.00    +0.000 C 
ENDBRANCH   3  19
TORSDOF 3
ENDMDL
MODEL 3
REMARK VINA RESULT:      -6.6      1.691      3.254
REMARK  Name = 
REMARK  5 active torsions:
REMARK  status: ('A' for Active; 'I' for Inactive)
REMARK    1  A    between atoms: C_1  and  O_2
REMARK    2  A    between atoms: O_2  and  C_3
REMARK    3  A    between atoms: C_5  and  O_6
REMARK    4  A    between atoms: O_6  and  C_7
REMARK    5  A    between atoms: N_10  and  C_11
REMARK                            x       y       z     vdW  Elec       q    Type
REMARK                         _______ _______ _______ _____ _____    ______ ____
ROOT
ATOM      1  C   UNL     1       7.289   6.650  16.743  0.00  0.00    +0.000 A 
ATOM      2  N   UNL     1       7.412   5.724  15.767  0.00  0.00    +0.000 NA
ATOM      3  C   UNL     1       6.571   4.681  15.834  0.00  0.00    +0.000 A 
ATOM      4  C   UNL     1       5.643   4.544  16.822  0.00  0.00    +0.000 A 
ATOM      5  S   UNL     1       4.539   3.245  17.111  0.00  0.00    +0.000 S 
ATOM      6  N   UNL     1       3.912   4.042  18.511  0.00  0.00    +0.000 N 
ATOM      7  C   UNL     1       4.499   5.304  18.748  0.00  0.00    +0.000 A 
ATOM      8  O   UNL     1       4.227   6.108  19.631  0.00  0.00    +0.000 OA
ATOM      9  C   UNL     1       5.579   5.554  17.736  0.00  0.00    +0.000 A 
ATOM     10  N   UNL     1       6.386   6.634  17.740  0.00  0.00    +0.000 NA
ENDROOT
BRANCH   6  11
ATOM     11  C   UNL     1       2.779   3.463  19.156  0.00  0.00    +0.000 A 
ATOM     12  C   UNL     1       2.716   3.257  20.535  0.00  0.00    +0.000 A 
ATOM     13  C   UNL     1       1.513   2.851  21.138  0.00  0.00    +0.000 A 
ATOM     14  C   UNL     1       0.373   2.615  20.369  0.00  0.00    +0.000 A 
ATOM     15  C   UNL     1       0.437   2.740  18.991  0.00  0.00    +0.000 A 
ATOM     16  C   UNL     1       1.630   3.144  18.397  0.00  0.00    +0.000 A 
ENDBRANCH   6  11
BRANCH   1  18
ATOM     17  C   UNL     1       7.863   8.668  17.776  0.00  0.00    +0.000 C 
ATOM     18  O   UNL     1       8.171   7.712  16.764  0.00  0.00    +0.000 OA
ENDBRANCH   1  18
BRANCH   3  19
ATOM     19  O   UNL     1       6.608   3.673  14.893  0.00  0.00    +0.000 OA
ATOM     20  C   UNL     1       6.239   4.061  13.582  0.00  0.00    +0.000 C 
ENDBRANCH   3  19
TORSDOF 3
ENDMDL
MODEL 4
REMARK VINA RESULT:      -6.6      5.538      7.732
REMARK  Name = 
REMARK  5 active torsions:
REMARK  status: ('A' for Active; 'I' for Inactive)
REMARK    1  A    between atoms: C_1  and  O_2
REMARK    2  A    between atoms: O_2  and  C_3
REMARK    3  A    between atoms: C_5  and  O_6
REMARK    4  A    between atoms: O_6  and  C_7
REMARK    5  A    between atoms: N_10  and  C_11
REMARK                            x       y       z     vdW  Elec       q    Type
REMARK                         _______ _______ _______ _____ _____    ______ ____
ROOT
ATOM      1  C   UNL     1       0.396   9.987  21.869  0.00  0.00    +0.000 A 
ATOM      2  N   UNL     1       0.347  10.889  20.863  0.00  0.00    +0.000 NA
ATOM      3  C   UNL     1       0.834  10.481  19.682  0.00  0.00    +0.000 A 
ATOM      4  C   UNL     1       1.354   9.237  19.488  0.00  0.00    +0.000 A 
ATOM      5  S   UNL     1       2.090   8.570  18.071  0.00  0.00    +0.000 S 
ATOM      6  N   UNL     1       2.378   7.072  18.884  0.00  0.00    +0.000 N 
ATOM      7  C   UNL     1       1.890   7.049  20.209  0.00  0.00    +0.000 A 
ATOM      8  O   UNL     1       1.911   6.118  21.004  0.00  0.00    +0.000 OA
ATOM      9  C   UNL     1       1.322   8.393  20.558  0.00  0.00    +0.000 A 
ATOM     10  N   UNL     1       0.851   8.724  21.778  0.00  0.00    +0.000 NA
ENDROOT
BRANCH   6  11
ATOM     11  C   UNL     1       2.886   5.983  18.115  0.00  0.00    +0.000 A 
ATOM     12  C   UNL     1       4.179   5.966  17.589  0.00  0.00    +0.000 A 
ATOM     13  C   UNL     1       4.687   4.800  16.993  0.00  0.00    +0.000 A 
ATOM     14  C   UNL     1       3.902   3.651  16.887  0.00  0.00    +0.000 A 
ATOM     15  C   UNL     1       2.592   3.673  17.334  0.00  0.00    +0.000 A 
ATOM     16  C   UNL     1       2.091   4.830  17.925  0.00  0.00    +0.000 A 
ENDBRANCH   6  11
BRANCH   1  18
ATOM     17  C   UNL     1      -1.223  11.148  23.093  0.00  0.00    +0.000 C 
ATOM     18  O   UNL     1      -0.029  10.370  23.125  0.00  0.00    +0.000 OA
ENDBRANCH   1  18
BRANCH   3  19
ATOM     19  O   UNL     1       0.838  11.318  18.585  0.00  0.00    +0.000 OA
ATOM     20  C   UNL     1       1.686  12.448  18.694  0.00  0.00    +0.000 C 
ENDBRANCH   3  19
TORSDOF 3
ENDMDL
MODEL 5
REMARK VINA RESULT:      -6.6      1.743      3.178
REMARK  Name = 
REMARK  5 active torsions:
REMARK  status: ('A' for Active; 'I' for Inactive)
REMARK    1  A    between atoms: C_1  and  O_2
REMARK    2  A    between atoms: O_2  and  C_3
REMARK    3  A    between atoms: C_5  and  O_6
REMARK    4  A    between atoms: O_6  and  C_7
REMARK    5  A    between atoms: N_10  and  C_11
REMARK                            x       y       z     vdW  Elec       q    Type
REMARK                         _______ _______ _______ _____ _____    ______ ____
ROOT
ATOM      1  C   UNL     1       7.322   6.719  16.770  0.00  0.00    +0.000 A 
ATOM      2  N   UNL     1       7.467   5.753  15.836  0.00  0.00    +0.000 NA
ATOM      3  C   UNL     1       6.582   4.746  15.888  0.00  0.00    +0.000 A 
ATOM      4  C   UNL     1       5.591   4.682  16.819  0.00  0.00    +0.000 A 
ATOM      5  S   UNL     1       4.419   3.437  17.084  0.00  0.00    +0.000 S 
ATOM      6  N   UNL     1       3.741   4.309  18.414  0.00  0.00    +0.000 N 
ATOM      7  C   UNL     1       4.362   5.556  18.642  0.00  0.00    +0.000 A 
ATOM      8  O   UNL     1       4.070   6.402  19.478  0.00  0.00    +0.000 OA
ATOM      9  C   UNL     1       5.511   5.727  17.692  0.00  0.00    +0.000 A 
ATOM     10  N   UNL     1       6.359   6.775  17.708  0.00  0.00    +0.000 NA
ENDROOT
BRANCH   6  11
ATOM     11  C   UNL     1       2.548   3.799  19.006  0.00  0.00    +0.000 A 
ATOM     12  C   UNL     1       1.505   3.251  18.256  0.00  0.00    +0.000 A 
ATOM     13  C   UNL     1       0.435   2.603  18.897  0.00  0.00    +0.000 A 
ATOM     14  C   UNL     1       0.377   2.525  20.289  0.00  0.00    +0.000 A 
ATOM     15  C   UNL     1       1.363   3.130  21.051  0.00  0.00    +0.000 A 
ATOM     16  C   UNL     1       2.423   3.769  20.414  0.00  0.00    +0.000 A 
ENDBRANCH   6  11
BRANCH   1  18
ATOM     17  C   UNL     1       7.910   8.754  17.761  0.00  0.00    +0.000 C 
ATOM     18  O   UNL     1       8.243   7.746  16.809  0.00  0.00    +0.000 OA
ENDBRANCH   1  18
BRANCH   3  19
ATOM     19  O   UNL     1       6.635   3.703  14.986  0.00  0.00    +0.000 OA
ATOM     20  C   UNL     1       6.291   4.040  13.654  0.00  0.00    +0.000 C 
ENDBRANCH   3  19
TORSDOF 3
ENDMDL
MODEL 6
REMARK VINA RESULT:      -6.4      5.083      7.627
REMARK  Name = 
REMARK  5 active torsions:
REMARK  status: ('A' for Active; 'I' for Inactive)
REMARK    1  A    between atoms: C_1  and  O_2
REMARK    2  A    between atoms: O_2  and  C_3
REMARK    3  A    between atoms: C_5  and  O_6
REMARK    4  A    between atoms: O_6  and  C_7
REMARK    5  A    between atoms: N_10  and  C_11
REMARK                            x       y       z     vdW  Elec       q    Type
REMARK                         _______ _______ _______ _____ _____    ______ ____
ROOT
ATOM      1  C   UNL     1       0.221   8.977  21.535  0.00  0.00    +0.000 A 
ATOM      2  N   UNL     1       0.070   9.979  20.641  0.00  0.00    +0.000 NA
ATOM      3  C   UNL     1       0.735   9.841  19.484  0.00  0.00    +0.000 A 
ATOM      4  C   UNL     1       1.523   8.765  19.209  0.00  0.00    +0.000 A 
ATOM      5  S   UNL     1       2.506   8.457  17.819  0.00  0.00    +0.000 S 
ATOM      6  N   UNL     1       3.034   6.951  18.483  0.00  0.00    +0.000 N 
ATOM      7  C   UNL     1       2.447   6.651  19.731  0.00  0.00    +0.000 A 
ATOM      8  O   UNL     1       2.595   5.643  20.412  0.00  0.00    +0.000 OA
ATOM      9  C   UNL     1       1.577   7.794  20.165  0.00  0.00    +0.000 A 
ATOM     10  N   UNL     1       0.941   7.855  21.353  0.00  0.00    +0.000 NA
ENDROOT
BRANCH   6  11
ATOM     11  C   UNL     1       3.827   6.101  17.657  0.00  0.00    +0.000 A 
ATOM     12  C   UNL     1       3.668   4.714  17.623  0.00  0.00    +0.000 A 
ATOM     13  C   UNL     1       4.351   3.944  16.666  0.00  0.00    +0.000 A 
ATOM     14  C   UNL     1       5.221   4.544  15.755  0.00  0.00    +0.000 A 
ATOM     15  C   UNL     1       5.450   5.908  15.822  0.00  0.00    +0.000 A 
ATOM     16  C   UNL     1       4.772   6.669  16.771  0.00  0.00    +0.000 A 
ENDBRANCH   6  11
BRANCH   1  18
ATOM     17  C   UNL     1      -0.812  10.423  23.056  0.00  0.00    +0.000 C 
ATOM     18  O   UNL     1      -0.385   9.093  22.770  0.00  0.00    +0.000 OA
ENDBRANCH   1  18
BRANCH   3  19
ATOM     19  O   UNL     1       0.657  10.803  18.498  0.00  0.00    +0.000 OA
ATOM     20  C   UNL     1       0.923  12.127  18.928  0.00  0.00    +0.000 C 
ENDBRANCH   3  19
TORSDOF 3
ENDMDL
MODEL 7
REMARK VINA RESULT:      -6.4      2.541      6.447
REMARK  Name = 
REMARK  5 active torsions:
REMARK  status: ('A' for Active; 'I' for Inactive)
REMARK    1  A    between atoms: C_1  and  O_2
REMARK    2  A    between atoms: O_2  and  C_3
REMARK    3  A    between atoms: C_5  and  O_6
REMARK    4  A    between atoms: O_6  and  C_7
REMARK    5  A    between atoms: N_10  and  C_11
REMARK                            x       y       z     vdW  Elec       q    Type
REMARK                         _______ _______ _______ _____ _____    ______ ____
ROOT
ATOM      1  C   UNL     1       2.679   5.380  19.693  0.00  0.00    +0.000 A 
ATOM      2  N   UNL     1       2.563   6.696  19.411  0.00  0.00    +0.000 NA
ATOM      3  C   UNL     1       3.169   7.114  18.289  0.00  0.00    +0.000 A 
ATOM      4  C   UNL     1       3.867   6.277  17.472  0.00  0.00    +0.000 A 
ATOM      5  S   UNL     1       4.768   6.646  16.042  0.00  0.00    +0.000 S 
ATOM      6  N   UNL     1       5.215   4.987  15.852  0.00  0.00    +0.000 N 
ATOM      7  C   UNL     1       4.659   4.141  16.836  0.00  0.00    +0.000 A 
ATOM      8  O   UNL     1       4.763   2.924  16.930  0.00  0.00    +0.000 OA
ATOM      9  C   UNL     1       3.891   4.962  17.830  0.00  0.00    +0.000 A 
ATOM     10  N   UNL     1       3.309   4.461  18.939  0.00  0.00    +0.000 NA
ENDROOT
BRANCH   6  11
ATOM     11  C   UNL     1       5.912   4.617  14.664  0.00  0.00    +0.000 A 
ATOM     12  C   UNL     1       5.388   3.726  13.726  0.00  0.00    +0.000 A 
ATOM     13  C   UNL     1       6.034   3.533  12.493  0.00  0.00    +0.000 A 
ATOM     14  C   UNL     1       7.223   4.201  12.197  0.00  0.00    +0.000 A 
ATOM     15  C   UNL     1       7.798   5.030  13.146  0.00  0.00    +0.000 A 
ATOM     16  C   UNL     1       7.155   5.220  14.366  0.00  0.00    +0.000 A 
ENDBRANCH   6  11
BRANCH   1  18
ATOM     17  C   UNL     1       2.136   3.480  20.944  0.00  0.00    +0.000 C 
ATOM     18  O   UNL     1       2.133   4.903  20.868  0.00  0.00    +0.000 OA
ENDBRANCH   1  18
BRANCH   3  19
ATOM     19  O   UNL     1       3.120   8.437  17.902  0.00  0.00    +0.000 OA
ATOM     20  C   UNL     1       1.834   9.029  17.943  0.00  0.00    +0.000 C 
ENDBRANCH   3  19
TORSDOF 3
ENDMDL
MODEL 8
REMARK VINA RESULT:      -6.3      5.154      7.716
REMARK  Name = 
REMARK  5 active torsions:
REMARK  status: ('A' for Active; 'I' for Inactive)
REMARK    1  A    between atoms: C_1  and  O_2
REMARK    2  A    between atoms: O_2  and  C_3
REMARK    3  A    between atoms: C_5  and  O_6
REMARK    4  A    between atoms: O_6  and  C_7
REMARK    5  A    between atoms: N_10  and  C_11
REMARK                            x       y       z     vdW  Elec       q    Type
REMARK                         _______ _______ _______ _____ _____    ______ ____
ROOT
ATOM      1  C   UNL     1       0.360   9.133  21.704  0.00  0.00    +0.000 A 
ATOM      2  N   UNL     1       0.138  10.127  20.816  0.00  0.00    +0.000 NA
ATOM      3  C   UNL     1       0.706   9.978  19.610  0.00  0.00    +0.000 A 
ATOM      4  C   UNL     1       1.468   8.898  19.281  0.00  0.00    +0.000 A 
ATOM      5  S   UNL     1       2.334   8.575  17.819  0.00  0.00    +0.000 S 
ATOM      6  N   UNL     1       2.912   7.074  18.450  0.00  0.00    +0.000 N 
ATOM      7  C   UNL     1       2.429   6.786  19.745  0.00  0.00    +0.000 A 
ATOM      8  O   UNL     1       2.631   5.785  20.420  0.00  0.00    +0.000 OA
ATOM      9  C   UNL     1       1.598   7.935  20.238  0.00  0.00    +0.000 A 
ATOM     10  N   UNL     1       1.061   8.008  21.473  0.00  0.00    +0.000 NA
ENDROOT
BRANCH   6  11
ATOM     11  C   UNL     1       3.635   6.215  17.570  0.00  0.00    +0.000 A 
ATOM     12  C   UNL     1       4.678   6.666  16.760  0.00  0.00    +0.000 A 
ATOM     13  C   UNL     1       5.470   5.750  16.047  0.00  0.00    +0.000 A 
ATOM     14  C   UNL     1       5.210   4.380  16.110  0.00  0.00    +0.000 A 
ATOM     15  C   UNL     1       4.132   3.921  16.847  0.00  0.00    +0.000 A 
ATOM     16  C   UNL     1       3.349   4.830  17.553  0.00  0.00    +0.000 A 
ENDBRANCH   6  11
BRANCH   1  18
ATOM     17  C   UNL     1      -0.894  10.459  23.166  0.00  0.00    +0.000 C 
ATOM     18  O   UNL     1      -0.143   9.261  22.982  0.00  0.00    +0.000 OA
ENDBRANCH   1  18
BRANCH   3  19
ATOM     19  O   UNL     1       0.550  10.932  18.625  0.00  0.00    +0.000 OA
ATOM     20  C   UNL     1      -0.792  11.267  18.320  0.00  0.00    +0.000 C 
ENDBRANCH   3  19
TORSDOF 3
ENDMDL
MODEL 9
REMARK VINA RESULT:      -6.3      3.693      5.131
REMARK  Name = 
REMARK  5 active torsions:
REMARK  status: ('A' for Active; 'I' for Inactive)
REMARK    1  A    between atoms: C_1  and  O_2
REMARK    2  A    between atoms: O_2  and  C_3
REMARK    3  A    between atoms: C_5  and  O_6
REMARK    4  A    between atoms: O_6  and  C_7
REMARK    5  A    between atoms: N_10  and  C_11
REMARK                            x       y       z     vdW  Elec       q    Type
REMARK                         _______ _______ _______ _____ _____    ______ ____
ROOT
ATOM      1  C   UNL     1       4.494   4.202  17.061  0.00  0.00    +0.000 A 
ATOM      2  N   UNL     1       4.064   3.242  17.910  0.00  0.00    +0.000 NA
ATOM      3  C   UNL     1       3.283   3.655  18.919  0.00  0.00    +0.000 A 
ATOM      4  C   UNL     1       2.936   4.959  19.098  0.00  0.00    +0.000 A 
ATOM      5  S   UNL     1       2.011   5.680  20.370  0.00  0.00    +0.000 S 
ATOM      6  N   UNL     1       2.195   7.247  19.664  0.00  0.00    +0.000 N 
ATOM      7  C   UNL     1       2.916   7.235  18.450  0.00  0.00    +0.000 A 
ATOM      8  O   UNL     1       3.163   8.179  17.710  0.00  0.00    +0.000 OA
ATOM      9  C   UNL     1       3.393   5.841  18.164  0.00  0.00    +0.000 A 
ATOM     10  N   UNL     1       4.181   5.509  17.121  0.00  0.00    +0.000 NA
ENDROOT
BRANCH   6  11
ATOM     11  C   UNL     1       1.470   8.329  20.246  0.00  0.00    +0.000 A 
ATOM     12  C   UNL     1       0.971   9.396  19.497  0.00  0.00    +0.000 A 
ATOM     13  C   UNL     1       0.116  10.340  20.089  0.00  0.00    +0.000 A 
ATOM     14  C   UNL     1      -0.225  10.248  21.439  0.00  0.00    +0.000 A 
ATOM     15  C   UNL     1       0.321   9.241  22.216  0.00  0.00    +0.000 A 
ATOM     16  C   UNL     1       1.168   8.306  21.627  0.00  0.00    +0.000 A 
ENDBRANCH   6  11
BRANCH   1  18
ATOM     17  C   UNL     1       6.101   4.953  15.537  0.00  0.00    +0.000 C 
ATOM     18  O   UNL     1       5.355   3.848  16.042  0.00  0.00    +0.000 OA
ENDBRANCH   1  18
BRANCH   3  19
ATOM     19  O   UNL     1       2.788   2.763  19.848  0.00  0.00    +0.000 OA
ATOM     20  C   UNL     1       1.625   2.060  19.448  0.00  0.00    +0.000 C 
ENDBRANCH   3  19
TORSDOF 3
ENDMDL
