MODEL 1
REMARK VINA RESULT:      -7.6      0.000      0.000
REMARK  Name = 
REMARK  6 active torsions:
REMARK  status: ('A' for Active; 'I' for Inactive)
REMARK    1  A    between atoms: C_1  and  N_2
REMARK    2  A    between atoms: N_2  and  C_3
REMARK    3  A    between atoms: C_3  and  C_4
REMARK    4  A    between atoms: C_10  and  C_12
REMARK    5  A    between atoms: C_12  and  N_13
REMARK    6  A    between atoms: C_15  and  C_16
REMARK                            x       y       z     vdW  Elec       q    Type
REMARK                         _______ _______ _______ _____ _____    ______ ____
ROOT
ATOM      1  N   UNL     1       5.384   3.949  18.575  0.00  0.00    +0.000 N 
ATOM      2  N   UNL     1       5.209   3.590  17.260  0.00  0.00    +0.000 NA
ATOM      3  C   UNL     1       6.083   4.335  16.654  0.00  0.00    +0.000 A 
ATOM      4  O   UNL     1       6.823   5.148  17.447  0.00  0.00    +0.000 OA
ATOM      5  C   UNL     1       6.370   4.892  18.703  0.00  0.00    +0.000 A 
ATOM      6  O   UNL     1       6.812   5.395  19.722  0.00  0.00    +0.000 OA
ENDROOT
BRANCH   3   7
ATOM      7  C   UNL     1       6.393   4.405  15.215  0.00  0.00    +0.000 A 
ATOM      8  C   UNL     1       5.643   3.653  14.303  0.00  0.00    +0.000 A 
ATOM      9  C   UNL     1       5.941   3.702  12.936  0.00  0.00    +0.000 A 
ATOM     10  C   UNL     1       6.989   4.502  12.487  0.00  0.00    +0.000 A 
ATOM     11  F   UNL     1       7.273   4.545  11.182  0.00  0.00    +0.000 F 
ATOM     12  C   UNL     1       7.743   5.256  13.379  0.00  0.00    +0.000 A 
ATOM     13  C   UNL     1       7.447   5.211  14.744  0.00  0.00    +0.000 A 
ENDBRANCH   3   7
BRANCH   1  14
ATOM     14  C   UNL     1       4.654   3.365  19.679  0.00  0.00    +0.000 C 
BRANCH  14  17
ATOM     15  C   UNL     1       0.828   3.493  19.380  0.00  0.00    +0.000 C 
ATOM     16  N   UNL     1       2.195   3.873  19.704  0.00  0.00    +0.000 N 
ATOM     17  C   UNL     1       3.210   3.000  19.301  0.00  0.00    +0.000 C 
ATOM     18  O   UNL     1       2.944   1.970  18.675  0.00  0.00    +0.000 OA
BRANCH  16  19
ATOM     19  C   UNL     1       2.396   5.146  20.395  0.00  0.00    +0.000 C 
BRANCH  19  20
ATOM     20  C   UNL     1       2.368   6.325  19.463  0.00  0.00    +0.000 A 
ATOM     21  C   UNL     1       2.808   6.473  18.158  0.00  0.00    +0.000 A 
ATOM     22  C   UNL     1       2.617   7.800  17.660  0.00  0.00    +0.000 A 
ATOM     23  C   UNL     1       2.029   8.602  18.600  0.00  0.00    +0.000 A 
ATOM     24 CL   UNL     1       1.635  10.265  18.431  0.00  0.00    +0.000 Cl
ATOM     25  S   UNL     1       1.693   7.803  20.049  0.00  0.00    +0.000 S 
ENDBRANCH  19  20
ENDBRANCH  16  19
ENDBRANCH  14  17
ENDBRANCH   1  14
TORSDOF 5
ENDMDL
MODEL 2
REMARK VINA RESULT:      -7.5      5.207      6.737
REMARK  Name = 
REMARK  6 active torsions:
REMARK  status: ('A' for Active; 'I' for Inactive)
REMARK    1  A    between atoms: C_1  and  N_2
REMARK    2  A    between atoms: N_2  and  C_3
REMARK    3  A    between atoms: C_3  and  C_4
REMARK    4  A    between atoms: C_10  and  C_12
REMARK    5  A    between atoms: C_12  and  N_13
REMARK    6  A    between atoms: C_15  and  C_16
REMARK                            x       y       z     vdW  Elec       q    Type
REMARK                         _______ _______ _______ _____ _____    ______ ____
ROOT
ATOM      1  N   UNL     1       7.531   6.908  18.220  0.00  0.00    +0.000 N 
ATOM      2  N   UNL     1       8.433   7.600  18.993  0.00  0.00    +0.000 NA
ATOM      3  C   UNL     1       8.461   8.760  18.407  0.00  0.00    +0.000 A 
ATOM      4  O   UNL     1       7.658   8.898  17.324  0.00  0.00    +0.000 OA
ATOM      5  C   UNL     1       7.046   7.689  17.204  0.00  0.00    +0.000 A 
ATOM      6  O   UNL     1       6.205   7.411  16.367  0.00  0.00    +0.000 OA
ENDROOT
BRANCH   3   7
ATOM      7  C   UNL     1       9.239   9.956  18.772  0.00  0.00    +0.000 A 
ATOM      8  C   UNL     1       9.334  10.343  20.115  0.00  0.00    +0.000 A 
ATOM      9  C   UNL     1      10.059  11.487  20.468  0.00  0.00    +0.000 A 
ATOM     10  C   UNL     1      10.684  12.240  19.479  0.00  0.00    +0.000 A 
ATOM     11  F   UNL     1      11.373  13.334  19.818  0.00  0.00    +0.000 F 
ATOM     12  C   UNL     1      10.601  11.870  18.141  0.00  0.00    +0.000 A 
ATOM     13  C   UNL     1       9.880  10.727  17.785  0.00  0.00    +0.000 A 
ENDBRANCH   3   7
BRANCH   1  14
ATOM     14  C   UNL     1       7.116   5.546  18.483  0.00  0.00    +0.000 C 
BRANCH  14  17
ATOM     15  C   UNL     1       5.916   3.476  15.479  0.00  0.00    +0.000 C 
ATOM     16  N   UNL     1       5.894   4.340  16.650  0.00  0.00    +0.000 N 
ATOM     17  C   UNL     1       7.128   4.674  17.218  0.00  0.00    +0.000 C 
ATOM     18  O   UNL     1       8.181   4.269  16.720  0.00  0.00    +0.000 OA
BRANCH  16  19
ATOM     19  C   UNL     1       4.590   4.810  17.118  0.00  0.00    +0.000 C 
BRANCH  19  20
ATOM     20  C   UNL     1       3.916   3.833  18.040  0.00  0.00    +0.000 A 
ATOM     21  C   UNL     1       3.485   2.532  17.841  0.00  0.00    +0.000 A 
ATOM     22  C   UNL     1       2.851   1.980  18.998  0.00  0.00    +0.000 A 
ATOM     23  C   UNL     1       2.839   2.876  20.032  0.00  0.00    +0.000 A 
ATOM     24 CL   UNL     1       2.165   2.636  21.593  0.00  0.00    +0.000 Cl
ATOM     25  S   UNL     1       3.574   4.349  19.653  0.00  0.00    +0.000 S 
ENDBRANCH  19  20
ENDBRANCH  16  19
ENDBRANCH  14  17
ENDBRANCH   1  14
TORSDOF 5
ENDMDL
MODEL 3
REMARK VINA RESULT:      -7.5      0.633      1.157
REMARK  Name = 
REMARK  6 active torsions:
REMARK  status: ('A' for Active; 'I' for Inactive)
REMARK    1  A    between atoms: C_1  and  N_2
REMARK    2  A    between atoms: N_2  and  C_3
REMARK    3  A    between atoms: C_3  and  C_4
REMARK    4  A    between atoms: C_10  and  C_12
REMARK    5  A    between atoms: C_12  and  N_13
REMARK    6  A    between atoms: C_15  and  C_16
REMARK                            x       y       z     vdW  Elec       q    Type
REMARK                         _______ _______ _______ _____ _____    ______ ____
ROOT
ATOM      1  N   UNL     1       5.883   4.268  18.179  0.00  0.00    +0.000 N 
ATOM      2  N   UNL     1       5.526   4.016  16.876  0.00  0.00    +0.000 NA
ATOM      3  C   UNL     1       6.538   4.496  16.217  0.00  0.00    +0.000 A 
ATOM      4  O   UNL     1       7.531   5.036  16.964  0.00  0.00    +0.000 OA
ATOM      5  C   UNL     1       7.106   4.883  18.247  0.00  0.00    +0.000 A 
ATOM      6  O   UNL     1       7.739   5.206  19.238  0.00  0.00    +0.000 OA
ENDROOT
BRANCH   3   7
ATOM      7  C   UNL     1       6.760   4.518  14.761  0.00  0.00    +0.000 A 
ATOM      8  C   UNL     1       7.746   5.353  14.219  0.00  0.00    +0.000 A 
ATOM      9  C   UNL     1       7.953   5.391  12.835  0.00  0.00    +0.000 A 
ATOM     10  C   UNL     1       7.173   4.597  11.999  0.00  0.00    +0.000 A 
ATOM     11  F   UNL     1       7.371   4.637  10.678  0.00  0.00    +0.000 F 
ATOM     12  C   UNL     1       6.192   3.761  12.520  0.00  0.00    +0.000 A 
ATOM     13  C   UNL     1       5.983   3.719  13.902  0.00  0.00    +0.000 A 
ENDBRANCH   3   7
BRANCH   1  14
ATOM     14  C   UNL     1       5.088   3.884  19.326  0.00  0.00    +0.000 C 
BRANCH  14  17
ATOM     15  C   UNL     1       1.262   3.657  19.093  0.00  0.00    +0.000 C 
ATOM     16  N   UNL     1       2.592   4.140  19.434  0.00  0.00    +0.000 N 
ATOM     17  C   UNL     1       3.679   3.415  18.934  0.00  0.00    +0.000 C 
ATOM     18  O   UNL     1       3.501   2.428  18.214  0.00  0.00    +0.000 OA
BRANCH  16  19
ATOM     19  C   UNL     1       2.684   5.354  20.244  0.00  0.00    +0.000 C 
BRANCH  19  20
ATOM     20  C   UNL     1       2.456   6.606  19.443  0.00  0.00    +0.000 A 
ATOM     21  C   UNL     1       2.804   6.939  18.144  0.00  0.00    +0.000 A 
ATOM     22  C   UNL     1       2.419   8.272  17.797  0.00  0.00    +0.000 A 
ATOM     23  C   UNL     1       1.783   8.892  18.838  0.00  0.00    +0.000 A 
ATOM     24 CL   UNL     1       1.171  10.496  18.862  0.00  0.00    +0.000 Cl
ATOM     25  S   UNL     1       1.629   7.914  20.208  0.00  0.00    +0.000 S 
ENDBRANCH  19  20
ENDBRANCH  16  19
ENDBRANCH  14  17
ENDBRANCH   1  14
TORSDOF 5
ENDMDL
MODEL 4
REMARK VINA RESULT:      -7.4      4.839      7.914
REMARK  Name = 
REMARK  6 active torsions:
REMARK  status: ('A' for Active; 'I' for Inactive)
REMARK    1  A    between atoms: C_1  and  N_2
REMARK    2  A    between atoms: N_2  and  C_3
REMARK    3  A    between atoms: C_3  and  C_4
REMARK    4  A    between atoms: C_10  and  C_12
REMARK    5  A    between atoms: C_12  and  N_13
REMARK    6  A    between atoms: C_15  and  C_16
REMARK                            x       y       z     vdW  Elec       q    Type
REMARK                         _______ _______ _______ _____ _____    ______ ____
ROOT
ATOM      1  N   UNL     1       2.274   6.445  20.285  0.00  0.00    +0.000 N 
ATOM      2  N   UNL     1       1.523   7.050  21.263  0.00  0.00    +0.000 NA
ATOM      3  C   UNL     1       1.232   8.193  20.717  0.00  0.00    +0.000 A 
ATOM      4  O   UNL     1       1.717   8.395  19.468  0.00  0.00    +0.000 OA
ATOM      5  C   UNL     1       2.395   7.251  19.183  0.00  0.00    +0.000 A 
ATOM      6  O   UNL     1       2.951   7.012  18.124  0.00  0.00    +0.000 OA
ENDROOT
BRANCH   3   7
ATOM      7  C   UNL     1       0.428   9.298  21.268  0.00  0.00    +0.000 A 
ATOM      8  C   UNL     1      -0.092   9.202  22.565  0.00  0.00    +0.000 A 
ATOM      9  C   UNL     1      -0.869  10.241  23.089  0.00  0.00    +0.000 A 
ATOM     10  C   UNL     1      -1.125  11.370  22.316  0.00  0.00    +0.000 A 
ATOM     11  F   UNL     1      -1.870  12.360  22.818  0.00  0.00    +0.000 F 
ATOM     12  C   UNL     1      -0.614  11.482  21.028  0.00  0.00    +0.000 A 
ATOM     13  C   UNL     1       0.164  10.447  20.501  0.00  0.00    +0.000 A 
ENDBRANCH   3   7
BRANCH   1  14
ATOM     14  C   UNL     1       2.822   5.109  20.393  0.00  0.00    +0.000 C 
BRANCH  14  17
ATOM     15  C   UNL     1       2.367   2.423  17.687  0.00  0.00    +0.000 C 
ATOM     16  N   UNL     1       3.003   3.319  18.641  0.00  0.00    +0.000 N 
ATOM     17  C   UNL     1       2.162   4.123  19.417  0.00  0.00    +0.000 C 
ATOM     18  O   UNL     1       0.935   4.044  19.305  0.00  0.00    +0.000 OA
BRANCH  16  19
ATOM     19  C   UNL     1       4.462   3.285  18.730  0.00  0.00    +0.000 C 
BRANCH  19  20
ATOM     20  C   UNL     1       5.119   4.385  17.943  0.00  0.00    +0.000 A 
ATOM     21  C   UNL     1       5.021   4.741  16.607  0.00  0.00    +0.000 A 
ATOM     22  C   UNL     1       5.864   5.846  16.269  0.00  0.00    +0.000 A 
ATOM     23  C   UNL     1       6.557   6.293  17.362  0.00  0.00    +0.000 A 
ATOM     24 CL   UNL     1       7.689   7.583  17.404  0.00  0.00    +0.000 Cl
ATOM     25  S   UNL     1       6.212   5.432  18.774  0.00  0.00    +0.000 S 
ENDBRANCH  19  20
ENDBRANCH  16  19
ENDBRANCH  14  17
ENDBRANCH   1  14
TORSDOF 5
ENDMDL
MODEL 5
REMARK VINA RESULT:      -7.4      0.813      1.060
REMARK  Name = 
REMARK  6 active torsions:
REMARK  status: ('A' for Active; 'I' for Inactive)
REMARK    1  A    between atoms: C_1  and  N_2
REMARK    2  A    between atoms: N_2  and  C_3
REMARK    3  A    between atoms: C_3  and  C_4
REMARK    4  A    between atoms: C_10  and  C_12
REMARK    5  A    between atoms: C_12  and  N_13
REMARK    6  A    between atoms: C_15  and  C_16
REMARK                            x       y       z     vdW  Elec       q    Type
REMARK                         _______ _______ _______ _____ _____    ______ ____
ROOT
ATOM      1  N   UNL     1       5.112   3.669  18.434  0.00  0.00    +0.000 N 
ATOM      2  N   UNL     1       5.064   3.307  17.109  0.00  0.00    +0.000 NA
ATOM      3  C   UNL     1       5.875   4.163  16.562  0.00  0.00    +0.000 A 
ATOM      4  O   UNL     1       6.457   5.051  17.404  0.00  0.00    +0.000 OA
ATOM      5  C   UNL     1       5.963   4.726  18.628  0.00  0.00    +0.000 A 
ATOM      6  O   UNL     1       6.274   5.268  19.675  0.00  0.00    +0.000 OA
ENDROOT
BRANCH   3   7
ATOM      7  C   UNL     1       6.262   4.288  15.146  0.00  0.00    +0.000 A 
ATOM      8  C   UNL     1       5.564   3.571  14.166  0.00  0.00    +0.000 A 
ATOM      9  C   UNL     1       5.935   3.673  12.821  0.00  0.00    +0.000 A 
ATOM     10  C   UNL     1       7.003   4.490  12.460  0.00  0.00    +0.000 A 
ATOM     11  F   UNL     1       7.358   4.583  11.175  0.00  0.00    +0.000 F 
ATOM     12  C   UNL     1       7.706   5.210  13.420  0.00  0.00    +0.000 A 
ATOM     13  C   UNL     1       7.337   5.111  14.764  0.00  0.00    +0.000 A 
ENDBRANCH   3   7
BRANCH   1  14
ATOM     14  C   UNL     1       4.393   2.985  19.488  0.00  0.00    +0.000 C 
BRANCH  14  17
ATOM     15  C   UNL     1       0.600   3.558  19.659  0.00  0.00    +0.000 C 
ATOM     16  N   UNL     1       2.026   3.708  19.911  0.00  0.00    +0.000 N 
ATOM     17  C   UNL     1       2.889   2.872  19.195  0.00  0.00    +0.000 C 
ATOM     18  O   UNL     1       2.448   2.068  18.369  0.00  0.00    +0.000 OA
BRANCH  16  19
ATOM     19  C   UNL     1       2.439   4.734  20.867  0.00  0.00    +0.000 C 
BRANCH  19  20
ATOM     20  C   UNL     1       2.141   6.128  20.389  0.00  0.00    +0.000 A 
ATOM     21  C   UNL     1       1.456   7.175  20.984  0.00  0.00    +0.000 A 
ATOM     22  C   UNL     1       1.377   8.329  20.143  0.00  0.00    +0.000 A 
ATOM     23  C   UNL     1       2.015   8.118  18.950  0.00  0.00    +0.000 A 
ATOM     24 CL   UNL     1       2.149   9.226  17.645  0.00  0.00    +0.000 Cl
ATOM     25  S   UNL     1       2.711   6.584  18.824  0.00  0.00    +0.000 S 
ENDBRANCH  19  20
ENDBRANCH  16  19
ENDBRANCH  14  17
ENDBRANCH   1  14
TORSDOF 5
ENDMDL
MODEL 6
REMARK VINA RESULT:      -7.3      1.324      1.851
REMARK  Name = 
REMARK  6 active torsions:
REMARK  status: ('A' for Active; 'I' for Inactive)
REMARK    1  A    between atoms: C_1  and  N_2
REMARK    2  A    between atoms: N_2  and  C_3
REMARK    3  A    between atoms: C_3  and  C_4
REMARK    4  A    between atoms: C_10  and  C_12
REMARK    5  A    between atoms: C_12  and  N_13
REMARK    6  A    between atoms: C_15  and  C_16
REMARK                            x       y       z     vdW  Elec       q    Type
REMARK                         _______ _______ _______ _____ _____    ______ ____
ROOT
ATOM      1  N   UNL     1       6.095   4.742  18.166  0.00  0.00    +0.000 N 
ATOM      2  N   UNL     1       5.625   4.644  16.879  0.00  0.00    +0.000 NA
ATOM      3  C   UNL     1       6.722   4.678  16.184  0.00  0.00    +0.000 A 
ATOM      4  O   UNL     1       7.872   4.784  16.893  0.00  0.00    +0.000 OA
ATOM      5  C   UNL     1       7.463   4.821  18.190  0.00  0.00    +0.000 A 
ATOM      6  O   UNL     1       8.204   4.873  19.157  0.00  0.00    +0.000 OA
ENDROOT
BRANCH   3   7
ATOM      7  C   UNL     1       6.888   4.600  14.722  0.00  0.00    +0.000 A 
ATOM      8  C   UNL     1       7.818   5.428  14.081  0.00  0.00    +0.000 A 
ATOM      9  C   UNL     1       7.970   5.371  12.691  0.00  0.00    +0.000 A 
ATOM     10  C   UNL     1       7.192   4.488  11.947  0.00  0.00    +0.000 A 
ATOM     11  F   UNL     1       7.338   4.437  10.619  0.00  0.00    +0.000 F 
ATOM     12  C   UNL     1       6.266   3.658  12.568  0.00  0.00    +0.000 A 
ATOM     13  C   UNL     1       6.112   3.711  13.956  0.00  0.00    +0.000 A 
ENDBRANCH   3   7
BRANCH   1  14
ATOM     14  C   UNL     1       5.251   4.714  19.342  0.00  0.00    +0.000 C 
BRANCH  14  17
ATOM     15  C   UNL     1       2.429   2.117  19.143  0.00  0.00    +0.000 C 
ATOM     16  N   UNL     1       3.171   3.357  18.968  0.00  0.00    +0.000 N 
ATOM     17  C   UNL     1       4.474   3.395  19.476  0.00  0.00    +0.000 C 
ATOM     18  O   UNL     1       4.967   2.404  20.019  0.00  0.00    +0.000 OA
BRANCH  16  19
ATOM     19  C   UNL     1       2.506   4.447  18.255  0.00  0.00    +0.000 C 
BRANCH  19  20
ATOM     20  C   UNL     1       2.158   5.602  19.152  0.00  0.00    +0.000 A 
ATOM     21  C   UNL     1       1.769   5.646  20.480  0.00  0.00    +0.000 A 
ATOM     22  C   UNL     1       1.495   6.976  20.929  0.00  0.00    +0.000 A 
ATOM     23  C   UNL     1       1.700   7.889  19.930  0.00  0.00    +0.000 A 
ATOM     24 CL   UNL     1       1.476   9.589  20.028  0.00  0.00    +0.000 Cl
ATOM     25  S   UNL     1       2.221   7.193  18.482  0.00  0.00    +0.000 S 
ENDBRANCH  19  20
ENDBRANCH  16  19
ENDBRANCH  14  17
ENDBRANCH   1  14
TORSDOF 5
ENDMDL
MODEL 7
REMARK VINA RESULT:      -7.3      5.454      7.005
REMARK  Name = 
REMARK  6 active torsions:
REMARK  status: ('A' for Active; 'I' for Inactive)
REMARK    1  A    between atoms: C_1  and  N_2
REMARK    2  A    between atoms: N_2  and  C_3
REMARK    3  A    between atoms: C_3  and  C_4
REMARK    4  A    between atoms: C_10  and  C_12
REMARK    5  A    between atoms: C_12  and  N_13
REMARK    6  A    between atoms: C_15  and  C_16
REMARK                            x       y       z     vdW  Elec       q    Type
REMARK                         _______ _______ _______ _____ _____    ______ ____
ROOT
ATOM      1  N   UNL     1       7.066   7.634  17.600  0.00  0.00    +0.000 N 
ATOM      2  N   UNL     1       7.437   8.954  17.509  0.00  0.00    +0.000 NA
ATOM      3  C   UNL     1       8.434   9.016  18.340  0.00  0.00    +0.000 A 
ATOM      4  O   UNL     1       8.759   7.859  18.966  0.00  0.00    +0.000 OA
ATOM      5  C   UNL     1       7.868   6.953  18.479  0.00  0.00    +0.000 A 
ATOM      6  O   UNL     1       7.849   5.768  18.763  0.00  0.00    +0.000 OA
ENDROOT
BRANCH   3   7
ATOM      7  C   UNL     1       9.274  10.176  18.684  0.00  0.00    +0.000 A 
ATOM      8  C   UNL     1       9.437  10.547  20.025  0.00  0.00    +0.000 A 
ATOM      9  C   UNL     1      10.221  11.657  20.358  0.00  0.00    +0.000 A 
ATOM     10  C   UNL     1      10.838  12.393  19.351  0.00  0.00    +0.000 A 
ATOM     11  F   UNL     1      11.584  13.455  19.672  0.00  0.00    +0.000 F 
ATOM     12  C   UNL     1      10.689  12.038  18.015  0.00  0.00    +0.000 A 
ATOM     13  C   UNL     1       9.908  10.929  17.678  0.00  0.00    +0.000 A 
ENDBRANCH   3   7
BRANCH   1  14
ATOM     14  C   UNL     1       5.999   7.036  16.826  0.00  0.00    +0.000 C 
BRANCH  14  17
ATOM     15  C   UNL     1       6.061   3.551  15.214  0.00  0.00    +0.000 C 
ATOM     16  N   UNL     1       5.588   4.726  15.932  0.00  0.00    +0.000 N 
ATOM     17  C   UNL     1       6.468   5.809  16.029  0.00  0.00    +0.000 C 
ATOM     18  O   UNL     1       7.582   5.765  15.500  0.00  0.00    +0.000 OA
BRANCH  16  19
ATOM     19  C   UNL     1       4.227   4.688  16.466  0.00  0.00    +0.000 C 
BRANCH  19  20
ATOM     20  C   UNL     1       4.029   3.597  17.481  0.00  0.00    +0.000 A 
ATOM     21  C   UNL     1       3.240   2.459  17.461  0.00  0.00    +0.000 A 
ATOM     22  C   UNL     1       3.328   1.707  18.675  0.00  0.00    +0.000 A 
ATOM     23  C   UNL     1       4.190   2.296  19.561  0.00  0.00    +0.000 A 
ATOM     24 CL   UNL     1       4.580   1.743  21.139  0.00  0.00    +0.000 Cl
ATOM     25  S   UNL     1       4.898   3.711  18.969  0.00  0.00    +0.000 S 
ENDBRANCH  19  20
ENDBRANCH  16  19
ENDBRANCH  14  17
ENDBRANCH   1  14
TORSDOF 5
ENDMDL
MODEL 8
REMARK VINA RESULT:      -7.3      1.186      1.444
REMARK  Name = 
REMARK  6 active torsions:
REMARK  status: ('A' for Active; 'I' for Inactive)
REMARK    1  A    between atoms: C_1  and  N_2
REMARK    2  A    between atoms: N_2  and  C_3
REMARK    3  A    between atoms: C_3  and  C_4
REMARK    4  A    between atoms: C_10  and  C_12
REMARK    5  A    between atoms: C_12  and  N_13
REMARK    6  A    between atoms: C_15  and  C_16
REMARK                            x       y       z     vdW  Elec       q    Type
REMARK                         _______ _______ _______ _____ _____    ______ ____
ROOT
ATOM      1  N   UNL     1       5.941   4.518  18.126  0.00  0.00    +0.000 N 
ATOM      2  N   UNL     1       5.527   4.318  16.831  0.00  0.00    +0.000 NA
ATOM      3  C   UNL     1       6.603   4.587  16.155  0.00  0.00    +0.000 A 
ATOM      4  O   UNL     1       7.690   4.940  16.884  0.00  0.00    +0.000 OA
ATOM      5  C   UNL     1       7.259   4.890  18.173  0.00  0.00    +0.000 A 
ATOM      6  O   UNL     1       7.954   5.101  19.152  0.00  0.00    +0.000 OA
ENDROOT
BRANCH   3   7
ATOM      7  C   UNL     1       6.809   4.544  14.697  0.00  0.00    +0.000 A 
ATOM      8  C   UNL     1       6.068   3.650  13.914  0.00  0.00    +0.000 A 
ATOM      9  C   UNL     1       6.269   3.593  12.531  0.00  0.00    +0.000 A 
ATOM     10  C   UNL     1       7.209   4.427  11.935  0.00  0.00    +0.000 A 
ATOM     11  F   UNL     1       7.401   4.368  10.613  0.00  0.00    +0.000 F 
ATOM     12  C   UNL     1       7.953   5.322  12.696  0.00  0.00    +0.000 A 
ATOM     13  C   UNL     1       7.754   5.383  14.078  0.00  0.00    +0.000 A 
ENDBRANCH   3   7
BRANCH   1  14
ATOM     14  C   UNL     1       5.101   4.310  19.287  0.00  0.00    +0.000 C 
BRANCH  14  17
ATOM     15  C   UNL     1       1.460   4.188  18.072  0.00  0.00    +0.000 C 
ATOM     16  N   UNL     1       2.792   4.691  18.376  0.00  0.00    +0.000 N 
ATOM     17  C   UNL     1       3.707   3.782  18.916  0.00  0.00    +0.000 C 
ATOM     18  O   UNL     1       3.392   2.602  19.096  0.00  0.00    +0.000 OA
BRANCH  16  19
ATOM     19  C   UNL     1       3.072   6.092  18.065  0.00  0.00    +0.000 C 
BRANCH  19  20
ATOM     20  C   UNL     1       2.395   7.045  19.011  0.00  0.00    +0.000 A 
ATOM     21  C   UNL     1       2.045   6.917  20.345  0.00  0.00    +0.000 A 
ATOM     22  C   UNL     1       1.372   8.074  20.849  0.00  0.00    +0.000 A 
ATOM     23  C   UNL     1       1.249   9.036  19.884  0.00  0.00    +0.000 A 
ATOM     24 CL   UNL     1       0.494  10.570  20.050  0.00  0.00    +0.000 Cl
ATOM     25  S   UNL     1       1.928   8.592  18.403  0.00  0.00    +0.000 S 
ENDBRANCH  19  20
ENDBRANCH  16  19
ENDBRANCH  14  17
ENDBRANCH   1  14
TORSDOF 5
ENDMDL
MODEL 9
REMARK VINA RESULT:      -7.2      5.391      6.857
REMARK  Name = 
REMARK  6 active torsions:
REMARK  status: ('A' for Active; 'I' for Inactive)
REMARK    1  A    between atoms: C_1  and  N_2
REMARK    2  A    between atoms: N_2  and  C_3
REMARK    3  A    between atoms: C_3  and  C_4
REMARK    4  A    between atoms: C_10  and  C_12
REMARK    5  A    between atoms: C_12  and  N_13
REMARK    6  A    between atoms: C_15  and  C_16
REMARK                            x       y       z     vdW  Elec       q    Type
REMARK                         _______ _______ _______ _____ _____    ______ ____
ROOT
ATOM      1  N   UNL     1       7.836   7.066  18.391  0.00  0.00    +0.000 N 
ATOM      2  N   UNL     1       8.700   7.816  19.151  0.00  0.00    +0.000 NA
ATOM      3  C   UNL     1       8.672   8.965  18.543  0.00  0.00    +0.000 A 
ATOM      4  O   UNL     1       7.866   9.043  17.457  0.00  0.00    +0.000 OA
ATOM      5  C   UNL     1       7.315   7.803  17.359  0.00  0.00    +0.000 A 
ATOM      6  O   UNL     1       6.491   7.467  16.526  0.00  0.00    +0.000 OA
ENDROOT
BRANCH   3   7
ATOM      7  C   UNL     1       9.389  10.205  18.887  0.00  0.00    +0.000 A 
ATOM      8  C   UNL     1       9.975  10.975  17.875  0.00  0.00    +0.000 A 
ATOM      9  C   UNL     1      10.671  12.146  18.195  0.00  0.00    +0.000 A 
ATOM     10  C   UNL     1      10.780  12.542  19.525  0.00  0.00    +0.000 A 
ATOM     11  F   UNL     1      11.448  13.659  19.828  0.00  0.00    +0.000 F 
ATOM     12  C   UNL     1      10.204  11.790  20.542  0.00  0.00    +0.000 A 
ATOM     13  C   UNL     1       9.506  10.621  20.226  0.00  0.00    +0.000 A 
ENDBRANCH   3   7
BRANCH   1  14
ATOM     14  C   UNL     1       7.488   5.691  18.678  0.00  0.00    +0.000 C 
BRANCH  14  17
ATOM     15  C   UNL     1       5.601   3.848  15.886  0.00  0.00    +0.000 C 
ATOM     16  N   UNL     1       5.861   4.657  17.068  0.00  0.00    +0.000 N 
ATOM     17  C   UNL     1       7.200   4.879  17.406  0.00  0.00    +0.000 C 
ATOM     18  O   UNL     1       8.110   4.425  16.706  0.00  0.00    +0.000 OA
BRANCH  16  19
ATOM     19  C   UNL     1       4.705   5.194  17.786  0.00  0.00    +0.000 C 
BRANCH  19  20
ATOM     20  C   UNL     1       3.836   4.119  18.377  0.00  0.00    +0.000 A 
ATOM     21  C   UNL     1       4.128   3.079  19.245  0.00  0.00    +0.000 A 
ATOM     22  C   UNL     1       2.990   2.257  19.520  0.00  0.00    +0.000 A 
ATOM     23  C   UNL     1       1.879   2.712  18.861  0.00  0.00    +0.000 A 
ATOM     24 CL   UNL     1       0.308   2.019  18.893  0.00  0.00    +0.000 Cl
ATOM     25  S   UNL     1       2.166   4.098  17.939  0.00  0.00    +0.000 S 
ENDBRANCH  19  20
ENDBRANCH  16  19
ENDBRANCH  14  17
ENDBRANCH   1  14
TORSDOF 5
ENDMDL
