MODEL 1
REMARK VINA RESULT:      -7.7      0.000      0.000
REMARK  Name = 
REMARK  6 active torsions:
REMARK  status: ('A' for Active; 'I' for Inactive)
REMARK    1  A    between atoms: C_1  and  O_2
REMARK    2  A    between atoms: O_2  and  C_3
REMARK    3  A    between atoms: C_3  and  C_5
REMARK    4  A    between atoms: C_7  and  N_8
REMARK    5  A    between atoms: C_14  and  C_15
REMARK    6  A    between atoms: C_25  and  O_26
REMARK                            x       y       z     vdW  Elec       q    Type
REMARK                         _______ _______ _______ _____ _____    ______ ____
ROOT
ATOM      1  N   UNL     1       1.390   8.499  19.594  0.00  0.00    +0.000 N 
ATOM      2  C   UNL     1       1.907   7.238  19.720  0.00  0.00    +0.000 C 
ATOM      3  N   UNL     1       1.680   6.345  20.620  0.00  0.00    +0.000 NA
ATOM      4  C   UNL     1       2.419   5.200  20.462  0.00  0.00    +0.000 C 
ATOM      5  O   UNL     1       2.368   4.226  21.199  0.00  0.00    +0.000 OA
ATOM      6  C   UNL     1       3.319   5.287  19.283  0.00  0.00    +0.000 C 
ATOM      7  C   UNL     1       4.175   4.309  18.972  0.00  0.00    +0.000 C 
ATOM      8  S   UNL     1       3.076   6.790  18.488  0.00  0.00    +0.000 S 
ATOM      9  H   UNL     1       1.747   9.038  18.817  0.00  0.00    +0.000 HD
ENDROOT
BRANCH   7  10
ATOM     10  C   UNL     1       5.114   4.341  17.852  0.00  0.00    +0.000 A 
ATOM     11  C   UNL     1       6.455   4.676  18.081  0.00  0.00    +0.000 A 
ATOM     12  C   UNL     1       7.351   4.732  17.013  0.00  0.00    +0.000 A 
ATOM     13  C   UNL     1       6.901   4.453  15.728  0.00  0.00    +0.000 A 
ATOM     14  F   UNL     1       7.761   4.511  14.701  0.00  0.00    +0.000 F 
ATOM     15  C   UNL     1       5.574   4.114  15.487  0.00  0.00    +0.000 A 
ATOM     16  C   UNL     1       4.676   4.058  16.552  0.00  0.00    +0.000 A 
ENDBRANCH   7  10
BRANCH   1  19
ATOM     17  C   UNL     1      -0.610  11.214  21.168  0.00  0.00    +0.000 A 
ATOM     18  C   UNL     1      -0.003  10.382  20.209  0.00  0.00    +0.000 A 
ATOM     19  C   UNL     1       0.728   9.245  20.587  0.00  0.00    +0.000 A 
ATOM     20  C   UNL     1       0.787   8.937  21.951  0.00  0.00    +0.000 A 
ATOM     21  C   UNL     1       0.166   9.739  22.913  0.00  0.00    +0.000 A 
ATOM     22  C   UNL     1      -0.535  10.876  22.522  0.00  0.00    +0.000 A 
BRANCH  17  23
ATOM     23  C   UNL     1      -1.302  12.424  20.666  0.00  0.00    +0.000 C 
ATOM     24  O   UNL     1      -0.742  13.277  19.993  0.00  0.00    +0.000 OA
BRANCH  23  26
ATOM     25  C   UNL     1      -3.579  12.575  20.160  0.00  0.00    +0.000 C 
ATOM     26  O   UNL     1      -2.562  12.491  21.156  0.00  0.00    +0.000 OA
ENDBRANCH  23  26
ENDBRANCH  17  23
BRANCH  22  27
ATOM     27  O   UNL     1      -1.168  11.622  23.474  0.00  0.00    +0.000 OA
ATOM     28  H   UNL     1      -2.130  11.575  23.337  0.00  0.00    +0.000 HD
ENDBRANCH  22  27
ENDBRANCH   1  19
TORSDOF 5
ENDMDL
MODEL 2
REMARK VINA RESULT:      -7.6      3.798      8.840
REMARK  Name = 
REMARK  6 active torsions:
REMARK  status: ('A' for Active; 'I' for Inactive)
REMARK    1  A    between atoms: C_1  and  O_2
REMARK    2  A    between atoms: O_2  and  C_3
REMARK    3  A    between atoms: C_3  and  C_5
REMARK    4  A    between atoms: C_7  and  N_8
REMARK    5  A    between atoms: C_14  and  C_15
REMARK    6  A    between atoms: C_25  and  O_26
REMARK                            x       y       z     vdW  Elec       q    Type
REMARK                         _______ _______ _______ _____ _____    ______ ____
ROOT
ATOM      1  N   UNL     1       2.832   7.118  17.986  0.00  0.00    +0.000 N 
ATOM      2  C   UNL     1       2.261   7.827  19.007  0.00  0.00    +0.000 C 
ATOM      3  N   UNL     1       1.955   7.445  20.199  0.00  0.00    +0.000 NA
ATOM      4  C   UNL     1       1.343   8.416  20.951  0.00  0.00    +0.000 C 
ATOM      5  O   UNL     1       0.964   8.275  22.105  0.00  0.00    +0.000 OA
ATOM      6  C   UNL     1       1.172   9.677  20.183  0.00  0.00    +0.000 C 
ATOM      7  C   UNL     1       0.545  10.740  20.697  0.00  0.00    +0.000 C 
ATOM      8  S   UNL     1       1.859   9.492  18.620  0.00  0.00    +0.000 S 
ATOM      9  H   UNL     1       2.946   7.624  17.118  0.00  0.00    +0.000 HD
ENDROOT
BRANCH   7  10
ATOM     10  C   UNL     1       0.308  11.997  19.990  0.00  0.00    +0.000 A 
ATOM     11  C   UNL     1       0.960  13.163  20.412  0.00  0.00    +0.000 A 
ATOM     12  C   UNL     1       0.719  14.371  19.756  0.00  0.00    +0.000 A 
ATOM     13  C   UNL     1      -0.168  14.404  18.687  0.00  0.00    +0.000 A 
ATOM     14  F   UNL     1      -0.402  15.566  18.061  0.00  0.00    +0.000 F 
ATOM     15  C   UNL     1      -0.817  13.253  18.255  0.00  0.00    +0.000 A 
ATOM     16  C   UNL     1      -0.580  12.044  18.908  0.00  0.00    +0.000 A 
ENDBRANCH   7  10
BRANCH   1  19
ATOM     17  C   UNL     1       2.004   3.515  18.418  0.00  0.00    +0.000 A 
ATOM     18  C   UNL     1       1.911   4.919  18.418  0.00  0.00    +0.000 A 
ATOM     19  C   UNL     1       2.933   5.718  17.881  0.00  0.00    +0.000 A 
ATOM     20  C   UNL     1       4.026   5.065  17.297  0.00  0.00    +0.000 A 
ATOM     21  C   UNL     1       4.118   3.670  17.267  0.00  0.00    +0.000 A 
ATOM     22  C   UNL     1       3.106   2.895  17.825  0.00  0.00    +0.000 A 
BRANCH  17  23
ATOM     23  C   UNL     1       0.900   2.771  19.069  0.00  0.00    +0.000 C 
ATOM     24  O   UNL     1       0.206   1.958  18.475  0.00  0.00    +0.000 OA
BRANCH  23  26
ATOM     25  C   UNL     1       1.591   2.630  21.299  0.00  0.00    +0.000 C 
ATOM     26  O   UNL     1       0.711   3.209  20.336  0.00  0.00    +0.000 OA
ENDBRANCH  23  26
ENDBRANCH  17  23
BRANCH  22  27
ATOM     27  O   UNL     1       3.197   1.535  17.748  0.00  0.00    +0.000 OA
ATOM     28  H   UNL     1       2.981   1.146  18.613  0.00  0.00    +0.000 HD
ENDBRANCH  22  27
ENDBRANCH   1  19
TORSDOF 5
ENDMDL
MODEL 3
REMARK VINA RESULT:      -7.6      1.076      1.297
REMARK  Name = 
REMARK  6 active torsions:
REMARK  status: ('A' for Active; 'I' for Inactive)
REMARK    1  A    between atoms: C_1  and  O_2
REMARK    2  A    between atoms: O_2  and  C_3
REMARK    3  A    between atoms: C_3  and  C_5
REMARK    4  A    between atoms: C_7  and  N_8
REMARK    5  A    between atoms: C_14  and  C_15
REMARK    6  A    between atoms: C_25  and  O_26
REMARK                            x       y       z     vdW  Elec       q    Type
REMARK                         _______ _______ _______ _____ _____    ______ ____
ROOT
ATOM      1  N   UNL     1       1.370   8.608  19.561  0.00  0.00    +0.000 N 
ATOM      2  C   UNL     1       1.894   7.355  19.728  0.00  0.00    +0.000 C 
ATOM      3  N   UNL     1       1.673   6.492  20.658  0.00  0.00    +0.000 NA
ATOM      4  C   UNL     1       2.417   5.346  20.537  0.00  0.00    +0.000 C 
ATOM      5  O   UNL     1       2.373   4.396  21.306  0.00  0.00    +0.000 OA
ATOM      6  C   UNL     1       3.314   5.397  19.353  0.00  0.00    +0.000 C 
ATOM      7  C   UNL     1       4.175   4.413  19.073  0.00  0.00    +0.000 C 
ATOM      8  S   UNL     1       3.063   6.871  18.509  0.00  0.00    +0.000 S 
ATOM      9  H   UNL     1       1.724   9.123  18.766  0.00  0.00    +0.000 HD
ENDROOT
BRANCH   7  10
ATOM     10  C   UNL     1       5.111   4.412  17.952  0.00  0.00    +0.000 A 
ATOM     11  C   UNL     1       6.455   4.744  18.170  0.00  0.00    +0.000 A 
ATOM     12  C   UNL     1       7.349   4.768  17.098  0.00  0.00    +0.000 A 
ATOM     13  C   UNL     1       6.895   4.462  15.821  0.00  0.00    +0.000 A 
ATOM     14  F   UNL     1       7.753   4.489  14.792  0.00  0.00    +0.000 F 
ATOM     15  C   UNL     1       5.565   4.126  15.591  0.00  0.00    +0.000 A 
ATOM     16  C   UNL     1       4.669   4.101  16.659  0.00  0.00    +0.000 A 
ENDBRANCH   7  10
BRANCH   1  19
ATOM     17  C   UNL     1       0.125  11.609  21.376  0.00  0.00    +0.000 A 
ATOM     18  C   UNL     1       0.696  10.781  20.392  0.00  0.00    +0.000 A 
ATOM     19  C   UNL     1       0.707   9.384  20.530  0.00  0.00    +0.000 A 
ATOM     20  C   UNL     1       0.081   8.840  21.658  0.00  0.00    +0.000 A 
ATOM     21  C   UNL     1      -0.515   9.649  22.630  0.00  0.00    +0.000 A 
ATOM     22  C   UNL     1      -0.495  11.034  22.488  0.00  0.00    +0.000 A 
BRANCH  17  23
ATOM     23  C   UNL     1       0.226  13.072  21.163  0.00  0.00    +0.000 C 
ATOM     24  O   UNL     1       0.061  13.597  20.071  0.00  0.00    +0.000 OA
BRANCH  23  26
ATOM     25  C   UNL     1       0.001  14.943  22.547  0.00  0.00    +0.000 C 
ATOM     26  O   UNL     1       0.637  13.691  22.295  0.00  0.00    +0.000 OA
ENDBRANCH  23  26
ENDBRANCH  17  23
BRANCH  22  27
ATOM     27  O   UNL     1      -1.118  11.803  23.428  0.00  0.00    +0.000 OA
ATOM     28  H   UNL     1      -1.428  11.239  24.157  0.00  0.00    +0.000 HD
ENDBRANCH  22  27
ENDBRANCH   1  19
TORSDOF 5
ENDMDL
MODEL 4
REMARK VINA RESULT:      -7.6      0.358      1.016
REMARK  Name = 
REMARK  6 active torsions:
REMARK  status: ('A' for Active; 'I' for Inactive)
REMARK    1  A    between atoms: C_1  and  O_2
REMARK    2  A    between atoms: O_2  and  C_3
REMARK    3  A    between atoms: C_3  and  C_5
REMARK    4  A    between atoms: C_7  and  N_8
REMARK    5  A    between atoms: C_14  and  C_15
REMARK    6  A    between atoms: C_25  and  O_26
REMARK                            x       y       z     vdW  Elec       q    Type
REMARK                         _______ _______ _______ _____ _____    ______ ____
ROOT
ATOM      1  N   UNL     1       1.388   8.546  19.606  0.00  0.00    +0.000 N 
ATOM      2  C   UNL     1       1.912   7.287  19.722  0.00  0.00    +0.000 C 
ATOM      3  N   UNL     1       1.697   6.390  20.621  0.00  0.00    +0.000 NA
ATOM      4  C   UNL     1       2.439   5.249  20.453  0.00  0.00    +0.000 C 
ATOM      5  O   UNL     1       2.399   4.271  21.186  0.00  0.00    +0.000 OA
ATOM      6  C   UNL     1       3.328   5.344  19.265  0.00  0.00    +0.000 C 
ATOM      7  C   UNL     1       4.186   4.371  18.943  0.00  0.00    +0.000 C 
ATOM      8  S   UNL     1       3.072   6.849  18.478  0.00  0.00    +0.000 S 
ATOM      9  H   UNL     1       1.736   9.090  18.828  0.00  0.00    +0.000 HD
ENDROOT
BRANCH   7  10
ATOM     10  C   UNL     1       5.115   4.411  17.816  0.00  0.00    +0.000 A 
ATOM     11  C   UNL     1       4.646   4.151  16.522  0.00  0.00    +0.000 A 
ATOM     12  C   UNL     1       5.533   4.164  15.444  0.00  0.00    +0.000 A 
ATOM     13  C   UNL     1       6.877   4.437  15.667  0.00  0.00    +0.000 A 
ATOM     14  F   UNL     1       7.728   4.445  14.632  0.00  0.00    +0.000 F 
ATOM     15  C   UNL     1       7.355   4.703  16.945  0.00  0.00    +0.000 A 
ATOM     16  C   UNL     1       6.472   4.689  18.025  0.00  0.00    +0.000 A 
ENDBRANCH   7  10
BRANCH   1  19
ATOM     17  C   UNL     1      -0.580  11.265  21.214  0.00  0.00    +0.000 A 
ATOM     18  C   UNL     1       0.021  10.440  20.244  0.00  0.00    +0.000 A 
ATOM     19  C   UNL     1       0.732   9.286  20.607  0.00  0.00    +0.000 A 
ATOM     20  C   UNL     1       0.777   8.954  21.966  0.00  0.00    +0.000 A 
ATOM     21  C   UNL     1       0.163   9.749  22.938  0.00  0.00    +0.000 A 
ATOM     22  C   UNL     1      -0.518  10.903  22.562  0.00  0.00    +0.000 A 
BRANCH  17  23
ATOM     23  C   UNL     1      -1.249  12.494  20.728  0.00  0.00    +0.000 C 
ATOM     24  O   UNL     1      -0.957  13.612  21.127  0.00  0.00    +0.000 OA
BRANCH  23  26
ATOM     25  C   UNL     1      -3.539  12.706  20.305  0.00  0.00    +0.000 C 
ATOM     26  O   UNL     1      -2.275  12.183  19.901  0.00  0.00    +0.000 OA
ENDBRANCH  23  26
ENDBRANCH  17  23
BRANCH  22  27
ATOM     27  O   UNL     1      -1.146  11.643  23.522  0.00  0.00    +0.000 OA
ATOM     28  H   UNL     1      -2.067  11.805  23.257  0.00  0.00    +0.000 HD
ENDBRANCH  22  27
ENDBRANCH   1  19
TORSDOF 5
ENDMDL
MODEL 5
REMARK VINA RESULT:      -7.6      2.620      2.995
REMARK  Name = 
REMARK  6 active torsions:
REMARK  status: ('A' for Active; 'I' for Inactive)
REMARK    1  A    between atoms: C_1  and  O_2
REMARK    2  A    between atoms: O_2  and  C_3
REMARK    3  A    between atoms: C_3  and  C_5
REMARK    4  A    between atoms: C_7  and  N_8
REMARK    5  A    between atoms: C_14  and  C_15
REMARK    6  A    between atoms: C_25  and  O_26
REMARK                            x       y       z     vdW  Elec       q    Type
REMARK                         _______ _______ _______ _____ _____    ______ ____
ROOT
ATOM      1  N   UNL     1       0.665   8.591  21.506  0.00  0.00    +0.000 N 
ATOM      2  C   UNL     1       1.327   8.268  20.352  0.00  0.00    +0.000 C 
ATOM      3  N   UNL     1       1.595   9.001  19.328  0.00  0.00    +0.000 NA
ATOM      4  C   UNL     1       2.236   8.329  18.319  0.00  0.00    +0.000 C 
ATOM      5  O   UNL     1       2.583   8.824  17.256  0.00  0.00    +0.000 OA
ATOM      6  C   UNL     1       2.449   6.899  18.663  0.00  0.00    +0.000 C 
ATOM      7  C   UNL     1       3.002   6.038  17.802  0.00  0.00    +0.000 C 
ATOM      8  S   UNL     1       1.859   6.597  20.246  0.00  0.00    +0.000 S 
ATOM      9  H   UNL     1       0.541   7.832  22.162  0.00  0.00    +0.000 HD
ENDROOT
BRANCH   7  10
ATOM     10  C   UNL     1       3.208   4.614  18.055  0.00  0.00    +0.000 A 
ATOM     11  C   UNL     1       4.267   4.202  18.874  0.00  0.00    +0.000 A 
ATOM     12  C   UNL     1       4.484   2.842  19.101  0.00  0.00    +0.000 A 
ATOM     13  C   UNL     1       3.643   1.907  18.510  0.00  0.00    +0.000 A 
ATOM     14  F   UNL     1       3.854   0.601  18.724  0.00  0.00    +0.000 F 
ATOM     15  C   UNL     1       2.585   2.302  17.699  0.00  0.00    +0.000 A 
ATOM     16  C   UNL     1       2.366   3.661  17.469  0.00  0.00    +0.000 A 
ENDBRANCH   7  10
BRANCH   1  19
ATOM     17  C   UNL     1      -1.358  11.629  20.779  0.00  0.00    +0.000 A 
ATOM     18  C   UNL     1      -0.604  10.452  20.616  0.00  0.00    +0.000 A 
ATOM     19  C   UNL     1      -0.161   9.710  21.722  0.00  0.00    +0.000 A 
ATOM     20  C   UNL     1      -0.541  10.154  22.994  0.00  0.00    +0.000 A 
ATOM     21  C   UNL     1      -1.312  11.307  23.170  0.00  0.00    +0.000 A 
ATOM     22  C   UNL     1      -1.723  12.043  22.063  0.00  0.00    +0.000 A 
BRANCH  17  23
ATOM     23  C   UNL     1      -1.718  12.371  19.548  0.00  0.00    +0.000 C 
ATOM     24  O   UNL     1      -0.912  13.034  18.912  0.00  0.00    +0.000 OA
BRANCH  23  26
ATOM     25  C   UNL     1      -3.418  11.539  18.175  0.00  0.00    +0.000 C 
ATOM     26  O   UNL     1      -3.052  12.302  19.323  0.00  0.00    +0.000 OA
ENDBRANCH  23  26
ENDBRANCH  17  23
BRANCH  22  27
ATOM     27  O   UNL     1      -2.510  13.142  22.254  0.00  0.00    +0.000 OA
ATOM     28  H   UNL     1      -3.445  12.895  22.145  0.00  0.00    +0.000 HD
ENDBRANCH  22  27
ENDBRANCH   1  19
TORSDOF 5
ENDMDL
MODEL 6
REMARK VINA RESULT:      -7.5      0.889      1.153
REMARK  Name = 
REMARK  6 active torsions:
REMARK  status: ('A' for Active; 'I' for Inactive)
REMARK    1  A    between atoms: C_1  and  O_2
REMARK    2  A    between atoms: O_2  and  C_3
REMARK    3  A    between atoms: C_3  and  C_5
REMARK    4  A    between atoms: C_7  and  N_8
REMARK    5  A    between atoms: C_14  and  C_15
REMARK    6  A    between atoms: C_25  and  O_26
REMARK                            x       y       z     vdW  Elec       q    Type
REMARK                         _______ _______ _______ _____ _____    ______ ____
ROOT
ATOM      1  N   UNL     1       1.579   8.424  19.230  0.00  0.00    +0.000 N 
ATOM      2  C   UNL     1       2.167   7.189  19.255  0.00  0.00    +0.000 C 
ATOM      3  N   UNL     1       2.047   6.241  20.118  0.00  0.00    +0.000 NA
ATOM      4  C   UNL     1       2.831   5.147  19.852  0.00  0.00    +0.000 C 
ATOM      5  O   UNL     1       2.879   4.136  20.537  0.00  0.00    +0.000 OA
ATOM      6  C   UNL     1       3.644   5.342  18.623  0.00  0.00    +0.000 C 
ATOM      7  C   UNL     1       4.527   4.429  18.206  0.00  0.00    +0.000 C 
ATOM      8  S   UNL     1       3.272   6.867  17.928  0.00  0.00    +0.000 S 
ATOM      9  H   UNL     1       1.856   9.021  18.462  0.00  0.00    +0.000 HD
ENDROOT
BRANCH   7  10
ATOM     10  C   UNL     1       5.385   4.568  17.032  0.00  0.00    +0.000 A 
ATOM     11  C   UNL     1       6.643   5.172  17.160  0.00  0.00    +0.000 A 
ATOM     12  C   UNL     1       7.458   5.329  16.038  0.00  0.00    +0.000 A 
ATOM     13  C   UNL     1       7.011   4.884  14.800  0.00  0.00    +0.000 A 
ATOM     14  F   UNL     1       7.792   5.039  13.722  0.00  0.00    +0.000 F 
ATOM     15  C   UNL     1       5.767   4.278  14.659  0.00  0.00    +0.000 A 
ATOM     16  C   UNL     1       4.949   4.120  15.778  0.00  0.00    +0.000 A 
ENDBRANCH   7  10
BRANCH   1  19
ATOM     17  C   UNL     1      -0.521  10.891  21.062  0.00  0.00    +0.000 A 
ATOM     18  C   UNL     1       0.068  10.141  20.027  0.00  0.00    +0.000 A 
ATOM     19  C   UNL     1       0.948   9.083  20.302  0.00  0.00    +0.000 A 
ATOM     20  C   UNL     1       1.177   8.764  21.646  0.00  0.00    +0.000 A 
ATOM     21  C   UNL     1       0.578   9.483  22.684  0.00  0.00    +0.000 A 
ATOM     22  C   UNL     1      -0.273  10.544  22.393  0.00  0.00    +0.000 A 
BRANCH  17  23
ATOM     23  C   UNL     1      -1.382  12.028  20.661  0.00  0.00    +0.000 C 
ATOM     24  O   UNL     1      -2.229  11.942  19.783  0.00  0.00    +0.000 OA
BRANCH  23  26
ATOM     25  C   UNL     1       0.093  13.842  20.711  0.00  0.00    +0.000 C 
ATOM     26  O   UNL     1      -1.009  13.159  21.305  0.00  0.00    +0.000 OA
ENDBRANCH  23  26
ENDBRANCH  17  23
BRANCH  22  27
ATOM     27  O   UNL     1      -0.881  11.206  23.421  0.00  0.00    +0.000 OA
ATOM     28  H   UNL     1      -1.157  10.567  24.100  0.00  0.00    +0.000 HD
ENDBRANCH  22  27
ENDBRANCH   1  19
TORSDOF 5
ENDMDL
MODEL 7
REMARK VINA RESULT:      -7.5      2.601      3.145
REMARK  Name = 
REMARK  6 active torsions:
REMARK  status: ('A' for Active; 'I' for Inactive)
REMARK    1  A    between atoms: C_1  and  O_2
REMARK    2  A    between atoms: O_2  and  C_3
REMARK    3  A    between atoms: C_3  and  C_5
REMARK    4  A    between atoms: C_7  and  N_8
REMARK    5  A    between atoms: C_14  and  C_15
REMARK    6  A    between atoms: C_25  and  O_26
REMARK                            x       y       z     vdW  Elec       q    Type
REMARK                         _______ _______ _______ _____ _____    ______ ____
ROOT
ATOM      1  N   UNL     1       0.679   8.610  21.515  0.00  0.00    +0.000 N 
ATOM      2  C   UNL     1       1.327   8.299  20.351  0.00  0.00    +0.000 C 
ATOM      3  N   UNL     1       1.570   9.040  19.325  0.00  0.00    +0.000 NA
ATOM      4  C   UNL     1       2.203   8.380  18.304  0.00  0.00    +0.000 C 
ATOM      5  O   UNL     1       2.528   8.883  17.237  0.00  0.00    +0.000 OA
ATOM      6  C   UNL     1       2.439   6.951  18.638  0.00  0.00    +0.000 C 
ATOM      7  C   UNL     1       2.988   6.100  17.765  0.00  0.00    +0.000 C 
ATOM      8  S   UNL     1       1.876   6.635  20.229  0.00  0.00    +0.000 S 
ATOM      9  H   UNL     1       0.574   7.846  22.170  0.00  0.00    +0.000 HD
ENDROOT
BRANCH   7  10
ATOM     10  C   UNL     1       3.215   4.678  18.009  0.00  0.00    +0.000 A 
ATOM     11  C   UNL     1       2.348   3.731  17.448  0.00  0.00    +0.000 A 
ATOM     12  C   UNL     1       2.545   2.372  17.698  0.00  0.00    +0.000 A 
ATOM     13  C   UNL     1       3.604   1.971  18.503  0.00  0.00    +0.000 A 
ATOM     14  F   UNL     1       3.790   0.666  18.746  0.00  0.00    +0.000 F 
ATOM     15  C   UNL     1       4.475   2.899  19.062  0.00  0.00    +0.000 A 
ATOM     16  C   UNL     1       4.281   4.258  18.815  0.00  0.00    +0.000 A 
ENDBRANCH   7  10
BRANCH   1  19
ATOM     17  C   UNL     1      -1.216  11.749  20.878  0.00  0.00    +0.000 A 
ATOM     18  C   UNL     1      -0.459  10.580  20.683  0.00  0.00    +0.000 A 
ATOM     19  C   UNL     1      -0.157   9.718  21.749  0.00  0.00    +0.000 A 
ATOM     20  C   UNL     1      -0.682  10.037  23.007  0.00  0.00    +0.000 A 
ATOM     21  C   UNL     1      -1.458  11.182  23.211  0.00  0.00    +0.000 A 
ATOM     22  C   UNL     1      -1.728  12.037  22.146  0.00  0.00    +0.000 A 
BRANCH  17  23
ATOM     23  C   UNL     1      -1.421  12.621  19.698  0.00  0.00    +0.000 C 
ATOM     24  O   UNL     1      -1.187  13.821  19.711  0.00  0.00    +0.000 OA
BRANCH  23  26
ATOM     25  C   UNL     1      -3.421  11.830  18.782  0.00  0.00    +0.000 C 
ATOM     26  O   UNL     1      -2.001  11.930  18.689  0.00  0.00    +0.000 OA
ENDBRANCH  23  26
ENDBRANCH  17  23
BRANCH  22  27
ATOM     27  O   UNL     1      -2.522  13.126  22.359  0.00  0.00    +0.000 OA
ATOM     28  H   UNL     1      -3.436  12.836  22.520  0.00  0.00    +0.000 HD
ENDBRANCH  22  27
ENDBRANCH   1  19
TORSDOF 5
ENDMDL
MODEL 8
REMARK VINA RESULT:      -7.5      2.621      3.125
REMARK  Name = 
REMARK  6 active torsions:
REMARK  status: ('A' for Active; 'I' for Inactive)
REMARK    1  A    between atoms: C_1  and  O_2
REMARK    2  A    between atoms: O_2  and  C_3
REMARK    3  A    between atoms: C_3  and  C_5
REMARK    4  A    between atoms: C_7  and  N_8
REMARK    5  A    between atoms: C_14  and  C_15
REMARK    6  A    between atoms: C_25  and  O_26
REMARK                            x       y       z     vdW  Elec       q    Type
REMARK                         _______ _______ _______ _____ _____    ______ ____
ROOT
ATOM      1  N   UNL     1       0.638   8.650  21.504  0.00  0.00    +0.000 N 
ATOM      2  C   UNL     1       1.296   8.327  20.349  0.00  0.00    +0.000 C 
ATOM      3  N   UNL     1       1.560   9.061  19.324  0.00  0.00    +0.000 NA
ATOM      4  C   UNL     1       2.198   8.390  18.312  0.00  0.00    +0.000 C 
ATOM      5  O   UNL     1       2.541   8.885  17.248  0.00  0.00    +0.000 OA
ATOM      6  C   UNL     1       2.413   6.959  18.655  0.00  0.00    +0.000 C 
ATOM      7  C   UNL     1       2.963   6.099  17.792  0.00  0.00    +0.000 C 
ATOM      8  S   UNL     1       1.828   6.657  20.240  0.00  0.00    +0.000 S 
ATOM      9  H   UNL     1       0.516   7.890  22.161  0.00  0.00    +0.000 HD
ENDROOT
BRANCH   7  10
ATOM     10  C   UNL     1       3.171   4.675  18.044  0.00  0.00    +0.000 A 
ATOM     11  C   UNL     1       4.257   4.261  18.825  0.00  0.00    +0.000 A 
ATOM     12  C   UNL     1       4.475   2.900  19.050  0.00  0.00    +0.000 A 
ATOM     13  C   UNL     1       3.607   1.968  18.495  0.00  0.00    +0.000 A 
ATOM     14  F   UNL     1       3.819   0.662  18.708  0.00  0.00    +0.000 F 
ATOM     15  C   UNL     1       2.522   2.365  17.722  0.00  0.00    +0.000 A 
ATOM     16  C   UNL     1       2.302   3.724  17.494  0.00  0.00    +0.000 A 
ENDBRANCH   7  10
BRANCH   1  19
ATOM     17  C   UNL     1      -1.332  11.728  20.797  0.00  0.00    +0.000 A 
ATOM     18  C   UNL     1      -0.580  10.550  20.626  0.00  0.00    +0.000 A 
ATOM     19  C   UNL     1      -0.188   9.769  21.724  0.00  0.00    +0.000 A 
ATOM     20  C   UNL     1      -0.616  10.175  22.993  0.00  0.00    +0.000 A 
ATOM     21  C   UNL     1      -1.385  11.328  23.176  0.00  0.00    +0.000 A 
ATOM     22  C   UNL     1      -1.745  12.103  22.078  0.00  0.00    +0.000 A 
BRANCH  17  23
ATOM     23  C   UNL     1      -1.636  12.512  19.578  0.00  0.00    +0.000 C 
ATOM     24  O   UNL     1      -2.147  12.020  18.582  0.00  0.00    +0.000 OA
BRANCH  23  26
ATOM     25  C   UNL     1      -0.077  14.081  18.821  0.00  0.00    +0.000 C 
ATOM     26  O   UNL     1      -1.163  13.776  19.693  0.00  0.00    +0.000 OA
ENDBRANCH  23  26
ENDBRANCH  17  23
BRANCH  22  27
ATOM     27  O   UNL     1      -2.532  13.202  22.274  0.00  0.00    +0.000 OA
ATOM     28  H   UNL     1      -2.098  13.804  22.902  0.00  0.00    +0.000 HD
ENDBRANCH  22  27
ENDBRANCH   1  19
TORSDOF 5
ENDMDL
MODEL 9
REMARK VINA RESULT:      -7.5      4.247      9.331
REMARK  Name = 
REMARK  6 active torsions:
REMARK  status: ('A' for Active; 'I' for Inactive)
REMARK    1  A    between atoms: C_1  and  O_2
REMARK    2  A    between atoms: O_2  and  C_3
REMARK    3  A    between atoms: C_3  and  C_5
REMARK    4  A    between atoms: C_7  and  N_8
REMARK    5  A    between atoms: C_14  and  C_15
REMARK    6  A    between atoms: C_25  and  O_26
REMARK                            x       y       z     vdW  Elec       q    Type
REMARK                         _______ _______ _______ _____ _____    ______ ____
ROOT
ATOM      1  N   UNL     1       1.816   6.323  20.839  0.00  0.00    +0.000 N 
ATOM      2  C   UNL     1       1.684   7.459  20.087  0.00  0.00    +0.000 C 
ATOM      3  N   UNL     1       1.983   7.663  18.851  0.00  0.00    +0.000 NA
ATOM      4  C   UNL     1       1.762   8.951  18.434  0.00  0.00    +0.000 C 
ATOM      5  O   UNL     1       1.977   9.370  17.306  0.00  0.00    +0.000 OA
ATOM      6  C   UNL     1       1.239   9.802  19.536  0.00  0.00    +0.000 C 
ATOM      7  C   UNL     1       1.009  11.109  19.373  0.00  0.00    +0.000 C 
ATOM      8  S   UNL     1       1.041   8.848  20.950  0.00  0.00    +0.000 S 
ATOM      9  H   UNL     1       1.546   6.411  21.809  0.00  0.00    +0.000 HD
ENDROOT
BRANCH   7  10
ATOM     10  C   UNL     1       0.532  12.012  20.418  0.00  0.00    +0.000 A 
ATOM     11  C   UNL     1      -0.655  11.717  21.102  0.00  0.00    +0.000 A 
ATOM     12  C   UNL     1      -1.128  12.588  22.084  0.00  0.00    +0.000 A 
ATOM     13  C   UNL     1      -0.414  13.744  22.375  0.00  0.00    +0.000 A 
ATOM     14  F   UNL     1      -0.871  14.582  23.315  0.00  0.00    +0.000 F 
ATOM     15  C   UNL     1       0.768  14.047  21.708  0.00  0.00    +0.000 A 
ATOM     16  C   UNL     1       1.243  13.179  20.725  0.00  0.00    +0.000 A 
ENDBRANCH   7  10
BRANCH   1  19
ATOM     17  C   UNL     1       4.471   4.237  19.273  0.00  0.00    +0.000 A 
ATOM     18  C   UNL     1       3.703   5.345  19.678  0.00  0.00    +0.000 A 
ATOM     19  C   UNL     1       2.603   5.196  20.537  0.00  0.00    +0.000 A 
ATOM     20  C   UNL     1       2.328   3.911  21.020  0.00  0.00    +0.000 A 
ATOM     21  C   UNL     1       3.098   2.805  20.647  0.00  0.00    +0.000 A 
ATOM     22  C   UNL     1       4.171   2.968  19.776  0.00  0.00    +0.000 A 
BRANCH  17  23
ATOM     23  C   UNL     1       5.569   4.496  18.314  0.00  0.00    +0.000 C 
ATOM     24  O   UNL     1       5.381   4.658  17.117  0.00  0.00    +0.000 OA
BRANCH  23  26
ATOM     25  C   UNL     1       7.517   5.619  18.956  0.00  0.00    +0.000 C 
ATOM     26  O   UNL     1       6.772   4.403  18.928  0.00  0.00    +0.000 OA
ENDBRANCH  23  26
ENDBRANCH  17  23
BRANCH  22  27
ATOM     27  O   UNL     1       4.935   1.882  19.459  0.00  0.00    +0.000 OA
ATOM     28  H   UNL     1       5.178   1.407  20.271  0.00  0.00    +0.000 HD
ENDBRANCH  22  27
ENDBRANCH   1  19
TORSDOF 5
ENDMDL
