MODEL 1
REMARK VINA RESULT:      -7.4      0.000      0.000
REMARK  Name = 
REMARK  8 active torsions:
REMARK  status: ('A' for Active; 'I' for Inactive)
REMARK    1  A    between atoms: C_2  and  N_3
REMARK    2  A    between atoms: C_2  and  N_19
REMARK    3  A    between atoms: N_3  and  C_4
REMARK    4  A    between atoms: C_4  and  C_5
REMARK    5  A    between atoms: C_5  and  C_6
REMARK    6  A    between atoms: C_6  and  N_7
REMARK    7  A    between atoms: N_7  and  C_8
REMARK    8  A    between atoms: N_19  and  C_20
REMARK                            x       y       z     vdW  Elec       q    Type
REMARK                         _______ _______ _______ _____ _____    ______ ____
ROOT
ATOM      1  C   UNL     1       1.397   2.304  18.418  0.00  0.00    +0.000 C 
ENDROOT
BRANCH   1   2
ATOM      2  C   UNL     1       0.600   3.044  19.486  0.00  0.00    +0.000 C 
BRANCH   2   3
ATOM      3  N   UNL     1       1.096   4.384  19.762  0.00  0.00    +0.000 N 
ATOM      4  H   UNL     1       1.280   4.963  18.948  0.00  0.00    +0.000 HD
BRANCH   3   6
ATOM      5  S   UNL     1       2.436   3.472  21.798  0.00  0.00    +0.000 S 
ATOM      6  C   UNL     1       1.912   4.715  20.816  0.00  0.00    +0.000 C 
BRANCH   6   7
ATOM      7  N   UNL     1       2.247   6.043  20.887  0.00  0.00    +0.000 N 
ATOM      8  H   UNL     1       2.342   6.378  21.835  0.00  0.00    +0.000 HD
BRANCH   7   9
ATOM      9  C   UNL     1       2.111   7.047  19.909  0.00  0.00    +0.000 A 
ATOM     10  C   UNL     1       1.437   8.219  20.264  0.00  0.00    +0.000 A 
ATOM     11  C   UNL     1       1.314   9.269  19.350  0.00  0.00    +0.000 A 
ATOM     12  C   UNL     1       1.898   9.165  18.089  0.00  0.00    +0.000 A 
ATOM     13  C   UNL     1       2.596   8.012  17.741  0.00  0.00    +0.000 A 
ATOM     14  C   UNL     1       2.701   6.954  18.647  0.00  0.00    +0.000 A 
ENDBRANCH   7   9
ENDBRANCH   6   7
ENDBRANCH   3   6
ENDBRANCH   2   3
ENDBRANCH   1   2
BRANCH   1  15
ATOM     15  C   UNL     1       2.289   3.298  17.675  0.00  0.00    +0.000 C 
BRANCH  15  16
ATOM     16  N   UNL     1       3.671   2.825  17.663  0.00  0.00    +0.000 N 
ATOM     17  H   UNL     1       3.832   2.164  16.910  0.00  0.00    +0.000 HD
BRANCH  16  18
ATOM     18  C   UNL     1       4.701   3.794  17.733  0.00  0.00    +0.000 A 
ATOM     19  C   UNL     1       5.110   4.319  18.965  0.00  0.00    +0.000 A 
ATOM     20  C   UNL     1       6.165   5.208  19.010  0.00  0.00    +0.000 A 
ATOM     21  N   UNL     1       6.869   5.585  17.930  0.00  0.00    +0.000 NA
ATOM     22  C   UNL     1       6.534   5.058  16.747  0.00  0.00    +0.000 A 
ATOM     23  C   UNL     1       7.300   5.433  15.656  0.00  0.00    +0.000 A 
ATOM     24  C   UNL     1       7.036   4.941  14.383  0.00  0.00    +0.000 A 
ATOM     25 CL   UNL     1       8.023   5.419  13.057  0.00  0.00    +0.000 Cl
ATOM     26  C   UNL     1       5.985   4.061  14.178  0.00  0.00    +0.000 A 
ATOM     27  C   UNL     1       5.205   3.665  15.267  0.00  0.00    +0.000 A 
ATOM     28  C   UNL     1       5.458   4.150  16.574  0.00  0.00    +0.000 A 
ENDBRANCH  16  18
ENDBRANCH  15  16
ENDBRANCH   1  15
TORSDOF 8
ENDMDL
MODEL 2
REMARK VINA RESULT:      -7.3      0.538      1.090
REMARK  Name = 
REMARK  8 active torsions:
REMARK  status: ('A' for Active; 'I' for Inactive)
REMARK    1  A    between atoms: C_2  and  N_3
REMARK    2  A    between atoms: C_2  and  N_19
REMARK    3  A    between atoms: N_3  and  C_4
REMARK    4  A    between atoms: C_4  and  C_5
REMARK    5  A    between atoms: C_5  and  C_6
REMARK    6  A    between atoms: C_6  and  N_7
REMARK    7  A    between atoms: N_7  and  C_8
REMARK    8  A    between atoms: N_19  and  C_20
REMARK                            x       y       z     vdW  Elec       q    Type
REMARK                         _______ _______ _______ _____ _____    ______ ____
ROOT
ATOM      1  C   UNL     1       1.983   2.052  18.399  0.00  0.00    +0.000 C 
ENDROOT
BRANCH   1   2
ATOM      2  C   UNL     1       0.993   2.993  19.078  0.00  0.00    +0.000 C 
BRANCH   2   3
ATOM      3  N   UNL     1       1.503   4.343  19.263  0.00  0.00    +0.000 N 
ATOM      4  H   UNL     1       1.826   4.812  18.421  0.00  0.00    +0.000 HD
BRANCH   3   6
ATOM      5  S   UNL     1       2.201   3.765  21.702  0.00  0.00    +0.000 S 
ATOM      6  C   UNL     1       2.174   4.781  20.378  0.00  0.00    +0.000 C 
BRANCH   6   7
ATOM      7  N   UNL     1       2.798   5.993  20.234  0.00  0.00    +0.000 N 
ATOM      8  H   UNL     1       3.641   6.074  20.785  0.00  0.00    +0.000 HD
BRANCH   7   9
ATOM      9  C   UNL     1       2.275   7.212  19.760  0.00  0.00    +0.000 A 
ATOM     10  C   UNL     1       2.451   7.518  18.407  0.00  0.00    +0.000 A 
ATOM     11  C   UNL     1       1.910   8.690  17.872  0.00  0.00    +0.000 A 
ATOM     12  C   UNL     1       1.160   9.542  18.679  0.00  0.00    +0.000 A 
ATOM     13  C   UNL     1       0.957   9.227  20.021  0.00  0.00    +0.000 A 
ATOM     14  C   UNL     1       1.514   8.066  20.561  0.00  0.00    +0.000 A 
ENDBRANCH   7   9
ENDBRANCH   6   7
ENDBRANCH   3   6
ENDBRANCH   2   3
ENDBRANCH   1   2
BRANCH   1  15
ATOM     15  C   UNL     1       2.839   2.847  17.413  0.00  0.00    +0.000 C 
BRANCH  15  16
ATOM     16  N   UNL     1       4.256   2.650  17.701  0.00  0.00    +0.000 N 
ATOM     17  H   UNL     1       4.636   1.863  17.184  0.00  0.00    +0.000 HD
BRANCH  16  18
ATOM     18  C   UNL     1       5.108   3.779  17.629  0.00  0.00    +0.000 A 
ATOM     19  C   UNL     1       5.458   4.488  18.784  0.00  0.00    +0.000 A 
ATOM     20  C   UNL     1       6.348   5.540  18.693  0.00  0.00    +0.000 A 
ATOM     21  N   UNL     1       6.945   5.915  17.550  0.00  0.00    +0.000 NA
ATOM     22  C   UNL     1       6.669   5.221  16.440  0.00  0.00    +0.000 A 
ATOM     23  C   UNL     1       7.328   5.604  15.283  0.00  0.00    +0.000 A 
ATOM     24  C   UNL     1       7.113   4.946  14.078  0.00  0.00    +0.000 A 
ATOM     25 CL   UNL     1       7.964   5.442  12.667  0.00  0.00    +0.000 Cl
ATOM     26  C   UNL     1       6.221   3.887  14.009  0.00  0.00    +0.000 A 
ATOM     27  C   UNL     1       5.553   3.481  15.166  0.00  0.00    +0.000 A 
ATOM     28  C   UNL     1       5.759   4.134  16.407  0.00  0.00    +0.000 A 
ENDBRANCH  16  18
ENDBRANCH  15  16
ENDBRANCH   1  15
TORSDOF 8
ENDMDL
MODEL 3
REMARK VINA RESULT:      -7.3      3.513      6.767
REMARK  Name = 
REMARK  8 active torsions:
REMARK  status: ('A' for Active; 'I' for Inactive)
REMARK    1  A    between atoms: C_2  and  N_3
REMARK    2  A    between atoms: C_2  and  N_19
REMARK    3  A    between atoms: N_3  and  C_4
REMARK    4  A    between atoms: C_4  and  C_5
REMARK    5  A    between atoms: C_5  and  C_6
REMARK    6  A    between atoms: C_6  and  N_7
REMARK    7  A    between atoms: N_7  and  C_8
REMARK    8  A    between atoms: N_19  and  C_20
REMARK                            x       y       z     vdW  Elec       q    Type
REMARK                         _______ _______ _______ _____ _____    ______ ____
ROOT
ATOM      1  C   UNL     1       1.844   3.883  20.092  0.00  0.00    +0.000 C 
ENDROOT
BRANCH   1   2
ATOM      2  C   UNL     1       2.593   3.193  21.227  0.00  0.00    +0.000 C 
BRANCH   2   3
ATOM      3  N   UNL     1       3.695   2.357  20.776  0.00  0.00    +0.000 N 
ATOM      4  H   UNL     1       4.382   2.114  21.483  0.00  0.00    +0.000 HD
BRANCH   3   6
ATOM      5  S   UNL     1       3.534   1.478  18.332  0.00  0.00    +0.000 S 
ATOM      6  C   UNL     1       4.250   2.404  19.521  0.00  0.00    +0.000 C 
BRANCH   6   7
ATOM      7  N   UNL     1       5.305   3.271  19.393  0.00  0.00    +0.000 N 
ATOM      8  H   UNL     1       5.929   3.258  20.186  0.00  0.00    +0.000 HD
BRANCH   7   9
ATOM      9  C   UNL     1       5.438   4.389  18.546  0.00  0.00    +0.000 A 
ATOM     10  C   UNL     1       6.479   5.286  18.806  0.00  0.00    +0.000 A 
ATOM     11  C   UNL     1       6.689   6.386  17.970  0.00  0.00    +0.000 A 
ATOM     12  C   UNL     1       5.881   6.574  16.851  0.00  0.00    +0.000 A 
ATOM     13  C   UNL     1       4.861   5.667  16.571  0.00  0.00    +0.000 A 
ATOM     14  C   UNL     1       4.638   4.579  17.418  0.00  0.00    +0.000 A 
ENDBRANCH   7   9
ENDBRANCH   6   7
ENDBRANCH   3   6
ENDBRANCH   2   3
ENDBRANCH   1   2
BRANCH   1  15
ATOM     15  C   UNL     1       1.356   5.251  20.569  0.00  0.00    +0.000 C 
BRANCH  15  16
ATOM     16  N   UNL     1       2.420   6.242  20.434  0.00  0.00    +0.000 N 
ATOM     17  H   UNL     1       3.264   5.832  20.048  0.00  0.00    +0.000 HD
BRANCH  16  18
ATOM     18  C   UNL     1       2.104   7.469  19.803  0.00  0.00    +0.000 A 
ATOM     19  C   UNL     1       2.360   7.662  18.441  0.00  0.00    +0.000 A 
ATOM     20  C   UNL     1       1.975   8.842  17.835  0.00  0.00    +0.000 A 
ATOM     21  N   UNL     1       1.321   9.827  18.471  0.00  0.00    +0.000 NA
ATOM     22  C   UNL     1       1.016   9.648  19.762  0.00  0.00    +0.000 A 
ATOM     23  C   UNL     1       0.307  10.662  20.384  0.00  0.00    +0.000 A 
ATOM     24  C   UNL     1      -0.061  10.572  21.721  0.00  0.00    +0.000 A 
ATOM     25 CL   UNL     1      -0.956  11.848  22.452  0.00  0.00    +0.000 Cl
ATOM     26  C   UNL     1       0.284   9.456  22.467  0.00  0.00    +0.000 A 
ATOM     27  C   UNL     1       0.993   8.419  21.857  0.00  0.00    +0.000 A 
ATOM     28  C   UNL     1       1.374   8.487  20.493  0.00  0.00    +0.000 A 
ENDBRANCH  16  18
ENDBRANCH  15  16
ENDBRANCH   1  15
TORSDOF 8
ENDMDL
MODEL 4
REMARK VINA RESULT:      -7.2      3.872      7.542
REMARK  Name = 
REMARK  8 active torsions:
REMARK  status: ('A' for Active; 'I' for Inactive)
REMARK    1  A    between atoms: C_2  and  N_3
REMARK    2  A    between atoms: C_2  and  N_19
REMARK    3  A    between atoms: N_3  and  C_4
REMARK    4  A    between atoms: C_4  and  C_5
REMARK    5  A    between atoms: C_5  and  C_6
REMARK    6  A    between atoms: C_6  and  N_7
REMARK    7  A    between atoms: N_7  and  C_8
REMARK    8  A    between atoms: N_19  and  C_20
REMARK                            x       y       z     vdW  Elec       q    Type
REMARK                         _______ _______ _______ _____ _____    ______ ____
ROOT
ATOM      1  C   UNL     1       1.940   4.809  20.965  0.00  0.00    +0.000 C 
ENDROOT
BRANCH   1   2
ATOM      2  C   UNL     1       2.765   3.624  20.472  0.00  0.00    +0.000 C 
BRANCH   2   3
ATOM      3  N   UNL     1       3.738   3.975  19.450  0.00  0.00    +0.000 N 
ATOM      4  H   UNL     1       3.764   4.954  19.182  0.00  0.00    +0.000 HD
BRANCH   3   6
ATOM      5  S   UNL     1       3.451   1.626  18.368  0.00  0.00    +0.000 S 
ATOM      6  C   UNL     1       4.118   3.155  18.416  0.00  0.00    +0.000 C 
BRANCH   6   7
ATOM      7  N   UNL     1       4.965   3.733  17.506  0.00  0.00    +0.000 N 
ATOM      8  H   UNL     1       5.250   3.102  16.771  0.00  0.00    +0.000 HD
BRANCH   7   9
ATOM      9  C   UNL     1       5.758   4.890  17.640  0.00  0.00    +0.000 A 
ATOM     10  C   UNL     1       6.937   4.793  18.386  0.00  0.00    +0.000 A 
ATOM     11  C   UNL     1       7.786   5.895  18.512  0.00  0.00    +0.000 A 
ATOM     12  C   UNL     1       7.478   7.088  17.862  0.00  0.00    +0.000 A 
ATOM     13  C   UNL     1       6.320   7.182  17.094  0.00  0.00    +0.000 A 
ATOM     14  C   UNL     1       5.460   6.086  16.985  0.00  0.00    +0.000 A 
ENDBRANCH   7   9
ENDBRANCH   6   7
ENDBRANCH   3   6
ENDBRANCH   2   3
ENDBRANCH   1   2
BRANCH   1  15
ATOM     15  C   UNL     1       2.077   5.965  19.975  0.00  0.00    +0.000 C 
BRANCH  15  16
ATOM     16  N   UNL     1       2.207   7.231  20.692  0.00  0.00    +0.000 N 
ATOM     17  H   UNL     1       3.169   7.408  20.963  0.00  0.00    +0.000 HD
BRANCH  16  18
ATOM     18  C   UNL     1       1.610   8.379  20.117  0.00  0.00    +0.000 A 
ATOM     19  C   UNL     1       1.709   8.628  18.744  0.00  0.00    +0.000 A 
ATOM     20  C   UNL     1       1.056   9.716  18.200  0.00  0.00    +0.000 A 
ATOM     21  N   UNL     1       0.280  10.552  18.911  0.00  0.00    +0.000 NA
ATOM     22  C   UNL     1       0.125  10.307  20.216  0.00  0.00    +0.000 A 
ATOM     23  C   UNL     1      -0.711  11.160  20.918  0.00  0.00    +0.000 A 
ATOM     24  C   UNL     1      -0.941  10.991  22.278  0.00  0.00    +0.000 A 
ATOM     25 CL   UNL     1      -2.000  12.063  23.109  0.00  0.00    +0.000 Cl
ATOM     26  C   UNL     1      -0.327   9.956  22.967  0.00  0.00    +0.000 A 
ATOM     27  C   UNL     1       0.513   9.080  22.276  0.00  0.00    +0.000 A 
ATOM     28  C   UNL     1       0.759   9.231  20.889  0.00  0.00    +0.000 A 
ENDBRANCH  16  18
ENDBRANCH  15  16
ENDBRANCH   1  15
TORSDOF 8
ENDMDL
MODEL 5
REMARK VINA RESULT:      -7.2      3.732      7.020
REMARK  Name = 
REMARK  8 active torsions:
REMARK  status: ('A' for Active; 'I' for Inactive)
REMARK    1  A    between atoms: C_2  and  N_3
REMARK    2  A    between atoms: C_2  and  N_19
REMARK    3  A    between atoms: N_3  and  C_4
REMARK    4  A    between atoms: C_4  and  C_5
REMARK    5  A    between atoms: C_5  and  C_6
REMARK    6  A    between atoms: C_6  and  N_7
REMARK    7  A    between atoms: N_7  and  C_8
REMARK    8  A    between atoms: N_19  and  C_20
REMARK                            x       y       z     vdW  Elec       q    Type
REMARK                         _______ _______ _______ _____ _____    ______ ____
ROOT
ATOM      1  C   UNL     1       1.642   4.198  20.701  0.00  0.00    +0.000 C 
ENDROOT
BRANCH   1   2
ATOM      2  C   UNL     1       3.073   3.786  21.028  0.00  0.00    +0.000 C 
BRANCH   2   3
ATOM      3  N   UNL     1       3.581   2.718  20.182  0.00  0.00    +0.000 N 
ATOM      4  H   UNL     1       3.836   1.859  20.659  0.00  0.00    +0.000 HD
BRANCH   3   6
ATOM      5  S   UNL     1       3.718   2.302  17.616  0.00  0.00    +0.000 S 
ATOM      6  C   UNL     1       4.329   2.909  19.045  0.00  0.00    +0.000 C 
BRANCH   6   7
ATOM      7  N   UNL     1       5.473   3.642  19.228  0.00  0.00    +0.000 N 
ATOM      8  H   UNL     1       5.913   3.477  20.122  0.00  0.00    +0.000 HD
BRANCH   7   9
ATOM      9  C   UNL     1       5.899   4.807  18.559  0.00  0.00    +0.000 A 
ATOM     10  C   UNL     1       4.955   5.510  17.806  0.00  0.00    +0.000 A 
ATOM     11  C   UNL     1       5.308   6.698  17.161  0.00  0.00    +0.000 A 
ATOM     12  C   UNL     1       6.598   7.207  17.298  0.00  0.00    +0.000 A 
ATOM     13  C   UNL     1       7.534   6.525  18.071  0.00  0.00    +0.000 A 
ATOM     14  C   UNL     1       7.187   5.327  18.699  0.00  0.00    +0.000 A 
ENDBRANCH   7   9
ENDBRANCH   6   7
ENDBRANCH   3   6
ENDBRANCH   2   3
ENDBRANCH   1   2
BRANCH   1  15
ATOM     15  C   UNL     1       1.667   5.362  19.711  0.00  0.00    +0.000 C 
BRANCH  15  16
ATOM     16  N   UNL     1       2.321   6.522  20.311  0.00  0.00    +0.000 N 
ATOM     17  H   UNL     1       3.329   6.409  20.339  0.00  0.00    +0.000 HD
BRANCH  16  18
ATOM     18  C   UNL     1       1.955   7.805  19.837  0.00  0.00    +0.000 A 
ATOM     19  C   UNL     1       2.217   8.183  18.516  0.00  0.00    +0.000 A 
ATOM     20  C   UNL     1       1.784   9.413  18.060  0.00  0.00    +0.000 A 
ATOM     21  N   UNL     1       1.079  10.278  18.806  0.00  0.00    +0.000 NA
ATOM     22  C   UNL     1       0.768   9.921  20.058  0.00  0.00    +0.000 A 
ATOM     23  C   UNL     1       0.007  10.814  20.793  0.00  0.00    +0.000 A 
ATOM     24  C   UNL     1      -0.371  10.537  22.102  0.00  0.00    +0.000 A 
ATOM     25 CL   UNL     1      -1.332  11.666  22.975  0.00  0.00    +0.000 Cl
ATOM     26  C   UNL     1       0.018   9.350  22.704  0.00  0.00    +0.000 A 
ATOM     27  C   UNL     1       0.780   8.433  21.977  0.00  0.00    +0.000 A 
ATOM     28  C   UNL     1       1.172   8.692  20.640  0.00  0.00    +0.000 A 
ENDBRANCH  16  18
ENDBRANCH  15  16
ENDBRANCH   1  15
TORSDOF 8
ENDMDL
MODEL 6
REMARK VINA RESULT:      -7.1      1.672      2.722
REMARK  Name = 
REMARK  8 active torsions:
REMARK  status: ('A' for Active; 'I' for Inactive)
REMARK    1  A    between atoms: C_2  and  N_3
REMARK    2  A    between atoms: C_2  and  N_19
REMARK    3  A    between atoms: N_3  and  C_4
REMARK    4  A    between atoms: C_4  and  C_5
REMARK    5  A    between atoms: C_5  and  C_6
REMARK    6  A    between atoms: C_6  and  N_7
REMARK    7  A    between atoms: N_7  and  C_8
REMARK    8  A    between atoms: N_19  and  C_20
REMARK                            x       y       z     vdW  Elec       q    Type
REMARK                         _______ _______ _______ _____ _____    ______ ____
ROOT
ATOM      1  C   UNL     1       2.261   2.183  18.322  0.00  0.00    +0.000 C 
ENDROOT
BRANCH   1   2
ATOM      2  C   UNL     1       1.210   3.189  18.778  0.00  0.00    +0.000 C 
BRANCH   2   3
ATOM      3  N   UNL     1       1.723   4.540  18.936  0.00  0.00    +0.000 N 
ATOM      4  H   UNL     1       2.146   4.951  18.109  0.00  0.00    +0.000 HD
BRANCH   3   6
ATOM      5  S   UNL     1       2.247   4.054  21.439  0.00  0.00    +0.000 S 
ATOM      6  C   UNL     1       2.275   5.038  20.091  0.00  0.00    +0.000 C 
BRANCH   6   7
ATOM      7  N   UNL     1       2.844   6.280  19.966  0.00  0.00    +0.000 N 
ATOM      8  H   UNL     1       3.730   6.361  20.444  0.00  0.00    +0.000 HD
BRANCH   7   9
ATOM      9  C   UNL     1       2.239   7.503  19.618  0.00  0.00    +0.000 A 
ATOM     10  C   UNL     1       2.378   7.950  18.301  0.00  0.00    +0.000 A 
ATOM     11  C   UNL     1       1.759   9.132  17.886  0.00  0.00    +0.000 A 
ATOM     12  C   UNL     1       0.968   9.853  18.778  0.00  0.00    +0.000 A 
ATOM     13  C   UNL     1       0.802   9.397  20.083  0.00  0.00    +0.000 A 
ATOM     14  C   UNL     1       1.437   8.226  20.504  0.00  0.00    +0.000 A 
ENDBRANCH   7   9
ENDBRANCH   6   7
ENDBRANCH   3   6
ENDBRANCH   2   3
ENDBRANCH   1   2
BRANCH   1  15
ATOM     15  C   UNL     1       2.992   2.738  17.099  0.00  0.00    +0.000 C 
BRANCH  15  16
ATOM     16  N   UNL     1       4.432   2.770  17.343  0.00  0.00    +0.000 N 
ATOM     17  H   UNL     1       4.827   1.835  17.360  0.00  0.00    +0.000 HD
BRANCH  16  18
ATOM     18  C   UNL     1       5.215   3.651  16.558  0.00  0.00    +0.000 A 
ATOM     19  C   UNL     1       5.116   3.648  15.162  0.00  0.00    +0.000 A 
ATOM     20  C   UNL     1       5.837   4.567  14.426  0.00  0.00    +0.000 A 
ATOM     21  N   UNL     1       6.619   5.512  14.974  0.00  0.00    +0.000 NA
ATOM     22  C   UNL     1       6.691   5.572  16.309  0.00  0.00    +0.000 A 
ATOM     23  C   UNL     1       7.472   6.580  16.848  0.00  0.00    +0.000 A 
ATOM     24  C   UNL     1       7.612   6.729  18.224  0.00  0.00    +0.000 A 
ATOM     25 CL   UNL     1       8.579   8.005  18.854  0.00  0.00    +0.000 Cl
ATOM     26  C   UNL     1       6.969   5.858  19.089  0.00  0.00    +0.000 A 
ATOM     27  C   UNL     1       6.170   4.840  18.565  0.00  0.00    +0.000 A 
ATOM     28  C   UNL     1       6.010   4.671  17.167  0.00  0.00    +0.000 A 
ENDBRANCH  16  18
ENDBRANCH  15  16
ENDBRANCH   1  15
TORSDOF 8
ENDMDL
MODEL 7
REMARK VINA RESULT:      -7.1      3.466      6.914
REMARK  Name = 
REMARK  8 active torsions:
REMARK  status: ('A' for Active; 'I' for Inactive)
REMARK    1  A    between atoms: C_2  and  N_3
REMARK    2  A    between atoms: C_2  and  N_19
REMARK    3  A    between atoms: N_3  and  C_4
REMARK    4  A    between atoms: C_4  and  C_5
REMARK    5  A    between atoms: C_5  and  C_6
REMARK    6  A    between atoms: C_6  and  N_7
REMARK    7  A    between atoms: N_7  and  C_8
REMARK    8  A    between atoms: N_19  and  C_20
REMARK                            x       y       z     vdW  Elec       q    Type
REMARK                         _______ _______ _______ _____ _____    ______ ____
ROOT
ATOM      1  C   UNL     1       1.670   4.236  20.233  0.00  0.00    +0.000 C 
ENDROOT
BRANCH   1   2
ATOM      2  C   UNL     1       1.622   3.759  18.785  0.00  0.00    +0.000 C 
BRANCH   2   3
ATOM      3  N   UNL     1       2.516   2.645  18.507  0.00  0.00    +0.000 N 
ATOM      4  H   UNL     1       2.124   1.719  18.649  0.00  0.00    +0.000 HD
BRANCH   3   6
ATOM      5  S   UNL     1       4.440   1.983  20.129  0.00  0.00    +0.000 S 
ATOM      6  C   UNL     1       3.873   2.661  18.713  0.00  0.00    +0.000 C 
BRANCH   6   7
ATOM      7  N   UNL     1       4.605   3.187  17.680  0.00  0.00    +0.000 N 
ATOM      8  H   UNL     1       4.998   2.482  17.072  0.00  0.00    +0.000 HD
BRANCH   7   9
ATOM      9  C   UNL     1       5.178   4.467  17.558  0.00  0.00    +0.000 A 
ATOM     10  C   UNL     1       6.391   4.706  18.210  0.00  0.00    +0.000 A 
ATOM     11  C   UNL     1       7.031   5.942  18.085  0.00  0.00    +0.000 A 
ATOM     12  C   UNL     1       6.477   6.932  17.277  0.00  0.00    +0.000 A 
ATOM     13  C   UNL     1       5.283   6.690  16.601  0.00  0.00    +0.000 A 
ATOM     14  C   UNL     1       4.634   5.462  16.742  0.00  0.00    +0.000 A 
ENDBRANCH   7   9
ENDBRANCH   6   7
ENDBRANCH   3   6
ENDBRANCH   2   3
ENDBRANCH   1   2
BRANCH   1  15
ATOM     15  C   UNL     1       2.617   5.431  20.339  0.00  0.00    +0.000 C 
BRANCH  15  16
ATOM     16  N   UNL     1       1.914   6.584  20.894  0.00  0.00    +0.000 N 
ATOM     17  H   UNL     1       2.256   6.818  21.820  0.00  0.00    +0.000 HD
BRANCH  16  18
ATOM     18  C   UNL     1       1.790   7.737  20.080  0.00  0.00    +0.000 A 
ATOM     19  C   UNL     1       2.269   7.741  18.766  0.00  0.00    +0.000 A 
ATOM     20  C   UNL     1       2.070   8.853  17.972  0.00  0.00    +0.000 A 
ATOM     21  N   UNL     1       1.396   9.944  18.372  0.00  0.00    +0.000 NA
ATOM     22  C   UNL     1       0.880   9.946  19.606  0.00  0.00    +0.000 A 
ATOM     23  C   UNL     1       0.157  11.066  19.981  0.00  0.00    +0.000 A 
ATOM     24  C   UNL     1      -0.422  11.166  21.241  0.00  0.00    +0.000 A 
ATOM     25 CL   UNL     1      -1.327  12.568  21.660  0.00  0.00    +0.000 Cl
ATOM     26  C   UNL     1      -0.279  10.137  22.159  0.00  0.00    +0.000 A 
ATOM     27  C   UNL     1       0.441   8.995  21.798  0.00  0.00    +0.000 A 
ATOM     28  C   UNL     1       1.036   8.870  20.518  0.00  0.00    +0.000 A 
ENDBRANCH  16  18
ENDBRANCH  15  16
ENDBRANCH   1  15
TORSDOF 8
ENDMDL
MODEL 8
REMARK VINA RESULT:      -7.0      3.240      6.569
REMARK  Name = 
REMARK  8 active torsions:
REMARK  status: ('A' for Active; 'I' for Inactive)
REMARK    1  A    between atoms: C_2  and  N_3
REMARK    2  A    between atoms: C_2  and  N_19
REMARK    3  A    between atoms: N_3  and  C_4
REMARK    4  A    between atoms: C_4  and  C_5
REMARK    5  A    between atoms: C_5  and  C_6
REMARK    6  A    between atoms: C_6  and  N_7
REMARK    7  A    between atoms: N_7  and  C_8
REMARK    8  A    between atoms: N_19  and  C_20
REMARK                            x       y       z     vdW  Elec       q    Type
REMARK                         _______ _______ _______ _____ _____    ______ ____
ROOT
ATOM      1  C   UNL     1       2.915   4.308  20.899  0.00  0.00    +0.000 C 
ENDROOT
BRANCH   1   2
ATOM      2  C   UNL     1       2.539   2.863  20.587  0.00  0.00    +0.000 C 
BRANCH   2   3
ATOM      3  N   UNL     1       3.281   2.295  19.472  0.00  0.00    +0.000 N 
ATOM      4  H   UNL     1       4.056   1.687  19.721  0.00  0.00    +0.000 HD
BRANCH   3   6
ATOM      5  S   UNL     1       2.150   3.338  17.373  0.00  0.00    +0.000 S 
ATOM      6  C   UNL     1       3.494   2.926  18.271  0.00  0.00    +0.000 C 
BRANCH   6   7
ATOM      7  N   UNL     1       4.809   3.195  17.990  0.00  0.00    +0.000 N 
ATOM      8  H   UNL     1       5.433   2.446  18.253  0.00  0.00    +0.000 HD
BRANCH   7   9
ATOM      9  C   UNL     1       5.432   4.437  17.758  0.00  0.00    +0.000 A 
ATOM     10  C   UNL     1       6.397   4.867  18.674  0.00  0.00    +0.000 A 
ATOM     11  C   UNL     1       7.082   6.067  18.469  0.00  0.00    +0.000 A 
ATOM     12  C   UNL     1       6.831   6.825  17.327  0.00  0.00    +0.000 A 
ATOM     13  C   UNL     1       5.892   6.387  16.396  0.00  0.00    +0.000 A 
ATOM     14  C   UNL     1       5.192   5.197  16.611  0.00  0.00    +0.000 A 
ENDBRANCH   7   9
ENDBRANCH   6   7
ENDBRANCH   3   6
ENDBRANCH   2   3
ENDBRANCH   1   2
BRANCH   1  15
ATOM     15  C   UNL     1       1.711   5.211  20.632  0.00  0.00    +0.000 C 
BRANCH  15  16
ATOM     16  N   UNL     1       2.046   6.600  20.931  0.00  0.00    +0.000 N 
ATOM     17  H   UNL     1       2.889   6.668  21.492  0.00  0.00    +0.000 HD
BRANCH  16  18
ATOM     18  C   UNL     1       2.063   7.521  19.855  0.00  0.00    +0.000 A 
ATOM     19  C   UNL     1       2.760   7.235  18.676  0.00  0.00    +0.000 A 
ATOM     20  C   UNL     1       2.699   8.118  17.617  0.00  0.00    +0.000 A 
ATOM     21  N   UNL     1       1.967   9.245  17.627  0.00  0.00    +0.000 NA
ATOM     22  C   UNL     1       1.248   9.517  18.722  0.00  0.00    +0.000 A 
ATOM     23  C   UNL     1       0.472  10.664  18.691  0.00  0.00    +0.000 A 
ATOM     24  C   UNL     1      -0.313  11.035  19.777  0.00  0.00    +0.000 A 
ATOM     25 CL   UNL     1      -1.276  12.459  19.692  0.00  0.00    +0.000 Cl
ATOM     26  C   UNL     1      -0.329  10.259  20.925  0.00  0.00    +0.000 A 
ATOM     27  C   UNL     1       0.441   9.095  20.973  0.00  0.00    +0.000 A 
ATOM     28  C   UNL     1       1.246   8.694  19.877  0.00  0.00    +0.000 A 
ENDBRANCH  16  18
ENDBRANCH  15  16
ENDBRANCH   1  15
TORSDOF 8
ENDMDL
MODEL 9
REMARK VINA RESULT:      -7.0      5.888      8.081
REMARK  Name = 
REMARK  8 active torsions:
REMARK  status: ('A' for Active; 'I' for Inactive)
REMARK    1  A    between atoms: C_2  and  N_3
REMARK    2  A    between atoms: C_2  and  N_19
REMARK    3  A    between atoms: N_3  and  C_4
REMARK    4  A    between atoms: C_4  and  C_5
REMARK    5  A    between atoms: C_5  and  C_6
REMARK    6  A    between atoms: C_6  and  N_7
REMARK    7  A    between atoms: N_7  and  C_8
REMARK    8  A    between atoms: N_19  and  C_20
REMARK                            x       y       z     vdW  Elec       q    Type
REMARK                         _______ _______ _______ _____ _____    ______ ____
ROOT
ATOM      1  C   UNL     1       7.781   7.078  18.121  0.00  0.00    +0.000 C 
ENDROOT
BRANCH   1   2
ATOM      2  C   UNL     1       8.173   8.539  17.927  0.00  0.00    +0.000 C 
BRANCH   2   3
ATOM      3  N   UNL     1       8.910   9.101  19.048  0.00  0.00    +0.000 N 
ATOM      4  H   UNL     1       8.734   8.671  19.951  0.00  0.00    +0.000 HD
BRANCH   3   6
ATOM      5  S   UNL     1       9.354  11.047  20.718  0.00  0.00    +0.000 S 
ATOM      6  C   UNL     1       9.256  10.424  19.173  0.00  0.00    +0.000 C 
BRANCH   6   7
ATOM      7  N   UNL     1       9.543  11.056  17.991  0.00  0.00    +0.000 N 
ATOM      8  H   UNL     1       9.484  10.445  17.189  0.00  0.00    +0.000 HD
BRANCH   7   9
ATOM      9  C   UNL     1      10.240  12.261  17.773  0.00  0.00    +0.000 A 
ATOM     10  C   UNL     1      11.557  12.182  17.314  0.00  0.00    +0.000 A 
ATOM     11  C   UNL     1      12.280  13.344  17.034  0.00  0.00    +0.000 A 
ATOM     12  C   UNL     1      11.675  14.591  17.178  0.00  0.00    +0.000 A 
ATOM     13  C   UNL     1      10.353  14.675  17.608  0.00  0.00    +0.000 A 
ATOM     14  C   UNL     1       9.637  13.514  17.907  0.00  0.00    +0.000 A 
ENDBRANCH   7   9
ENDBRANCH   6   7
ENDBRANCH   3   6
ENDBRANCH   2   3
ENDBRANCH   1   2
BRANCH   1  15
ATOM     15  C   UNL     1       6.924   6.625  16.940  0.00  0.00    +0.000 C 
BRANCH  15  16
ATOM     16  N   UNL     1       5.987   5.588  17.365  0.00  0.00    +0.000 N 
ATOM     17  H   UNL     1       6.442   4.890  17.944  0.00  0.00    +0.000 HD
BRANCH  16  18
ATOM     18  C   UNL     1       4.753   6.002  17.923  0.00  0.00    +0.000 A 
ATOM     19  C   UNL     1       4.135   7.184  17.500  0.00  0.00    +0.000 A 
ATOM     20  C   UNL     1       2.897   7.525  18.008  0.00  0.00    +0.000 A 
ATOM     21  N   UNL     1       2.211   6.762  18.875  0.00  0.00    +0.000 NA
ATOM     22  C   UNL     1       2.754   5.601  19.256  0.00  0.00    +0.000 A 
ATOM     23  C   UNL     1       2.009   4.815  20.119  0.00  0.00    +0.000 A 
ATOM     24  C   UNL     1       2.483   3.589  20.573  0.00  0.00    +0.000 A 
ATOM     25 CL   UNL     1       1.518   2.636  21.632  0.00  0.00    +0.000 Cl
ATOM     26  C   UNL     1       3.727   3.129  20.171  0.00  0.00    +0.000 A 
ATOM     27  C   UNL     1       4.491   3.903  19.295  0.00  0.00    +0.000 A 
ATOM     28  C   UNL     1       4.026   5.153  18.815  0.00  0.00    +0.000 A 
ENDBRANCH  16  18
ENDBRANCH  15  16
ENDBRANCH   1  15
TORSDOF 8
ENDMDL
