MODEL 1
REMARK VINA RESULT:      -8.5      0.000      0.000
REMARK  Name = 
REMARK  6 active torsions:
REMARK  status: ('A' for Active; 'I' for Inactive)
REMARK    1  A    between atoms: C_2  and  C_4
REMARK    2  A    between atoms: C_8  and  N_9
REMARK    3  A    between atoms: C_10  and  C_12
REMARK    4  A    between atoms: C_13  and  C_14
REMARK    5  A    between atoms: C_20  and  O_21
REMARK    6  A    between atoms: O_21  and  C_22
REMARK                            x       y       z     vdW  Elec       q    Type
REMARK                         _______ _______ _______ _____ _____    ______ ____
ROOT
ATOM      1  C   UNL     1       7.164   5.484  17.982  0.00  0.00    +0.000 C 
ATOM      2  C   UNL     1       6.324   4.724  18.695  0.00  0.00    +0.000 C 
ENDROOT
BRANCH   2   3
ATOM      3  C   UNL     1       5.148   4.025  18.130  0.00  0.00    +0.000 C 
ATOM      4  O   UNL     1       5.249   3.387  17.085  0.00  0.00    +0.000 OA
ATOM      5  N   UNL     1       4.014   4.061  18.935  0.00  0.00    +0.000 N 
ATOM      6  C   UNL     1       2.843   3.281  18.545  0.00  0.00    +0.000 C 
ATOM      7  C   UNL     1       1.825   4.168  17.832  0.00  0.00    +0.000 C 
ATOM      8  C   UNL     1       1.457   5.380  18.695  0.00  0.00    +0.000 C 
ATOM      9  C   UNL     1       2.706   6.154  19.157  0.00  0.00    +0.000 C 
ATOM     10  C   UNL     1       3.710   5.194  19.817  0.00  0.00    +0.000 C 
BRANCH   9  11
ATOM     11  O   UNL     1       2.347   7.134  20.142  0.00  0.00    +0.000 OA
BRANCH  11  12
ATOM     12  C   UNL     1       1.657   8.243  19.739  0.00  0.00    +0.000 A 
ATOM     13  C   UNL     1       1.978   8.709  18.460  0.00  0.00    +0.000 A 
ATOM     14  C   UNL     1       1.377   9.863  17.950  0.00  0.00    +0.000 A 
ATOM     15  C   UNL     1       0.419  10.537  18.704  0.00  0.00    +0.000 A 
ATOM     16  C   UNL     1       0.056  10.047  19.956  0.00  0.00    +0.000 A 
ATOM     17  C   UNL     1       0.671   8.902  20.472  0.00  0.00    +0.000 A 
ENDBRANCH  11  12
ENDBRANCH   9  11
ENDBRANCH   2   3
BRANCH   1  19
ATOM     18  N   UNL     1       7.441   4.766  15.739  0.00  0.00    +0.000 N 
ATOM     19  C   UNL     1       6.935   5.758  16.550  0.00  0.00    +0.000 C 
ATOM     20  O   UNL     1       6.352   6.790  16.231  0.00  0.00    +0.000 OA
ATOM     21  H   UNL     1       7.808   3.934  16.188  0.00  0.00    +0.000 HD
BRANCH  18  26
ATOM     22  C   UNL     1       6.310   3.761  12.341  0.00  0.00    +0.000 A 
ATOM     23  C   UNL     1       7.061   4.617  11.528  0.00  0.00    +0.000 A 
ATOM     24  C   UNL     1       7.951   5.514  12.112  0.00  0.00    +0.000 A 
ATOM     25  C   UNL     1       8.092   5.561  13.498  0.00  0.00    +0.000 A 
ATOM     26  C   UNL     1       7.341   4.724  14.329  0.00  0.00    +0.000 A 
ATOM     27  C   UNL     1       6.456   3.811  13.738  0.00  0.00    +0.000 A 
BRANCH  22  29
ATOM     28  N   UNL     1       5.842   1.485  11.571  0.00  0.00    +0.000 N 
ATOM     29  C   UNL     1       5.378   2.761  11.757  0.00  0.00    +0.000 C 
ATOM     30  O   UNL     1       4.236   3.064  11.444  0.00  0.00    +0.000 OA
ATOM     31  H   UNL     1       5.217   0.843  11.098  0.00  0.00    +0.000 HD
ATOM     32  H   UNL     1       6.813   1.230  11.644  0.00  0.00    +0.000 HD
ENDBRANCH  22  29
ENDBRANCH  18  26
ENDBRANCH   1  19
TORSDOF 6
ENDMDL
MODEL 2
REMARK VINA RESULT:      -8.2      0.665      1.099
REMARK  Name = 
REMARK  6 active torsions:
REMARK  status: ('A' for Active; 'I' for Inactive)
REMARK    1  A    between atoms: C_2  and  C_4
REMARK    2  A    between atoms: C_8  and  N_9
REMARK    3  A    between atoms: C_10  and  C_12
REMARK    4  A    between atoms: C_13  and  C_14
REMARK    5  A    between atoms: C_20  and  O_21
REMARK    6  A    between atoms: O_21  and  C_22
REMARK                            x       y       z     vdW  Elec       q    Type
REMARK                         _______ _______ _______ _____ _____    ______ ____
ROOT
ATOM      1  C   UNL     1       7.192   5.372  17.865  0.00  0.00    +0.000 C 
ATOM      2  C   UNL     1       6.332   4.640  18.585  0.00  0.00    +0.000 C 
ENDROOT
BRANCH   2   3
ATOM      3  C   UNL     1       5.115   4.003  18.036  0.00  0.00    +0.000 C 
ATOM      4  O   UNL     1       5.180   3.314  17.020  0.00  0.00    +0.000 OA
ATOM      5  N   UNL     1       3.978   4.154  18.824  0.00  0.00    +0.000 N 
ATOM      6  C   UNL     1       2.759   3.443  18.453  0.00  0.00    +0.000 C 
ATOM      7  C   UNL     1       1.814   4.368  17.690  0.00  0.00    +0.000 C 
ATOM      8  C   UNL     1       1.525   5.639  18.496  0.00  0.00    +0.000 C 
ATOM      9  C   UNL     1       2.822   6.342  18.940  0.00  0.00    +0.000 C 
ATOM     10  C   UNL     1       3.749   5.342  19.653  0.00  0.00    +0.000 C 
BRANCH   9  11
ATOM     11  O   UNL     1       2.524   7.386  19.878  0.00  0.00    +0.000 OA
BRANCH  11  12
ATOM     12  C   UNL     1       1.660   8.376  19.501  0.00  0.00    +0.000 A 
ATOM     13  C   UNL     1       0.837   8.866  20.520  0.00  0.00    +0.000 A 
ATOM     14  C   UNL     1      -0.122   9.846  20.252  0.00  0.00    +0.000 A 
ATOM     15  C   UNL     1      -0.238  10.371  18.968  0.00  0.00    +0.000 A 
ATOM     16  C   UNL     1       0.615   9.925  17.961  0.00  0.00    +0.000 A 
ATOM     17  C   UNL     1       1.563   8.932  18.226  0.00  0.00    +0.000 A 
ENDBRANCH  11  12
ENDBRANCH   9  11
ENDBRANCH   2   3
BRANCH   1  19
ATOM     18  N   UNL     1       7.404   4.681  15.606  0.00  0.00    +0.000 N 
ATOM     19  C   UNL     1       6.946   5.675  16.442  0.00  0.00    +0.000 C 
ATOM     20  O   UNL     1       6.392   6.732  16.150  0.00  0.00    +0.000 OA
ATOM     21  H   UNL     1       7.751   3.830  16.036  0.00  0.00    +0.000 HD
BRANCH  18  26
ATOM     22  C   UNL     1       6.222   3.725  12.211  0.00  0.00    +0.000 A 
ATOM     23  C   UNL     1       6.944   4.608  11.401  0.00  0.00    +0.000 A 
ATOM     24  C   UNL     1       7.832   5.507  11.986  0.00  0.00    +0.000 A 
ATOM     25  C   UNL     1       8.000   5.529  13.370  0.00  0.00    +0.000 A 
ATOM     26  C   UNL     1       7.277   4.665  14.198  0.00  0.00    +0.000 A 
ATOM     27  C   UNL     1       6.395   3.750  13.606  0.00  0.00    +0.000 A 
BRANCH  22  29
ATOM     28  N   UNL     1       4.027   3.138  11.301  0.00  0.00    +0.000 N 
ATOM     29  C   UNL     1       5.293   2.724  11.626  0.00  0.00    +0.000 C 
ATOM     30  O   UNL     1       5.639   1.565  11.446  0.00  0.00    +0.000 OA
ATOM     31  H   UNL     1       3.387   2.421  10.980  0.00  0.00    +0.000 HD
ATOM     32  H   UNL     1       3.640   4.021  11.588  0.00  0.00    +0.000 HD
ENDBRANCH  22  29
ENDBRANCH  18  26
ENDBRANCH   1  19
TORSDOF 6
ENDMDL
MODEL 3
REMARK VINA RESULT:      -8.2      1.018      1.092
REMARK  Name = 
REMARK  6 active torsions:
REMARK  status: ('A' for Active; 'I' for Inactive)
REMARK    1  A    between atoms: C_2  and  C_4
REMARK    2  A    between atoms: C_8  and  N_9
REMARK    3  A    between atoms: C_10  and  C_12
REMARK    4  A    between atoms: C_13  and  C_14
REMARK    5  A    between atoms: C_20  and  O_21
REMARK    6  A    between atoms: O_21  and  C_22
REMARK                            x       y       z     vdW  Elec       q    Type
REMARK                         _______ _______ _______ _____ _____    ______ ____
ROOT
ATOM      1  C   UNL     1       6.998   5.613  18.148  0.00  0.00    +0.000 C 
ATOM      2  C   UNL     1       5.856   5.288  18.766  0.00  0.00    +0.000 C 
ENDROOT
BRANCH   2   3
ATOM      3  C   UNL     1       4.932   4.226  18.308  0.00  0.00    +0.000 C 
ATOM      4  O   UNL     1       5.100   3.688  17.216  0.00  0.00    +0.000 OA
ATOM      5  N   UNL     1       3.987   3.836  19.251  0.00  0.00    +0.000 N 
ATOM      6  C   UNL     1       3.123   2.697  18.959  0.00  0.00    +0.000 C 
ATOM      7  C   UNL     1       1.766   3.175  18.446  0.00  0.00    +0.000 C 
ATOM      8  C   UNL     1       1.124   4.156  19.432  0.00  0.00    +0.000 C 
ATOM      9  C   UNL     1       2.073   5.316  19.785  0.00  0.00    +0.000 C 
ATOM     10  C   UNL     1       3.435   4.766  20.242  0.00  0.00    +0.000 C 
BRANCH   9  11
ATOM     11  O   UNL     1       1.538   6.082  20.875  0.00  0.00    +0.000 OA
BRANCH  11  12
ATOM     12  C   UNL     1       1.233   7.397  20.661  0.00  0.00    +0.000 A 
ATOM     13  C   UNL     1       1.756   7.944  19.485  0.00  0.00    +0.000 A 
ATOM     14  C   UNL     1       1.556   9.292  19.175  0.00  0.00    +0.000 A 
ATOM     15  C   UNL     1       0.797  10.093  20.024  0.00  0.00    +0.000 A 
ATOM     16  C   UNL     1       0.229   9.541  21.170  0.00  0.00    +0.000 A 
ATOM     17  C   UNL     1       0.445   8.197  21.487  0.00  0.00    +0.000 A 
ENDBRANCH  11  12
ENDBRANCH   9  11
ENDBRANCH   2   3
BRANCH   1  19
ATOM     18  N   UNL     1       6.757   5.517  15.791  0.00  0.00    +0.000 N 
ATOM     19  C   UNL     1       7.402   4.975  16.881  0.00  0.00    +0.000 C 
ATOM     20  O   UNL     1       8.225   4.064  16.914  0.00  0.00    +0.000 OA
ATOM     21  H   UNL     1       6.177   6.334  15.948  0.00  0.00    +0.000 HD
BRANCH  18  26
ATOM     22  C   UNL     1       6.281   3.807  12.522  0.00  0.00    +0.000 A 
ATOM     23  C   UNL     1       7.293   4.388  11.749  0.00  0.00    +0.000 A 
ATOM     24  C   UNL     1       8.138   5.333  12.323  0.00  0.00    +0.000 A 
ATOM     25  C   UNL     1       7.977   5.702  13.658  0.00  0.00    +0.000 A 
ATOM     26  C   UNL     1       6.963   5.145  14.442  0.00  0.00    +0.000 A 
ATOM     27  C   UNL     1       6.122   4.182  13.868  0.00  0.00    +0.000 A 
BRANCH  22  29
ATOM     28  N   UNL     1       5.914   1.528  11.710  0.00  0.00    +0.000 N 
ATOM     29  C   UNL     1       5.381   2.766  11.961  0.00  0.00    +0.000 C 
ATOM     30  O   UNL     1       4.206   3.002  11.722  0.00  0.00    +0.000 OA
ATOM     31  H   UNL     1       5.304   0.859  11.253  0.00  0.00    +0.000 HD
ATOM     32  H   UNL     1       6.901   1.335  11.721  0.00  0.00    +0.000 HD
ENDBRANCH  22  29
ENDBRANCH  18  26
ENDBRANCH   1  19
TORSDOF 6
ENDMDL
MODEL 4
REMARK VINA RESULT:      -7.7      3.225      9.471
REMARK  Name = 
REMARK  6 active torsions:
REMARK  status: ('A' for Active; 'I' for Inactive)
REMARK    1  A    between atoms: C_2  and  C_4
REMARK    2  A    between atoms: C_8  and  N_9
REMARK    3  A    between atoms: C_10  and  C_12
REMARK    4  A    between atoms: C_13  and  C_14
REMARK    5  A    between atoms: C_20  and  O_21
REMARK    6  A    between atoms: O_21  and  C_22
REMARK                            x       y       z     vdW  Elec       q    Type
REMARK                         _______ _______ _______ _____ _____    ______ ____
ROOT
ATOM      1  C   UNL     1       2.196   9.044  17.554  0.00  0.00    +0.000 C 
ATOM      2  C   UNL     1       2.743   7.956  18.111  0.00  0.00    +0.000 C 
ENDROOT
BRANCH   2   3
ATOM      3  C   UNL     1       2.226   7.292  19.329  0.00  0.00    +0.000 C 
ATOM      4  O   UNL     1       1.966   7.953  20.331  0.00  0.00    +0.000 OA
ATOM      5  N   UNL     1       1.959   5.935  19.178  0.00  0.00    +0.000 N 
ATOM      6  C   UNL     1       1.309   5.216  20.269  0.00  0.00    +0.000 C 
ATOM      7  C   UNL     1       2.344   4.468  21.106  0.00  0.00    +0.000 C 
ATOM      8  C   UNL     1       3.196   3.547  20.226  0.00  0.00    +0.000 C 
ATOM      9  C   UNL     1       3.820   4.305  19.040  0.00  0.00    +0.000 C 
ATOM     10  C   UNL     1       2.732   5.078  18.273  0.00  0.00    +0.000 C 
BRANCH   9  11
ATOM     11  O   UNL     1       4.414   3.381  18.116  0.00  0.00    +0.000 OA
BRANCH  11  12
ATOM     12  C   UNL     1       5.247   3.869  17.149  0.00  0.00    +0.000 A 
ATOM     13  C   UNL     1       6.390   4.521  17.623  0.00  0.00    +0.000 A 
ATOM     14  C   UNL     1       7.297   5.106  16.735  0.00  0.00    +0.000 A 
ATOM     15  C   UNL     1       7.085   5.008  15.363  0.00  0.00    +0.000 A 
ATOM     16  C   UNL     1       5.976   4.315  14.883  0.00  0.00    +0.000 A 
ATOM     17  C   UNL     1       5.061   3.745  15.773  0.00  0.00    +0.000 A 
ENDBRANCH  11  12
ENDBRANCH   9  11
ENDBRANCH   2   3
BRANCH   1  19
ATOM     18  N   UNL     1       1.438  10.674  19.100  0.00  0.00    +0.000 N 
ATOM     19  C   UNL     1       1.048   9.735  18.171  0.00  0.00    +0.000 C 
ATOM     20  O   UNL     1      -0.087   9.422  17.823  0.00  0.00    +0.000 OA
ATOM     21  H   UNL     1       2.430  10.865  19.186  0.00  0.00    +0.000 HD
BRANCH  18  26
ATOM     22  C   UNL     1      -0.896  11.857  21.744  0.00  0.00    +0.000 A 
ATOM     23  C   UNL     1      -1.133  13.176  21.343  0.00  0.00    +0.000 A 
ATOM     24  C   UNL     1      -0.528  13.662  20.187  0.00  0.00    +0.000 A 
ATOM     25  C   UNL     1       0.311  12.841  19.435  0.00  0.00    +0.000 A 
ATOM     26  C   UNL     1       0.572  11.524  19.827  0.00  0.00    +0.000 A 
ATOM     27  C   UNL     1      -0.051  11.032  20.982  0.00  0.00    +0.000 A 
BRANCH  22  29
ATOM     28  N   UNL     1      -1.047  10.119  23.461  0.00  0.00    +0.000 N 
ATOM     29  C   UNL     1      -1.552  11.286  22.949  0.00  0.00    +0.000 C 
ATOM     30  O   UNL     1      -2.516  11.831  23.466  0.00  0.00    +0.000 OA
ATOM     31  H   UNL     1      -1.559   9.706  24.232  0.00  0.00    +0.000 HD
ATOM     32  H   UNL     1      -0.378   9.544  22.977  0.00  0.00    +0.000 HD
ENDBRANCH  22  29
ENDBRANCH  18  26
ENDBRANCH   1  19
TORSDOF 6
ENDMDL
MODEL 5
REMARK VINA RESULT:      -7.7      3.355      9.537
REMARK  Name = 
REMARK  6 active torsions:
REMARK  status: ('A' for Active; 'I' for Inactive)
REMARK    1  A    between atoms: C_2  and  C_4
REMARK    2  A    between atoms: C_8  and  N_9
REMARK    3  A    between atoms: C_10  and  C_12
REMARK    4  A    between atoms: C_13  and  C_14
REMARK    5  A    between atoms: C_20  and  O_21
REMARK    6  A    between atoms: O_21  and  C_22
REMARK                            x       y       z     vdW  Elec       q    Type
REMARK                         _______ _______ _______ _____ _____    ______ ____
ROOT
ATOM      1  C   UNL     1       2.208   9.086  17.571  0.00  0.00    +0.000 C 
ATOM      2  C   UNL     1       2.778   8.031  18.167  0.00  0.00    +0.000 C 
ENDROOT
BRANCH   2   3
ATOM      3  C   UNL     1       2.230   7.351  19.362  0.00  0.00    +0.000 C 
ATOM      4  O   UNL     1       1.942   7.998  20.366  0.00  0.00    +0.000 OA
ATOM      5  N   UNL     1       1.970   5.996  19.185  0.00  0.00    +0.000 N 
ATOM      6  C   UNL     1       1.291   5.261  20.249  0.00  0.00    +0.000 C 
ATOM      7  C   UNL     1       2.305   4.503  21.103  0.00  0.00    +0.000 C 
ATOM      8  C   UNL     1       3.183   3.595  20.235  0.00  0.00    +0.000 C 
ATOM      9  C   UNL     1       3.837   4.371  19.076  0.00  0.00    +0.000 C 
ATOM     10  C   UNL     1       2.769   5.152  18.291  0.00  0.00    +0.000 C 
BRANCH   9  11
ATOM     11  O   UNL     1       4.457   3.460  18.156  0.00  0.00    +0.000 OA
BRANCH  11  12
ATOM     12  C   UNL     1       5.339   3.958  17.239  0.00  0.00    +0.000 A 
ATOM     13  C   UNL     1       4.974   3.769  15.902  0.00  0.00    +0.000 A 
ATOM     14  C   UNL     1       5.814   4.190  14.867  0.00  0.00    +0.000 A 
ATOM     15  C   UNL     1       7.009   4.839  15.165  0.00  0.00    +0.000 A 
ATOM     16  C   UNL     1       7.352   5.078  16.494  0.00  0.00    +0.000 A 
ATOM     17  C   UNL     1       6.519   4.640  17.528  0.00  0.00    +0.000 A 
ENDBRANCH  11  12
ENDBRANCH   9  11
ENDBRANCH   2   3
BRANCH   1  19
ATOM     18  N   UNL     1       1.285  10.727  19.012  0.00  0.00    +0.000 N 
ATOM     19  C   UNL     1       0.994   9.721  18.117  0.00  0.00    +0.000 C 
ATOM     20  O   UNL     1      -0.104   9.313  17.749  0.00  0.00    +0.000 OA
ATOM     21  H   UNL     1       2.258  10.991  19.120  0.00  0.00    +0.000 HD
BRANCH  18  26
ATOM     22  C   UNL     1      -1.075  11.949  21.615  0.00  0.00    +0.000 A 
ATOM     23  C   UNL     1      -1.521  13.149  21.051  0.00  0.00    +0.000 A 
ATOM     24  C   UNL     1      -1.047  13.539  19.801  0.00  0.00    +0.000 A 
ATOM     25  C   UNL     1      -0.132  12.741  19.117  0.00  0.00    +0.000 A 
ATOM     26  C   UNL     1       0.337  11.546  19.669  0.00  0.00    +0.000 A 
ATOM     27  C   UNL     1      -0.152  11.147  20.921  0.00  0.00    +0.000 A 
BRANCH  22  29
ATOM     28  N   UNL     1      -2.741  12.037  23.407  0.00  0.00    +0.000 N 
ATOM     29  C   UNL     1      -1.584  11.476  22.929  0.00  0.00    +0.000 C 
ATOM     30  O   UNL     1      -0.991  10.621  23.570  0.00  0.00    +0.000 OA
ATOM     31  H   UNL     1      -3.024  11.758  24.339  0.00  0.00    +0.000 HD
ATOM     32  H   UNL     1      -3.166  12.858  23.009  0.00  0.00    +0.000 HD
ENDBRANCH  22  29
ENDBRANCH  18  26
ENDBRANCH   1  19
TORSDOF 6
ENDMDL
MODEL 6
REMARK VINA RESULT:      -7.6      1.499      3.551
REMARK  Name = 
REMARK  6 active torsions:
REMARK  status: ('A' for Active; 'I' for Inactive)
REMARK    1  A    between atoms: C_2  and  C_4
REMARK    2  A    between atoms: C_8  and  N_9
REMARK    3  A    between atoms: C_10  and  C_12
REMARK    4  A    between atoms: C_13  and  C_14
REMARK    5  A    between atoms: C_20  and  O_21
REMARK    6  A    between atoms: O_21  and  C_22
REMARK                            x       y       z     vdW  Elec       q    Type
REMARK                         _______ _______ _______ _____ _____    ______ ____
ROOT
ATOM      1  C   UNL     1       6.199   4.365  18.017  0.00  0.00    +0.000 C 
ATOM      2  C   UNL     1       5.925   5.533  18.613  0.00  0.00    +0.000 C 
ENDROOT
BRANCH   2   3
ATOM      3  C   UNL     1       5.292   6.687  17.935  0.00  0.00    +0.000 C 
ATOM      4  O   UNL     1       5.985   7.557  17.414  0.00  0.00    +0.000 OA
ATOM      5  N   UNL     1       3.905   6.613  17.846  0.00  0.00    +0.000 N 
ATOM      6  C   UNL     1       3.192   7.622  17.069  0.00  0.00    +0.000 C 
ATOM      7  C   UNL     1       2.632   8.705  17.989  0.00  0.00    +0.000 C 
ATOM      8  C   UNL     1       1.760   8.091  19.090  0.00  0.00    +0.000 C 
ATOM      9  C   UNL     1       2.503   6.980  19.855  0.00  0.00    +0.000 C 
ATOM     10  C   UNL     1       3.085   5.954  18.868  0.00  0.00    +0.000 C 
BRANCH   9  11
ATOM     11  O   UNL     1       1.595   6.275  20.713  0.00  0.00    +0.000 OA
BRANCH  11  12
ATOM     12  C   UNL     1       1.560   4.910  20.646  0.00  0.00    +0.000 A 
ATOM     13  C   UNL     1       2.399   4.250  21.549  0.00  0.00    +0.000 A 
ATOM     14  C   UNL     1       2.490   2.855  21.548  0.00  0.00    +0.000 A 
ATOM     15  C   UNL     1       1.712   2.109  20.667  0.00  0.00    +0.000 A 
ATOM     16  C   UNL     1       0.835   2.759  19.802  0.00  0.00    +0.000 A 
ATOM     17  C   UNL     1       0.757   4.155  19.791  0.00  0.00    +0.000 A 
ENDBRANCH  11  12
ENDBRANCH   9  11
ENDBRANCH   2   3
BRANCH   1  19
ATOM     18  N   UNL     1       6.959   4.680  15.793  0.00  0.00    +0.000 N 
ATOM     19  C   UNL     1       5.955   4.155  16.578  0.00  0.00    +0.000 C 
ATOM     20  O   UNL     1       4.934   3.568  16.231  0.00  0.00    +0.000 OA
ATOM     21  H   UNL     1       7.779   5.046  16.264  0.00  0.00    +0.000 HD
BRANCH  18  26
ATOM     22  C   UNL     1       6.274   3.553  12.315  0.00  0.00    +0.000 A 
ATOM     23  C   UNL     1       7.089   4.414  11.573  0.00  0.00    +0.000 A 
ATOM     24  C   UNL     1       7.875   5.355  12.233  0.00  0.00    +0.000 A 
ATOM     25  C   UNL     1       7.847   5.442  13.624  0.00  0.00    +0.000 A 
ATOM     26  C   UNL     1       7.029   4.600  14.383  0.00  0.00    +0.000 A 
ATOM     27  C   UNL     1       6.250   3.643  13.718  0.00  0.00    +0.000 A 
BRANCH  22  29
ATOM     28  N   UNL     1       5.998   1.260  11.502  0.00  0.00    +0.000 N 
ATOM     29  C   UNL     1       5.450   2.508  11.654  0.00  0.00    +0.000 C 
ATOM     30  O   UNL     1       4.322   2.749  11.249  0.00  0.00    +0.000 OA
ATOM     31  H   UNL     1       5.451   0.588  10.977  0.00  0.00    +0.000 HD
ATOM     32  H   UNL     1       6.972   1.059  11.655  0.00  0.00    +0.000 HD
ENDBRANCH  22  29
ENDBRANCH  18  26
ENDBRANCH   1  19
TORSDOF 6
ENDMDL
MODEL 7
REMARK VINA RESULT:      -7.5      3.639      9.748
REMARK  Name = 
REMARK  6 active torsions:
REMARK  status: ('A' for Active; 'I' for Inactive)
REMARK    1  A    between atoms: C_2  and  C_4
REMARK    2  A    between atoms: C_8  and  N_9
REMARK    3  A    between atoms: C_10  and  C_12
REMARK    4  A    between atoms: C_13  and  C_14
REMARK    5  A    between atoms: C_20  and  O_21
REMARK    6  A    between atoms: O_21  and  C_22
REMARK                            x       y       z     vdW  Elec       q    Type
REMARK                         _______ _______ _______ _____ _____    ______ ____
ROOT
ATOM      1  C   UNL     1       1.859   9.163  17.894  0.00  0.00    +0.000 C 
ATOM      2  C   UNL     1       2.566   8.114  18.333  0.00  0.00    +0.000 C 
ENDROOT
BRANCH   2   3
ATOM      3  C   UNL     1       2.192   7.286  19.502  0.00  0.00    +0.000 C 
ATOM      4  O   UNL     1       2.100   7.793  20.617  0.00  0.00    +0.000 OA
ATOM      5  N   UNL     1       1.849   5.973  19.193  0.00  0.00    +0.000 N 
ATOM      6  C   UNL     1       1.324   5.112  20.248  0.00  0.00    +0.000 C 
ATOM      7  C   UNL     1       2.430   4.224  20.812  0.00  0.00    +0.000 C 
ATOM      8  C   UNL     1       3.114   3.427  19.695  0.00  0.00    +0.000 C 
ATOM      9  C   UNL     1       3.602   4.342  18.556  0.00  0.00    +0.000 C 
ATOM     10  C   UNL     1       2.454   5.245  18.072  0.00  0.00    +0.000 C 
BRANCH   9  11
ATOM     11  O   UNL     1       4.023   3.555  17.433  0.00  0.00    +0.000 OA
BRANCH  11  12
ATOM     12  C   UNL     1       5.081   3.995  16.687  0.00  0.00    +0.000 A 
ATOM     13  C   UNL     1       6.202   4.391  17.423  0.00  0.00    +0.000 A 
ATOM     14  C   UNL     1       7.332   4.905  16.781  0.00  0.00    +0.000 A 
ATOM     15  C   UNL     1       7.361   4.990  15.391  0.00  0.00    +0.000 A 
ATOM     16  C   UNL     1       6.268   4.547  14.650  0.00  0.00    +0.000 A 
ATOM     17  C   UNL     1       5.132   4.050  15.295  0.00  0.00    +0.000 A 
ENDBRANCH  11  12
ENDBRANCH   9  11
ENDBRANCH   2   3
BRANCH   1  19
ATOM     18  N   UNL     1       0.960  10.201  19.828  0.00  0.00    +0.000 N 
ATOM     19  C   UNL     1       0.658   9.640  18.606  0.00  0.00    +0.000 C 
ATOM     20  O   UNL     1      -0.440   9.495  18.077  0.00  0.00    +0.000 OA
ATOM     21  H   UNL     1       1.940  10.322  20.058  0.00  0.00    +0.000 HD
BRANCH  18  26
ATOM     22  C   UNL     1      -1.805  12.343  21.093  0.00  0.00    +0.000 A 
ATOM     23  C   UNL     1      -1.876  11.950  22.434  0.00  0.00    +0.000 A 
ATOM     24  C   UNL     1      -0.994  10.986  22.915  0.00  0.00    +0.000 A 
ATOM     25  C   UNL     1      -0.048  10.413  22.067  0.00  0.00    +0.000 A 
ATOM     26  C   UNL     1       0.030  10.782  20.720  0.00  0.00    +0.000 A 
ATOM     27  C   UNL     1      -0.848  11.764  20.241  0.00  0.00    +0.000 A 
BRANCH  22  29
ATOM     28  N   UNL     1      -3.608  13.031  19.588  0.00  0.00    +0.000 N 
ATOM     29  C   UNL     1      -2.700  13.397  20.548  0.00  0.00    +0.000 C 
ATOM     30  O   UNL     1      -2.628  14.554  20.933  0.00  0.00    +0.000 OA
ATOM     31  H   UNL     1      -4.151  13.780  19.173  0.00  0.00    +0.000 HD
ATOM     32  H   UNL     1      -3.589  12.144  19.114  0.00  0.00    +0.000 HD
ENDBRANCH  22  29
ENDBRANCH  18  26
ENDBRANCH   1  19
TORSDOF 6
ENDMDL
MODEL 8
REMARK VINA RESULT:      -7.4      5.768     11.979
REMARK  Name = 
REMARK  6 active torsions:
REMARK  status: ('A' for Active; 'I' for Inactive)
REMARK    1  A    between atoms: C_2  and  C_4
REMARK    2  A    between atoms: C_8  and  N_9
REMARK    3  A    between atoms: C_10  and  C_12
REMARK    4  A    between atoms: C_13  and  C_14
REMARK    5  A    between atoms: C_20  and  O_21
REMARK    6  A    between atoms: O_21  and  C_22
REMARK                            x       y       z     vdW  Elec       q    Type
REMARK                         _______ _______ _______ _____ _____    ______ ____
ROOT
ATOM      1  C   UNL     1      -0.840   9.993  23.173  0.00  0.00    +0.000 C 
ATOM      2  C   UNL     1      -0.402   9.326  22.097  0.00  0.00    +0.000 C 
ENDROOT
BRANCH   2   3
ATOM      3  C   UNL     1      -0.225   9.930  20.757  0.00  0.00    +0.000 C 
ATOM      4  O   UNL     1      -1.122  10.604  20.257  0.00  0.00    +0.000 OA
ATOM      5  N   UNL     1       1.046   9.767  20.214  0.00  0.00    +0.000 N 
ATOM      6  C   UNL     1       1.374  10.447  18.965  0.00  0.00    +0.000 C 
ATOM      7  C   UNL     1       1.230   9.491  17.784  0.00  0.00    +0.000 C 
ATOM      8  C   UNL     1       2.069   8.226  17.998  0.00  0.00    +0.000 C 
ATOM      9  C   UNL     1       1.761   7.558  19.351  0.00  0.00    +0.000 C 
ATOM     10  C   UNL     1       1.873   8.587  20.489  0.00  0.00    +0.000 C 
BRANCH   9  11
ATOM     11  O   UNL     1       2.716   6.522  19.622  0.00  0.00    +0.000 OA
BRANCH  11  12
ATOM     12  C   UNL     1       2.258   5.254  19.848  0.00  0.00    +0.000 A 
ATOM     13  C   UNL     1       1.862   4.553  18.705  0.00  0.00    +0.000 A 
ATOM     14  C   UNL     1       1.330   3.264  18.807  0.00  0.00    +0.000 A 
ATOM     15  C   UNL     1       1.227   2.653  20.054  0.00  0.00    +0.000 A 
ATOM     16  C   UNL     1       1.670   3.327  21.191  0.00  0.00    +0.000 A 
ATOM     17  C   UNL     1       2.185   4.622  21.089  0.00  0.00    +0.000 A 
ENDBRANCH  11  12
ENDBRANCH   9  11
ENDBRANCH   2   3
BRANCH   1  19
ATOM     18  N   UNL     1      -2.637  11.540  23.134  0.00  0.00    +0.000 N 
ATOM     19  C   UNL     1      -1.267  11.402  23.089  0.00  0.00    +0.000 C 
ATOM     20  O   UNL     1      -0.409  12.275  22.987  0.00  0.00    +0.000 OA
ATOM     21  H   UNL     1      -3.186  10.707  23.320  0.00  0.00    +0.000 HD
BRANCH  18  26
ATOM     22  C   UNL     1      -4.949  14.229  22.012  0.00  0.00    +0.000 A 
ATOM     23  C   UNL     1      -4.811  15.168  23.041  0.00  0.00    +0.000 A 
ATOM     24  C   UNL     1      -3.939  14.909  24.095  0.00  0.00    +0.000 A 
ATOM     25  C   UNL     1      -3.209  13.721  24.128  0.00  0.00    +0.000 A 
ATOM     26  C   UNL     1      -3.343  12.765  23.117  0.00  0.00    +0.000 A 
ATOM     27  C   UNL     1      -4.210  13.034  22.049  0.00  0.00    +0.000 A 
BRANCH  22  29
ATOM     28  N   UNL     1      -5.329  14.263  19.594  0.00  0.00    +0.000 N 
ATOM     29  C   UNL     1      -5.838  14.482  20.849  0.00  0.00    +0.000 C 
ATOM     30  O   UNL     1      -6.984  14.880  20.999  0.00  0.00    +0.000 OA
ATOM     31  H   UNL     1      -5.925  14.519  18.816  0.00  0.00    +0.000 HD
ATOM     32  H   UNL     1      -4.352  14.109  19.410  0.00  0.00    +0.000 HD
ENDBRANCH  22  29
ENDBRANCH  18  26
ENDBRANCH   1  19
TORSDOF 6
ENDMDL
MODEL 9
REMARK VINA RESULT:      -7.4      3.715      9.415
REMARK  Name = 
REMARK  6 active torsions:
REMARK  status: ('A' for Active; 'I' for Inactive)
REMARK    1  A    between atoms: C_2  and  C_4
REMARK    2  A    between atoms: C_8  and  N_9
REMARK    3  A    between atoms: C_10  and  C_12
REMARK    4  A    between atoms: C_13  and  C_14
REMARK    5  A    between atoms: C_20  and  O_21
REMARK    6  A    between atoms: O_21  and  C_22
REMARK                            x       y       z     vdW  Elec       q    Type
REMARK                         _______ _______ _______ _____ _____    ______ ____
ROOT
ATOM      1  C   UNL     1       2.149   9.105  17.810  0.00  0.00    +0.000 C 
ATOM      2  C   UNL     1       2.705   8.002  18.328  0.00  0.00    +0.000 C 
ENDROOT
BRANCH   2   3
ATOM      3  C   UNL     1       2.177   7.276  19.505  0.00  0.00    +0.000 C 
ATOM      4  O   UNL     1       1.935   7.879  20.548  0.00  0.00    +0.000 OA
ATOM      5  N   UNL     1       1.880   5.937  19.272  0.00  0.00    +0.000 N 
ATOM      6  C   UNL     1       1.217   5.166  20.319  0.00  0.00    +0.000 C 
ATOM      7  C   UNL     1       2.238   4.345  21.103  0.00  0.00    +0.000 C 
ATOM      8  C   UNL     1       3.067   3.461  20.164  0.00  0.00    +0.000 C 
ATOM      9  C   UNL     1       3.704   4.278  19.025  0.00  0.00    +0.000 C 
ATOM     10  C   UNL     1       2.631   5.120  18.312  0.00  0.00    +0.000 C 
BRANCH   9  11
ATOM     11  O   UNL     1       4.274   3.400  18.043  0.00  0.00    +0.000 OA
BRANCH  11  12
ATOM     12  C   UNL     1       5.175   3.913  17.153  0.00  0.00    +0.000 A 
ATOM     13  C   UNL     1       6.282   4.546  17.728  0.00  0.00    +0.000 A 
ATOM     14  C   UNL     1       7.252   5.153  16.926  0.00  0.00    +0.000 A 
ATOM     15  C   UNL     1       7.140   5.097  15.539  0.00  0.00    +0.000 A 
ATOM     16  C   UNL     1       6.068   4.422  14.960  0.00  0.00    +0.000 A 
ATOM     17  C   UNL     1       5.089   3.830  15.764  0.00  0.00    +0.000 A 
ENDBRANCH  11  12
ENDBRANCH   9  11
ENDBRANCH   2   3
BRANCH   1  19
ATOM     18  N   UNL     1      -0.107   9.799  17.587  0.00  0.00    +0.000 N 
ATOM     19  C   UNL     1       0.978   9.747  18.435  0.00  0.00    +0.000 C 
ATOM     20  O   UNL     1       1.075  10.160  19.587  0.00  0.00    +0.000 OA
ATOM     21  H   UNL     1      -0.031   9.317  16.698  0.00  0.00    +0.000 HD
BRANCH  18  26
ATOM     22  C   UNL     1      -2.727  11.885  19.206  0.00  0.00    +0.000 A 
ATOM     23  C   UNL     1      -3.887  11.422  18.576  0.00  0.00    +0.000 A 
ATOM     24  C   UNL     1      -3.795  10.407  17.627  0.00  0.00    +0.000 A 
ATOM     25  C   UNL     1      -2.555   9.858  17.304  0.00  0.00    +0.000 A 
ATOM     26  C   UNL     1      -1.382  10.317  17.912  0.00  0.00    +0.000 A 
ATOM     27  C   UNL     1      -1.479  11.328  18.878  0.00  0.00    +0.000 A 
BRANCH  22  29
ATOM     28  N   UNL     1      -3.788  13.869  20.171  0.00  0.00    +0.000 N 
ATOM     29  C   UNL     1      -2.784  12.939  20.253  0.00  0.00    +0.000 C 
ATOM     30  O   UNL     1      -1.961  12.984  21.155  0.00  0.00    +0.000 OA
ATOM     31  H   UNL     1      -3.760  14.623  20.846  0.00  0.00    +0.000 HD
ATOM     32  H   UNL     1      -4.377  13.982  19.362  0.00  0.00    +0.000 HD
ENDBRANCH  22  29
ENDBRANCH  18  26
ENDBRANCH   1  19
TORSDOF 6
ENDMDL
