MODEL 1
REMARK VINA RESULT:      -7.2      0.000      0.000
REMARK  Name = 
REMARK  14 active torsions:
REMARK  status: ('A' for Active; 'I' for Inactive)
REMARK    1  A    between atoms: C_1  and  O_2
REMARK    2  A    between atoms: O_2  and  C_3
REMARK    3  A    between atoms: C_3  and  C_4
REMARK    4  A    between atoms: C_4  and  C_5
REMARK    5  A    between atoms: C_4  and  N_6
REMARK    6  A    between atoms: C_7  and  C_8
REMARK    7  A    between atoms: C_10  and  C_11
REMARK    8  A    between atoms: C_11  and  C_13
REMARK    9  A    between atoms: C_13  and  O_14
REMARK   10  A    between atoms: O_14  and  C_15
REMARK   11  A    between atoms: C_15  and  C_17
REMARK   12  A    between atoms: C_21  and  C_22
REMARK   13  A    between atoms: C_24  and  C_25
REMARK   14  A    between atoms: C_28  and  C_29
REMARK                            x       y       z     vdW  Elec       q    Type
REMARK                         _______ _______ _______ _____ _____    ______ ____
ROOT
ATOM      1  C   UNL     1       1.873   6.010  20.756  0.00  0.00    +0.000 C 
ENDROOT
BRANCH   1   2
ATOM      2  C   UNL     1       1.938   7.361  20.029  0.00  0.00    +0.000 C 
ATOM      3  O   UNL     1       2.677   7.462  19.032  0.00  0.00    +0.000 OA
BRANCH   2   8
ATOM      4  N   UNL     1      -0.139  10.402  20.486  0.00  0.00    +0.000 N 
ATOM      5  C   UNL     1      -0.107   9.933  21.793  0.00  0.00    +0.000 A 
ATOM      6  C   UNL     1      -0.767  10.588  22.966  0.00  0.00    +0.000 C 
ATOM      7  C   UNL     1       0.646   8.776  21.807  0.00  0.00    +0.000 A 
ATOM      8  C   UNL     1       1.114   8.497  20.489  0.00  0.00    +0.000 A 
ATOM      9  C   UNL     1       0.624   9.542  19.696  0.00  0.00    +0.000 A 
ATOM     10  C   UNL     1       0.839   9.778  18.233  0.00  0.00    +0.000 C 
BRANCH   4  11
ATOM     11  C   UNL     1      -0.805  11.654  20.081  0.00  0.00    +0.000 C 
ATOM     12  C   UNL     1      -1.891  11.556  18.998  0.00  0.00    +0.000 C 
BRANCH  11  13
ATOM     13  C   UNL     1       0.226  12.744  19.744  0.00  0.00    +0.000 C 
BRANCH  13  15
ATOM     14  C   UNL     1      -0.684  14.449  21.106  0.00  0.00    +0.000 C 
ATOM     15  O   UNL     1      -0.400  14.033  19.776  0.00  0.00    +0.000 OA
ENDBRANCH  13  15
ENDBRANCH  11  13
ENDBRANCH   4  11
ENDBRANCH   2   8
ENDBRANCH   1   2
BRANCH   1  16
ATOM     16  O   UNL     1       1.784   4.906  19.836  0.00  0.00    +0.000 OA
BRANCH  16  17
ATOM     17  C   UNL     1       2.800   3.994  19.950  0.00  0.00    +0.000 C 
ATOM     18  O   UNL     1       2.829   3.152  20.841  0.00  0.00    +0.000 OA
BRANCH  17  19
ATOM     19  C   UNL     1       3.833   4.088  18.875  0.00  0.00    +0.000 A 
ATOM     20  N   UNL     1       3.858   3.397  17.666  0.00  0.00    +0.000 NA
ATOM     21  C   UNL     1       4.961   3.827  17.073  0.00  0.00    +0.000 A 
ATOM     22  N   UNL     1       5.401   3.823  15.758  0.00  0.00    +0.000 NA
ATOM     23  C   UNL     1       6.622   4.285  15.620  0.00  0.00    +0.000 A 
ATOM     24  C   UNL     1       7.072   5.011  14.362  0.00  0.00    +0.000 C 
ATOM     25  C   UNL     1       7.607   4.470  16.745  0.00  0.00    +0.000 A 
ATOM     26  C   UNL     1       6.895   5.150  17.657  0.00  0.00    +0.000 A 
ATOM     27  C   UNL     1       7.009   6.643  17.724  0.00  0.00    +0.000 C 
ATOM     28  N   UNL     1       5.635   4.653  17.980  0.00  0.00    +0.000 N 
ATOM     29  N   UNL     1       4.859   4.940  19.028  0.00  0.00    +0.000 NA
ENDBRANCH  17  19
ENDBRANCH  16  17
ENDBRANCH   1  16
TORSDOF 8
ENDMDL
MODEL 2
REMARK VINA RESULT:      -7.2      2.496      9.932
REMARK  Name = 
REMARK  14 active torsions:
REMARK  status: ('A' for Active; 'I' for Inactive)
REMARK    1  A    between atoms: C_1  and  O_2
REMARK    2  A    between atoms: O_2  and  C_3
REMARK    3  A    between atoms: C_3  and  C_4
REMARK    4  A    between atoms: C_4  and  C_5
REMARK    5  A    between atoms: C_4  and  N_6
REMARK    6  A    between atoms: C_7  and  C_8
REMARK    7  A    between atoms: C_10  and  C_11
REMARK    8  A    between atoms: C_11  and  C_13
REMARK    9  A    between atoms: C_13  and  O_14
REMARK   10  A    between atoms: O_14  and  C_15
REMARK   11  A    between atoms: C_15  and  C_17
REMARK   12  A    between atoms: C_21  and  C_22
REMARK   13  A    between atoms: C_24  and  C_25
REMARK   14  A    between atoms: C_28  and  C_29
REMARK                            x       y       z     vdW  Elec       q    Type
REMARK                         _______ _______ _______ _____ _____    ______ ____
ROOT
ATOM      1  C   UNL     1       2.009   8.739  17.801  0.00  0.00    +0.000 C 
ENDROOT
BRANCH   1   2
ATOM      2  C   UNL     1       2.349   7.563  18.727  0.00  0.00    +0.000 C 
ATOM      3  O   UNL     1       2.145   7.694  19.948  0.00  0.00    +0.000 OA
BRANCH   2   8
ATOM      4  N   UNL     1       4.262   4.773  17.202  0.00  0.00    +0.000 N 
ATOM      5  C   UNL     1       3.085   4.110  17.526  0.00  0.00    +0.000 A 
ATOM      6  C   UNL     1       2.803   2.665  17.261  0.00  0.00    +0.000 C 
ATOM      7  C   UNL     1       2.236   5.023  18.118  0.00  0.00    +0.000 A 
ATOM      8  C   UNL     1       2.872   6.300  18.170  0.00  0.00    +0.000 A 
ATOM      9  C   UNL     1       4.124   6.111  17.571  0.00  0.00    +0.000 A 
ATOM     10  C   UNL     1       5.197   7.125  17.322  0.00  0.00    +0.000 C 
BRANCH   4  11
ATOM     11  C   UNL     1       5.394   4.139  16.501  0.00  0.00    +0.000 C 
ATOM     12  C   UNL     1       6.803   4.409  17.050  0.00  0.00    +0.000 C 
BRANCH  11  13
ATOM     13  C   UNL     1       5.322   4.398  14.987  0.00  0.00    +0.000 C 
BRANCH  13  15
ATOM     14  C   UNL     1       6.199   3.678  12.913  0.00  0.00    +0.000 C 
ATOM     15  O   UNL     1       6.386   3.705  14.323  0.00  0.00    +0.000 OA
ENDBRANCH  13  15
ENDBRANCH  11  13
ENDBRANCH   4  11
ENDBRANCH   2   8
ENDBRANCH   1   2
BRANCH   1  16
ATOM     16  O   UNL     1       0.947   9.554  18.330  0.00  0.00    +0.000 OA
BRANCH  16  17
ATOM     17  C   UNL     1       1.334  10.818  18.693  0.00  0.00    +0.000 C 
ATOM     18  O   UNL     1       2.215  11.431  18.098  0.00  0.00    +0.000 OA
BRANCH  17  19
ATOM     19  C   UNL     1       0.561  11.392  19.835  0.00  0.00    +0.000 A 
ATOM     20  N   UNL     1       1.044  11.725  21.098  0.00  0.00    +0.000 NA
ATOM     21  C   UNL     1      -0.019  12.190  21.736  0.00  0.00    +0.000 A 
ATOM     22  N   UNL     1      -0.185  12.987  22.859  0.00  0.00    +0.000 NA
ATOM     23  C   UNL     1      -1.443  13.140  23.203  0.00  0.00    +0.000 A 
ATOM     24  C   UNL     1      -1.946  14.406  23.877  0.00  0.00    +0.000 C 
ATOM     25  C   UNL     1      -2.582  12.289  22.705  0.00  0.00    +0.000 A 
ATOM     26  C   UNL     1      -2.404  12.299  21.376  0.00  0.00    +0.000 A 
ATOM     27  C   UNL     1      -3.169  13.273  20.531  0.00  0.00    +0.000 C 
ATOM     28  N   UNL     1      -1.128  12.005  20.902  0.00  0.00    +0.000 N 
ATOM     29  N   UNL     1      -0.744  11.661  19.670  0.00  0.00    +0.000 NA
ENDBRANCH  17  19
ENDBRANCH  16  17
ENDBRANCH   1  16
TORSDOF 8
ENDMDL
MODEL 3
REMARK VINA RESULT:      -7.1      4.755      8.067
REMARK  Name = 
REMARK  14 active torsions:
REMARK  status: ('A' for Active; 'I' for Inactive)
REMARK    1  A    between atoms: C_1  and  O_2
REMARK    2  A    between atoms: O_2  and  C_3
REMARK    3  A    between atoms: C_3  and  C_4
REMARK    4  A    between atoms: C_4  and  C_5
REMARK    5  A    between atoms: C_4  and  N_6
REMARK    6  A    between atoms: C_7  and  C_8
REMARK    7  A    between atoms: C_10  and  C_11
REMARK    8  A    between atoms: C_11  and  C_13
REMARK    9  A    between atoms: C_13  and  O_14
REMARK   10  A    between atoms: O_14  and  C_15
REMARK   11  A    between atoms: C_15  and  C_17
REMARK   12  A    between atoms: C_21  and  C_22
REMARK   13  A    between atoms: C_24  and  C_25
REMARK   14  A    between atoms: C_28  and  C_29
REMARK                            x       y       z     vdW  Elec       q    Type
REMARK                         _______ _______ _______ _____ _____    ______ ____
ROOT
ATOM      1  C   UNL     1       7.135   6.355  16.610  0.00  0.00    +0.000 C 
ENDROOT
BRANCH   1   2
ATOM      2  C   UNL     1       5.763   5.957  16.047  0.00  0.00    +0.000 C 
ATOM      3  O   UNL     1       5.494   6.262  14.871  0.00  0.00    +0.000 OA
BRANCH   2   8
ATOM      4  N   UNL     1       3.054   4.696  18.248  0.00  0.00    +0.000 N 
ATOM      5  C   UNL     1       3.684   3.499  17.931  0.00  0.00    +0.000 A 
ATOM      6  C   UNL     1       3.278   2.148  18.427  0.00  0.00    +0.000 C 
ATOM      7  C   UNL     1       4.745   3.790  17.098  0.00  0.00    +0.000 A 
ATOM      8  C   UNL     1       4.807   5.198  16.878  0.00  0.00    +0.000 A 
ATOM      9  C   UNL     1       3.751   5.733  17.627  0.00  0.00    +0.000 A 
ATOM     10  C   UNL     1       3.364   7.170  17.794  0.00  0.00    +0.000 C 
BRANCH   4  11
ATOM     11  C   UNL     1       1.905   4.799  19.166  0.00  0.00    +0.000 C 
ATOM     12  C   UNL     1       2.088   5.652  20.431  0.00  0.00    +0.000 C 
BRANCH  11  13
ATOM     13  C   UNL     1       1.340   3.409  19.503  0.00  0.00    +0.000 C 
BRANCH  13  15
ATOM     14  C   UNL     1       1.593   2.491  21.667  0.00  0.00    +0.000 C 
ATOM     15  O   UNL     1       0.856   3.394  20.853  0.00  0.00    +0.000 OA
ENDBRANCH  13  15
ENDBRANCH  11  13
ENDBRANCH   4  11
ENDBRANCH   2   8
ENDBRANCH   1   2
BRANCH   1  16
ATOM     16  O   UNL     1       7.162   7.727  17.045  0.00  0.00    +0.000 OA
BRANCH  16  17
ATOM     17  C   UNL     1       8.002   7.965  18.102  0.00  0.00    +0.000 C 
ATOM     18  O   UNL     1       8.378   7.074  18.856  0.00  0.00    +0.000 OA
BRANCH  17  19
ATOM     19  C   UNL     1       8.450   9.386  18.221  0.00  0.00    +0.000 A 
ATOM     20  N   UNL     1       8.114  10.449  17.387  0.00  0.00    +0.000 NA
ATOM     21  C   UNL     1       8.755  11.483  17.910  0.00  0.00    +0.000 A 
ATOM     22  N   UNL     1       8.599  12.856  17.802  0.00  0.00    +0.000 NA
ATOM     23  C   UNL     1       9.526  13.534  18.439  0.00  0.00    +0.000 A 
ATOM     24  C   UNL     1       9.251  14.897  19.052  0.00  0.00    +0.000 C 
ATOM     25  C   UNL     1      10.827  12.959  18.935  0.00  0.00    +0.000 A 
ATOM     26  C   UNL     1      10.434  11.864  19.603  0.00  0.00    +0.000 A 
ATOM     27  C   UNL     1      10.251  11.928  21.090  0.00  0.00    +0.000 C 
ATOM     28  N   UNL     1       9.556  11.001  18.952  0.00  0.00    +0.000 N 
ATOM     29  N   UNL     1       9.244   9.736  19.245  0.00  0.00    +0.000 NA
ENDBRANCH  17  19
ENDBRANCH  16  17
ENDBRANCH   1  16
TORSDOF 8
ENDMDL
MODEL 4
REMARK VINA RESULT:      -7.1      4.253      6.654
REMARK  Name = 
REMARK  14 active torsions:
REMARK  status: ('A' for Active; 'I' for Inactive)
REMARK    1  A    between atoms: C_1  and  O_2
REMARK    2  A    between atoms: O_2  and  C_3
REMARK    3  A    between atoms: C_3  and  C_4
REMARK    4  A    between atoms: C_4  and  C_5
REMARK    5  A    between atoms: C_4  and  N_6
REMARK    6  A    between atoms: C_7  and  C_8
REMARK    7  A    between atoms: C_10  and  C_11
REMARK    8  A    between atoms: C_11  and  C_13
REMARK    9  A    between atoms: C_13  and  O_14
REMARK   10  A    between atoms: O_14  and  C_15
REMARK   11  A    between atoms: C_15  and  C_17
REMARK   12  A    between atoms: C_21  and  C_22
REMARK   13  A    between atoms: C_24  and  C_25
REMARK   14  A    between atoms: C_28  and  C_29
REMARK                            x       y       z     vdW  Elec       q    Type
REMARK                         _______ _______ _______ _____ _____    ______ ____
ROOT
ATOM      1  C   UNL     1       7.428   4.550  18.084  0.00  0.00    +0.000 C 
ENDROOT
BRANCH   1   2
ATOM      2  C   UNL     1       6.598   5.005  19.293  0.00  0.00    +0.000 C 
ATOM      3  O   UNL     1       7.192   5.253  20.359  0.00  0.00    +0.000 OA
BRANCH   2   8
ATOM      4  N   UNL     1       2.893   4.785  19.316  0.00  0.00    +0.000 N 
ATOM      5  C   UNL     1       3.057   6.043  18.749  0.00  0.00    +0.000 A 
ATOM      6  C   UNL     1       1.949   6.946  18.306  0.00  0.00    +0.000 C 
ATOM      7  C   UNL     1       4.412   6.293  18.663  0.00  0.00    +0.000 A 
ATOM      8  C   UNL     1       5.136   5.175  19.175  0.00  0.00    +0.000 A 
ATOM      9  C   UNL     1       4.158   4.247  19.552  0.00  0.00    +0.000 A 
ATOM     10  C   UNL     1       4.350   2.874  20.121  0.00  0.00    +0.000 C 
BRANCH   4  11
ATOM     11  C   UNL     1       1.582   4.143  19.520  0.00  0.00    +0.000 C 
ATOM     12  C   UNL     1       1.278   3.592  20.921  0.00  0.00    +0.000 C 
BRANCH  11  13
ATOM     13  C   UNL     1       1.305   3.093  18.432  0.00  0.00    +0.000 C 
BRANCH  13  15
ATOM     14  C   UNL     1       2.920   2.532  16.799  0.00  0.00    +0.000 C 
ATOM     15  O   UNL     1       1.942   3.480  17.207  0.00  0.00    +0.000 OA
ENDBRANCH  13  15
ENDBRANCH  11  13
ENDBRANCH   4  11
ENDBRANCH   2   8
ENDBRANCH   1   2
BRANCH   1  16
ATOM     16  O   UNL     1       8.075   5.656  17.427  0.00  0.00    +0.000 OA
BRANCH  16  17
ATOM     17  C   UNL     1       7.268   6.348  16.563  0.00  0.00    +0.000 C 
ATOM     18  O   UNL     1       7.031   7.544  16.701  0.00  0.00    +0.000 OA
BRANCH  17  19
ATOM     19  C   UNL     1       6.748   5.534  15.423  0.00  0.00    +0.000 A 
ATOM     20  N   UNL     1       5.562   4.806  15.379  0.00  0.00    +0.000 NA
ATOM     21  C   UNL     1       5.559   4.270  14.168  0.00  0.00    +0.000 A 
ATOM     22  N   UNL     1       4.563   3.740  13.361  0.00  0.00    +0.000 NA
ATOM     23  C   UNL     1       5.021   3.230  12.242  0.00  0.00    +0.000 A 
ATOM     24  C   UNL     1       4.201   3.228  10.961  0.00  0.00    +0.000 C 
ATOM     25  C   UNL     1       6.465   2.900  11.972  0.00  0.00    +0.000 A 
ATOM     26  C   UNL     1       7.100   4.028  12.325  0.00  0.00    +0.000 A 
ATOM     27  C   UNL     1       7.456   5.039  11.277  0.00  0.00    +0.000 C 
ATOM     28  N   UNL     1       6.786   4.573  13.568  0.00  0.00    +0.000 N 
ATOM     29  N   UNL     1       7.451   5.486  14.281  0.00  0.00    +0.000 NA
ENDBRANCH  17  19
ENDBRANCH  16  17
ENDBRANCH   1  16
TORSDOF 8
ENDMDL
MODEL 5
REMARK VINA RESULT:      -7.1      0.872      1.106
REMARK  Name = 
REMARK  14 active torsions:
REMARK  status: ('A' for Active; 'I' for Inactive)
REMARK    1  A    between atoms: C_1  and  O_2
REMARK    2  A    between atoms: O_2  and  C_3
REMARK    3  A    between atoms: C_3  and  C_4
REMARK    4  A    between atoms: C_4  and  C_5
REMARK    5  A    between atoms: C_4  and  N_6
REMARK    6  A    between atoms: C_7  and  C_8
REMARK    7  A    between atoms: C_10  and  C_11
REMARK    8  A    between atoms: C_11  and  C_13
REMARK    9  A    between atoms: C_13  and  O_14
REMARK   10  A    between atoms: O_14  and  C_15
REMARK   11  A    between atoms: C_15  and  C_17
REMARK   12  A    between atoms: C_21  and  C_22
REMARK   13  A    between atoms: C_24  and  C_25
REMARK   14  A    between atoms: C_28  and  C_29
REMARK                            x       y       z     vdW  Elec       q    Type
REMARK                         _______ _______ _______ _____ _____    ______ ____
ROOT
ATOM      1  C   UNL     1       1.641   5.993  20.800  0.00  0.00    +0.000 C 
ENDROOT
BRANCH   1   2
ATOM      2  C   UNL     1       1.887   7.367  20.160  0.00  0.00    +0.000 C 
ATOM      3  O   UNL     1       2.705   7.448  19.226  0.00  0.00    +0.000 OA
BRANCH   2   8
ATOM      4  N   UNL     1       0.120  10.593  20.661  0.00  0.00    +0.000 N 
ATOM      5  C   UNL     1      -0.086  10.009  21.905  0.00  0.00    +0.000 A 
ATOM      6  C   UNL     1      -0.827  10.634  23.044  0.00  0.00    +0.000 C 
ATOM      7  C   UNL     1       0.523   8.770  21.895  0.00  0.00    +0.000 A 
ATOM      8  C   UNL     1       1.139   8.552  20.626  0.00  0.00    +0.000 A 
ATOM      9  C   UNL     1       0.886   9.717  19.891  0.00  0.00    +0.000 A 
ATOM     10  C   UNL     1       1.331  10.053  18.501  0.00  0.00    +0.000 C 
BRANCH   4  11
ATOM     11  C   UNL     1      -0.336  11.949  20.307  0.00  0.00    +0.000 C 
ATOM     12  C   UNL     1       0.202  13.116  21.149  0.00  0.00    +0.000 C 
BRANCH  11  13
ATOM     13  C   UNL     1      -1.868  12.003  20.187  0.00  0.00    +0.000 C 
BRANCH  13  15
ATOM     14  C   UNL     1      -3.615  12.838  21.544  0.00  0.00    +0.000 C 
ATOM     15  O   UNL     1      -2.375  13.131  20.912  0.00  0.00    +0.000 OA
ENDBRANCH  13  15
ENDBRANCH  11  13
ENDBRANCH   4  11
ENDBRANCH   2   8
ENDBRANCH   1   2
BRANCH   1  16
ATOM     16  O   UNL     1       1.750   4.924  19.841  0.00  0.00    +0.000 OA
BRANCH  16  17
ATOM     17  C   UNL     1       2.820   4.092  20.045  0.00  0.00    +0.000 C 
ATOM     18  O   UNL     1       2.886   3.332  21.006  0.00  0.00    +0.000 OA
BRANCH  17  19
ATOM     19  C   UNL     1       3.862   4.159  18.977  0.00  0.00    +0.000 A 
ATOM     20  N   UNL     1       3.862   3.491  17.755  0.00  0.00    +0.000 NA
ATOM     21  C   UNL     1       4.988   3.881  17.176  0.00  0.00    +0.000 A 
ATOM     22  N   UNL     1       5.435   3.883  15.864  0.00  0.00    +0.000 NA
ATOM     23  C   UNL     1       6.676   4.291  15.741  0.00  0.00    +0.000 A 
ATOM     24  C   UNL     1       7.167   5.020  14.500  0.00  0.00    +0.000 C 
ATOM     25  C   UNL     1       7.662   4.407  16.874  0.00  0.00    +0.000 A 
ATOM     26  C   UNL     1       6.977   5.101  17.796  0.00  0.00    +0.000 A 
ATOM     27  C   UNL     1       7.160   6.586  17.894  0.00  0.00    +0.000 C 
ATOM     28  N   UNL     1       5.693   4.657  18.103  0.00  0.00    +0.000 N 
ATOM     29  N   UNL     1       4.925   4.959  19.153  0.00  0.00    +0.000 NA
ENDBRANCH  17  19
ENDBRANCH  16  17
ENDBRANCH   1  16
TORSDOF 8
ENDMDL
MODEL 6
REMARK VINA RESULT:      -7.1      2.316      9.774
REMARK  Name = 
REMARK  14 active torsions:
REMARK  status: ('A' for Active; 'I' for Inactive)
REMARK    1  A    between atoms: C_1  and  O_2
REMARK    2  A    between atoms: O_2  and  C_3
REMARK    3  A    between atoms: C_3  and  C_4
REMARK    4  A    between atoms: C_4  and  C_5
REMARK    5  A    between atoms: C_4  and  N_6
REMARK    6  A    between atoms: C_7  and  C_8
REMARK    7  A    between atoms: C_10  and  C_11
REMARK    8  A    between atoms: C_11  and  C_13
REMARK    9  A    between atoms: C_13  and  O_14
REMARK   10  A    between atoms: O_14  and  C_15
REMARK   11  A    between atoms: C_15  and  C_17
REMARK   12  A    between atoms: C_21  and  C_22
REMARK   13  A    between atoms: C_24  and  C_25
REMARK   14  A    between atoms: C_28  and  C_29
REMARK                            x       y       z     vdW  Elec       q    Type
REMARK                         _______ _______ _______ _____ _____    ______ ____
ROOT
ATOM      1  C   UNL     1       1.818   9.080  17.885  0.00  0.00    +0.000 C 
ENDROOT
BRANCH   1   2
ATOM      2  C   UNL     1       2.083   8.076  19.016  0.00  0.00    +0.000 C 
ATOM      3  O   UNL     1       1.711   8.370  20.167  0.00  0.00    +0.000 OA
BRANCH   2   8
ATOM      4  N   UNL     1       3.274   4.567  18.810  0.00  0.00    +0.000 N 
ATOM      5  C   UNL     1       4.038   5.141  17.802  0.00  0.00    +0.000 A 
ATOM      6  C   UNL     1       5.038   4.420  16.954  0.00  0.00    +0.000 C 
ATOM      7  C   UNL     1       3.715   6.482  17.739  0.00  0.00    +0.000 A 
ATOM      8  C   UNL     1       2.731   6.781  18.729  0.00  0.00    +0.000 A 
ATOM      9  C   UNL     1       2.497   5.569  19.391  0.00  0.00    +0.000 A 
ATOM     10  C   UNL     1       1.582   5.304  20.546  0.00  0.00    +0.000 C 
BRANCH   4  11
ATOM     11  C   UNL     1       3.381   3.154  19.215  0.00  0.00    +0.000 C 
ATOM     12  C   UNL     1       4.722   2.688  19.803  0.00  0.00    +0.000 C 
BRANCH  11  13
ATOM     13  C   UNL     1       2.907   2.219  18.090  0.00  0.00    +0.000 C 
BRANCH  13  15
ATOM     14  C   UNL     1       0.644   2.205  18.772  0.00  0.00    +0.000 C 
ATOM     15  O   UNL     1       1.556   2.534  17.731  0.00  0.00    +0.000 OA
ENDBRANCH  13  15
ENDBRANCH  11  13
ENDBRANCH   4  11
ENDBRANCH   2   8
ENDBRANCH   1   2
BRANCH   1  16
ATOM     16  O   UNL     1       0.801  10.035  18.238  0.00  0.00    +0.000 OA
BRANCH  16  17
ATOM     17  C   UNL     1       1.285  11.208  18.757  0.00  0.00    +0.000 C 
ATOM     18  O   UNL     1       2.247  11.793  18.271  0.00  0.00    +0.000 OA
BRANCH  17  19
ATOM     19  C   UNL     1       0.513  11.726  19.927  0.00  0.00    +0.000 A 
ATOM     20  N   UNL     1       1.023  12.174  21.143  0.00  0.00    +0.000 NA
ATOM     21  C   UNL     1      -0.052  12.524  21.832  0.00  0.00    +0.000 A 
ATOM     22  N   UNL     1      -0.255  13.340  22.934  0.00  0.00    +0.000 NA
ATOM     23  C   UNL     1      -1.498  13.343  23.354  0.00  0.00    +0.000 A 
ATOM     24  C   UNL     1      -2.124  14.561  24.015  0.00  0.00    +0.000 C 
ATOM     25  C   UNL     1      -2.543  12.331  22.963  0.00  0.00    +0.000 A 
ATOM     26  C   UNL     1      -2.448  12.306  21.625  0.00  0.00    +0.000 A 
ATOM     27  C   UNL     1      -3.385  13.135  20.798  0.00  0.00    +0.000 C 
ATOM     28  N   UNL     1      -1.174  12.160  21.079  0.00  0.00    +0.000 N 
ATOM     29  N   UNL     1      -0.823  11.815  19.838  0.00  0.00    +0.000 NA
ENDBRANCH  17  19
ENDBRANCH  16  17
ENDBRANCH   1  16
TORSDOF 8
ENDMDL
MODEL 7
REMARK VINA RESULT:      -7.0      2.326      9.815
REMARK  Name = 
REMARK  14 active torsions:
REMARK  status: ('A' for Active; 'I' for Inactive)
REMARK    1  A    between atoms: C_1  and  O_2
REMARK    2  A    between atoms: O_2  and  C_3
REMARK    3  A    between atoms: C_3  and  C_4
REMARK    4  A    between atoms: C_4  and  C_5
REMARK    5  A    between atoms: C_4  and  N_6
REMARK    6  A    between atoms: C_7  and  C_8
REMARK    7  A    between atoms: C_10  and  C_11
REMARK    8  A    between atoms: C_11  and  C_13
REMARK    9  A    between atoms: C_13  and  O_14
REMARK   10  A    between atoms: O_14  and  C_15
REMARK   11  A    between atoms: C_15  and  C_17
REMARK   12  A    between atoms: C_21  and  C_22
REMARK   13  A    between atoms: C_24  and  C_25
REMARK   14  A    between atoms: C_28  and  C_29
REMARK                            x       y       z     vdW  Elec       q    Type
REMARK                         _______ _______ _______ _____ _____    ______ ____
ROOT
ATOM      1  C   UNL     1       2.191   8.608  17.636  0.00  0.00    +0.000 C 
ENDROOT
BRANCH   1   2
ATOM      2  C   UNL     1       2.569   7.494  18.623  0.00  0.00    +0.000 C 
ATOM      3  O   UNL     1       2.230   7.617  19.814  0.00  0.00    +0.000 OA
BRANCH   2   8
ATOM      4  N   UNL     1       4.922   4.932  17.328  0.00  0.00    +0.000 N 
ATOM      5  C   UNL     1       3.828   4.128  17.624  0.00  0.00    +0.000 A 
ATOM      6  C   UNL     1       3.757   2.648  17.412  0.00  0.00    +0.000 C 
ATOM      7  C   UNL     1       2.832   4.940  18.128  0.00  0.00    +0.000 A 
ATOM      8  C   UNL     1       3.287   6.292  18.152  0.00  0.00    +0.000 A 
ATOM      9  C   UNL     1       4.585   6.252  17.626  0.00  0.00    +0.000 A 
ATOM     10  C   UNL     1       5.525   7.393  17.385  0.00  0.00    +0.000 C 
BRANCH   4  11
ATOM     11  C   UNL     1       6.166   4.431  16.716  0.00  0.00    +0.000 C 
ATOM     12  C   UNL     1       7.453   4.537  17.548  0.00  0.00    +0.000 C 
BRANCH  11  13
ATOM     13  C   UNL     1       6.360   5.010  15.305  0.00  0.00    +0.000 C 
BRANCH  13  15
ATOM     14  C   UNL     1       6.098   3.718  13.342  0.00  0.00    +0.000 C 
ATOM     15  O   UNL     1       5.432   4.403  14.396  0.00  0.00    +0.000 OA
ENDBRANCH  13  15
ENDBRANCH  11  13
ENDBRANCH   4  11
ENDBRANCH   2   8
ENDBRANCH   1   2
BRANCH   1  16
ATOM     16  O   UNL     1       1.020   9.330  18.061  0.00  0.00    +0.000 OA
BRANCH  16  17
ATOM     17  C   UNL     1       1.263  10.626  18.437  0.00  0.00    +0.000 C 
ATOM     18  O   UNL     1       2.272  11.232  18.091  0.00  0.00    +0.000 OA
BRANCH  17  19
ATOM     19  C   UNL     1       0.175  11.241  19.256  0.00  0.00    +0.000 A 
ATOM     20  N   UNL     1      -0.918  11.970  18.796  0.00  0.00    +0.000 NA
ATOM     21  C   UNL     1      -1.579  12.288  19.899  0.00  0.00    +0.000 A 
ATOM     22  N   UNL     1      -2.883  12.688  20.149  0.00  0.00    +0.000 NA
ATOM     23  C   UNL     1      -3.099  12.990  21.408  0.00  0.00    +0.000 A 
ATOM     24  C   UNL     1      -4.455  12.784  22.065  0.00  0.00    +0.000 C 
ATOM     25  C   UNL     1      -2.023  13.244  22.431  0.00  0.00    +0.000 A 
ATOM     26  C   UNL     1      -1.215  12.183  22.284  0.00  0.00    +0.000 A 
ATOM     27  C   UNL     1      -1.369  11.001  23.193  0.00  0.00    +0.000 C 
ATOM     28  N   UNL     1      -0.810  11.866  20.990  0.00  0.00    +0.000 N 
ATOM     29  N   UNL     1       0.192  11.079  20.589  0.00  0.00    +0.000 NA
ENDBRANCH  17  19
ENDBRANCH  16  17
ENDBRANCH   1  16
TORSDOF 8
ENDMDL
MODEL 8
REMARK VINA RESULT:      -6.8      1.704      2.722
REMARK  Name = 
REMARK  14 active torsions:
REMARK  status: ('A' for Active; 'I' for Inactive)
REMARK    1  A    between atoms: C_1  and  O_2
REMARK    2  A    between atoms: O_2  and  C_3
REMARK    3  A    between atoms: C_3  and  C_4
REMARK    4  A    between atoms: C_4  and  C_5
REMARK    5  A    between atoms: C_4  and  N_6
REMARK    6  A    between atoms: C_7  and  C_8
REMARK    7  A    between atoms: C_10  and  C_11
REMARK    8  A    between atoms: C_11  and  C_13
REMARK    9  A    between atoms: C_13  and  O_14
REMARK   10  A    between atoms: O_14  and  C_15
REMARK   11  A    between atoms: C_15  and  C_17
REMARK   12  A    between atoms: C_21  and  C_22
REMARK   13  A    between atoms: C_24  and  C_25
REMARK   14  A    between atoms: C_28  and  C_29
REMARK                            x       y       z     vdW  Elec       q    Type
REMARK                         _______ _______ _______ _____ _____    ______ ____
ROOT
ATOM      1  C   UNL     1       1.693   8.139  20.981  0.00  0.00    +0.000 C 
ENDROOT
BRANCH   1   2
ATOM      2  C   UNL     1       0.218   8.542  21.117  0.00  0.00    +0.000 C 
ATOM      3  O   UNL     1      -0.599   7.681  21.491  0.00  0.00    +0.000 OA
BRANCH   2   8
ATOM      4  N   UNL     1      -0.971  12.058  21.141  0.00  0.00    +0.000 N 
ATOM      5  C   UNL     1      -0.652  11.920  19.796  0.00  0.00    +0.000 A 
ATOM      6  C   UNL     1      -0.810  12.982  18.754  0.00  0.00    +0.000 C 
ATOM      7  C   UNL     1      -0.183  10.636  19.604  0.00  0.00    +0.000 A 
ATOM      8  C   UNL     1      -0.205   9.930  20.843  0.00  0.00    +0.000 A 
ATOM      9  C   UNL     1      -0.722  10.840  21.774  0.00  0.00    +0.000 A 
ATOM     10  C   UNL     1      -0.999  10.623  23.230  0.00  0.00    +0.000 C 
BRANCH   4  11
ATOM     11  C   UNL     1      -1.558  13.278  21.723  0.00  0.00    +0.000 C 
ATOM     12  C   UNL     1      -0.657  14.130  22.631  0.00  0.00    +0.000 C 
BRANCH  11  13
ATOM     13  C   UNL     1      -2.907  12.976  22.396  0.00  0.00    +0.000 C 
BRANCH  13  15
ATOM     14  C   UNL     1      -4.194  13.706  20.552  0.00  0.00    +0.000 C 
ATOM     15  O   UNL     1      -3.876  12.613  21.404  0.00  0.00    +0.000 OA
ENDBRANCH  13  15
ENDBRANCH  11  13
ENDBRANCH   4  11
ENDBRANCH   2   8
ENDBRANCH   1   2
BRANCH   1  16
ATOM     16  O   UNL     1       1.957   7.467  19.735  0.00  0.00    +0.000 OA
BRANCH  16  17
ATOM     17  C   UNL     1       2.317   6.151  19.869  0.00  0.00    +0.000 C 
ATOM     18  O   UNL     1       1.789   5.407  20.688  0.00  0.00    +0.000 OA
BRANCH  17  19
ATOM     19  C   UNL     1       3.366   5.701  18.905  0.00  0.00    +0.000 A 
ATOM     20  N   UNL     1       3.217   4.793  17.860  0.00  0.00    +0.000 NA
ATOM     21  C   UNL     1       4.421   4.736  17.311  0.00  0.00    +0.000 A 
ATOM     22  N   UNL     1       4.885   4.320  16.072  0.00  0.00    +0.000 NA
ATOM     23  C   UNL     1       6.193   4.356  15.971  0.00  0.00    +0.000 A 
ATOM     24  C   UNL     1       6.894   4.628  14.650  0.00  0.00    +0.000 C 
ATOM     25  C   UNL     1       7.144   4.473  17.134  0.00  0.00    +0.000 A 
ATOM     26  C   UNL     1       6.649   5.513  17.822  0.00  0.00    +0.000 A 
ATOM     27  C   UNL     1       7.223   6.882  17.614  0.00  0.00    +0.000 C 
ATOM     28  N   UNL     1       5.285   5.496  18.106  0.00  0.00    +0.000 N 
ATOM     29  N   UNL     1       4.600   6.219  18.996  0.00  0.00    +0.000 NA
ENDBRANCH  17  19
ENDBRANCH  16  17
ENDBRANCH   1  16
TORSDOF 8
ENDMDL
MODEL 9
REMARK VINA RESULT:      -6.8      1.786      2.653
REMARK  Name = 
REMARK  14 active torsions:
REMARK  status: ('A' for Active; 'I' for Inactive)
REMARK    1  A    between atoms: C_1  and  O_2
REMARK    2  A    between atoms: O_2  and  C_3
REMARK    3  A    between atoms: C_3  and  C_4
REMARK    4  A    between atoms: C_4  and  C_5
REMARK    5  A    between atoms: C_4  and  N_6
REMARK    6  A    between atoms: C_7  and  C_8
REMARK    7  A    between atoms: C_10  and  C_11
REMARK    8  A    between atoms: C_11  and  C_13
REMARK    9  A    between atoms: C_13  and  O_14
REMARK   10  A    between atoms: O_14  and  C_15
REMARK   11  A    between atoms: C_15  and  C_17
REMARK   12  A    between atoms: C_21  and  C_22
REMARK   13  A    between atoms: C_24  and  C_25
REMARK   14  A    between atoms: C_28  and  C_29
REMARK                            x       y       z     vdW  Elec       q    Type
REMARK                         _______ _______ _______ _____ _____    ______ ____
ROOT
ATOM      1  C   UNL     1       1.004   7.630  21.079  0.00  0.00    +0.000 C 
ENDROOT
BRANCH   1   2
ATOM      2  C   UNL     1       0.993   9.140  21.360  0.00  0.00    +0.000 C 
ATOM      3  O   UNL     1       1.791   9.591  22.202  0.00  0.00    +0.000 OA
BRANCH   2   8
ATOM      4  N   UNL     1      -1.371  11.722  20.129  0.00  0.00    +0.000 N 
ATOM      5  C   UNL     1      -1.138  11.026  18.950  0.00  0.00    +0.000 A 
ATOM      6  C   UNL     1      -1.754  11.340  17.622  0.00  0.00    +0.000 C 
ATOM      7  C   UNL     1      -0.258  10.002  19.232  0.00  0.00    +0.000 A 
ATOM      8  C   UNL     1       0.079  10.031  20.618  0.00  0.00    +0.000 A 
ATOM      9  C   UNL     1      -0.650  11.103  21.150  0.00  0.00    +0.000 A 
ATOM     10  C   UNL     1      -0.708  11.572  22.571  0.00  0.00    +0.000 C 
BRANCH   4  11
ATOM     11  C   UNL     1      -2.306  12.857  20.241  0.00  0.00    +0.000 C 
ATOM     12  C   UNL     1      -1.714  14.223  20.618  0.00  0.00    +0.000 C 
BRANCH  11  13
ATOM     13  C   UNL     1      -3.506  12.499  21.134  0.00  0.00    +0.000 C 
BRANCH  13  15
ATOM     14  C   UNL     1      -4.630  13.163  23.105  0.00  0.00    +0.000 C 
ATOM     15  O   UNL     1      -3.768  13.571  22.049  0.00  0.00    +0.000 OA
ENDBRANCH  13  15
ENDBRANCH  11  13
ENDBRANCH   4  11
ENDBRANCH   2   8
ENDBRANCH   1   2
BRANCH   1  16
ATOM     16  O   UNL     1       2.013   7.267  20.119  0.00  0.00    +0.000 OA
BRANCH  16  17
ATOM     17  C   UNL     1       2.254   5.920  20.038  0.00  0.00    +0.000 C 
ATOM     18  O   UNL     1       1.630   5.100  20.704  0.00  0.00    +0.000 OA
BRANCH  17  19
ATOM     19  C   UNL     1       3.300   5.543  19.040  0.00  0.00    +0.000 A 
ATOM     20  N   UNL     1       3.157   4.689  17.950  0.00  0.00    +0.000 NA
ATOM     21  C   UNL     1       4.355   4.686  17.385  0.00  0.00    +0.000 A 
ATOM     22  N   UNL     1       4.813   4.347  16.121  0.00  0.00    +0.000 NA
ATOM     23  C   UNL     1       6.119   4.415  16.009  0.00  0.00    +0.000 A 
ATOM     24  C   UNL     1       6.799   4.771  14.696  0.00  0.00    +0.000 C 
ATOM     25  C   UNL     1       7.081   4.489  17.165  0.00  0.00    +0.000 A 
ATOM     26  C   UNL     1       6.573   5.480  17.914  0.00  0.00    +0.000 A 
ATOM     27  C   UNL     1       7.117   6.870  17.773  0.00  0.00    +0.000 C 
ATOM     28  N   UNL     1       5.214   5.421  18.210  0.00  0.00    +0.000 N 
ATOM     29  N   UNL     1       4.525   6.081  19.145  0.00  0.00    +0.000 NA
ENDBRANCH  17  19
ENDBRANCH  16  17
ENDBRANCH   1  16
TORSDOF 8
ENDMDL
