MODEL 1
REMARK VINA RESULT:      -7.7      0.000      0.000
REMARK  Name = 
REMARK  4 active torsions:
REMARK  status: ('A' for Active; 'I' for Inactive)
REMARK    1  A    between atoms: N_1  and  C_2
REMARK    2  A    between atoms: C_2  and  C_3
REMARK    3  A    between atoms: C_3  and  O_5
REMARK    4  A    between atoms: C_10  and  C_11
REMARK                            x       y       z     vdW  Elec       q    Type
REMARK                         _______ _______ _______ _____ _____    ______ ____
ROOT
ATOM      1  C   UNL     1       3.731   2.742  19.667  0.00  0.00    +0.000 C 
ATOM      2  C   UNL     1       2.714   2.681  20.828  0.00  0.00    +0.000 C 
ATOM      3  C   UNL     1       1.453   3.513  20.581  0.00  0.00    +0.000 C 
ATOM      4  C   UNL     1       1.789   4.957  20.233  0.00  0.00    +0.000 C 
ATOM      5  C   UNL     1       2.721   5.042  19.029  0.00  0.00    +0.000 C 
ATOM      6  C   UNL     1       4.012   4.224  19.231  0.00  0.00    +0.000 C 
ENDROOT
BRANCH   6   7
ATOM      7  C   UNL     1       4.942   4.370  18.033  0.00  0.00    +0.000 A 
ATOM      8  C   UNL     1       6.319   4.558  18.217  0.00  0.00    +0.000 A 
ATOM      9  C   UNL     1       7.192   4.607  17.127  0.00  0.00    +0.000 A 
ATOM     10  C   UNL     1       6.699   4.449  15.831  0.00  0.00    +0.000 A 
ATOM     11  C   UNL     1       5.332   4.293  15.621  0.00  0.00    +0.000 A 
ATOM     12  C   UNL     1       4.460   4.286  16.712  0.00  0.00    +0.000 A 
ENDBRANCH   6   7
BRANCH   1  13
ATOM     13  N   UNL     1       5.010   2.096  20.143  0.00  0.00    +0.000 NA
ATOM     14  H   UNL     1       5.656   2.049  19.347  0.00  0.00    +0.000 HD
ATOM     15  H   UNL     1       4.813   1.119  20.370  0.00  0.00    +0.000 HD
ENDBRANCH   1  13
BRANCH   1  16
ATOM     16  C   UNL     1       3.224   1.860  18.489  0.00  0.00    +0.000 C 
ATOM     17  O   UNL     1       2.246   2.070  17.789  0.00  0.00    +0.000 OA
BRANCH  16  18
ATOM     18  O   UNL     1       4.028   0.771  18.304  0.00  0.00    +0.000 OA
ATOM     19  H   UNL     1       3.463   0.083  17.869  0.00  0.00    +0.000 HD
ENDBRANCH  16  18
ENDBRANCH   1  16
TORSDOF 4
ENDMDL
MODEL 2
REMARK VINA RESULT:      -7.7      0.156      1.215
REMARK  Name = 
REMARK  4 active torsions:
REMARK  status: ('A' for Active; 'I' for Inactive)
REMARK    1  A    between atoms: N_1  and  C_2
REMARK    2  A    between atoms: C_2  and  C_3
REMARK    3  A    between atoms: C_3  and  O_5
REMARK    4  A    between atoms: C_10  and  C_11
REMARK                            x       y       z     vdW  Elec       q    Type
REMARK                         _______ _______ _______ _____ _____    ______ ____
ROOT
ATOM      1  C   UNL     1       3.774   2.763  19.600  0.00  0.00    +0.000 C 
ATOM      2  C   UNL     1       2.741   2.776  20.749  0.00  0.00    +0.000 C 
ATOM      3  C   UNL     1       1.504   3.626  20.449  0.00  0.00    +0.000 C 
ATOM      4  C   UNL     1       1.878   5.044  20.042  0.00  0.00    +0.000 C 
ATOM      5  C   UNL     1       2.826   5.055  18.848  0.00  0.00    +0.000 C 
ATOM      6  C   UNL     1       4.095   4.217  19.103  0.00  0.00    +0.000 C 
ENDROOT
BRANCH   6   7
ATOM      7  C   UNL     1       5.043   4.289  17.912  0.00  0.00    +0.000 A 
ATOM      8  C   UNL     1       4.548   4.232  16.602  0.00  0.00    +0.000 A 
ATOM      9  C   UNL     1       5.398   4.384  15.503  0.00  0.00    +0.000 A 
ATOM     10  C   UNL     1       6.761   4.615  15.702  0.00  0.00    +0.000 A 
ATOM     11  C   UNL     1       7.280   4.645  16.993  0.00  0.00    +0.000 A 
ATOM     12  C   UNL     1       6.431   4.451  18.086  0.00  0.00    +0.000 A 
ENDBRANCH   6   7
BRANCH   1  13
ATOM     13  N   UNL     1       5.031   2.109  20.120  0.00  0.00    +0.000 NA
ATOM     14  H   UNL     1       4.865   1.831  21.094  0.00  0.00    +0.000 HD
ATOM     15  H   UNL     1       5.764   2.819  20.178  0.00  0.00    +0.000 HD
ENDBRANCH   1  13
BRANCH   1  16
ATOM     16  C   UNL     1       3.260   1.842  18.454  0.00  0.00    +0.000 C 
ATOM     17  O   UNL     1       2.303   2.049  17.725  0.00  0.00    +0.000 OA
BRANCH  16  18
ATOM     18  O   UNL     1       4.031   0.719  18.338  0.00  0.00    +0.000 OA
ATOM     19  H   UNL     1       4.075   0.515  17.370  0.00  0.00    +0.000 HD
ENDBRANCH  16  18
ENDBRANCH   1  16
TORSDOF 4
ENDMDL
MODEL 3
REMARK VINA RESULT:      -7.4      1.534      1.917
REMARK  Name = 
REMARK  4 active torsions:
REMARK  status: ('A' for Active; 'I' for Inactive)
REMARK    1  A    between atoms: N_1  and  C_2
REMARK    2  A    between atoms: C_2  and  C_3
REMARK    3  A    between atoms: C_3  and  O_5
REMARK    4  A    between atoms: C_10  and  C_11
REMARK                            x       y       z     vdW  Elec       q    Type
REMARK                         _______ _______ _______ _____ _____    ______ ____
ROOT
ATOM      1  C   UNL     1       3.636   3.254  19.368  0.00  0.00    +0.000 C 
ATOM      2  C   UNL     1       2.452   2.707  20.197  0.00  0.00    +0.000 C 
ATOM      3  C   UNL     1       1.203   3.588  20.134  0.00  0.00    +0.000 C 
ATOM      4  C   UNL     1       1.508   5.030  20.513  0.00  0.00    +0.000 C 
ATOM      5  C   UNL     1       2.612   5.619  19.642  0.00  0.00    +0.000 C 
ATOM      6  C   UNL     1       3.898   4.770  19.677  0.00  0.00    +0.000 C 
ENDROOT
BRANCH   6   7
ATOM      7  C   UNL     1       4.997   5.411  18.837  0.00  0.00    +0.000 A 
ATOM      8  C   UNL     1       4.678   6.151  17.690  0.00  0.00    +0.000 A 
ATOM      9  C   UNL     1       5.669   6.814  16.961  0.00  0.00    +0.000 A 
ATOM     10  C   UNL     1       6.998   6.762  17.385  0.00  0.00    +0.000 A 
ATOM     11  C   UNL     1       7.343   6.009  18.503  0.00  0.00    +0.000 A 
ATOM     12  C   UNL     1       6.353   5.314  19.203  0.00  0.00    +0.000 A 
ENDBRANCH   6   7
BRANCH   1  13
ATOM     13  N   UNL     1       4.858   2.439  19.718  0.00  0.00    +0.000 NA
ATOM     14  H   UNL     1       5.682   2.935  19.360  0.00  0.00    +0.000 HD
ATOM     15  H   UNL     1       4.829   1.569  19.182  0.00  0.00    +0.000 HD
ENDBRANCH   1  13
BRANCH   1  16
ATOM     16  C   UNL     1       3.371   2.991  17.856  0.00  0.00    +0.000 C 
ATOM     17  O   UNL     1       2.334   3.206  17.249  0.00  0.00    +0.000 OA
BRANCH  16  18
ATOM     18  O   UNL     1       4.476   2.471  17.243  0.00  0.00    +0.000 OA
ATOM     19  H   UNL     1       4.201   2.256  16.316  0.00  0.00    +0.000 HD
ENDBRANCH  16  18
ENDBRANCH   1  16
TORSDOF 4
ENDMDL
MODEL 4
REMARK VINA RESULT:      -7.4      2.207      4.763
REMARK  Name = 
REMARK  4 active torsions:
REMARK  status: ('A' for Active; 'I' for Inactive)
REMARK    1  A    between atoms: N_1  and  C_2
REMARK    2  A    between atoms: C_2  and  C_3
REMARK    3  A    between atoms: C_3  and  O_5
REMARK    4  A    between atoms: C_10  and  C_11
REMARK                            x       y       z     vdW  Elec       q    Type
REMARK                         _______ _______ _______ _____ _____    ______ ____
ROOT
ATOM      1  C   UNL     1       4.932   4.363  17.585  0.00  0.00    +0.000 C 
ATOM      2  C   UNL     1       5.951   5.113  16.698  0.00  0.00    +0.000 C 
ATOM      3  C   UNL     1       6.003   6.619  16.964  0.00  0.00    +0.000 C 
ATOM      4  C   UNL     1       4.625   7.258  16.863  0.00  0.00    +0.000 C 
ATOM      5  C   UNL     1       3.625   6.591  17.802  0.00  0.00    +0.000 C 
ATOM      6  C   UNL     1       3.531   5.070  17.568  0.00  0.00    +0.000 C 
ENDROOT
BRANCH   6   7
ATOM      7  C   UNL     1       2.489   4.442  18.486  0.00  0.00    +0.000 A 
ATOM      8  C   UNL     1       1.800   3.285  18.098  0.00  0.00    +0.000 A 
ATOM      9  C   UNL     1       0.907   2.652  18.966  0.00  0.00    +0.000 A 
ATOM     10  C   UNL     1       0.703   3.162  20.250  0.00  0.00    +0.000 A 
ATOM     11  C   UNL     1       1.351   4.327  20.647  0.00  0.00    +0.000 A 
ATOM     12  C   UNL     1       2.212   4.978  19.759  0.00  0.00    +0.000 A 
ENDBRANCH   6   7
BRANCH   1  13
ATOM     13  N   UNL     1       4.805   2.957  17.051  0.00  0.00    +0.000 NA
ATOM     14  H   UNL     1       5.646   2.749  16.501  0.00  0.00    +0.000 HD
ATOM     15  H   UNL     1       4.042   2.938  16.371  0.00  0.00    +0.000 HD
ENDBRANCH   1  13
BRANCH   1  16
ATOM     16  C   UNL     1       5.509   4.218  19.024  0.00  0.00    +0.000 C 
ATOM     17  O   UNL     1       6.066   5.087  19.677  0.00  0.00    +0.000 OA
BRANCH  16  18
ATOM     18  O   UNL     1       5.316   2.956  19.511  0.00  0.00    +0.000 OA
ATOM     19  H   UNL     1       4.534   3.011  20.115  0.00  0.00    +0.000 HD
ENDBRANCH  16  18
ENDBRANCH   1  16
TORSDOF 4
ENDMDL
MODEL 5
REMARK VINA RESULT:      -7.3      1.514      1.531
REMARK  Name = 
REMARK  4 active torsions:
REMARK  status: ('A' for Active; 'I' for Inactive)
REMARK    1  A    between atoms: N_1  and  C_2
REMARK    2  A    between atoms: C_2  and  C_3
REMARK    3  A    between atoms: C_3  and  O_5
REMARK    4  A    between atoms: C_10  and  C_11
REMARK                            x       y       z     vdW  Elec       q    Type
REMARK                         _______ _______ _______ _____ _____    ______ ____
ROOT
ATOM      1  C   UNL     1       3.649   3.272  19.347  0.00  0.00    +0.000 C 
ATOM      2  C   UNL     1       2.473   2.680  20.156  0.00  0.00    +0.000 C 
ATOM      3  C   UNL     1       1.205   3.534  20.107  0.00  0.00    +0.000 C 
ATOM      4  C   UNL     1       1.476   4.973  20.523  0.00  0.00    +0.000 C 
ATOM      5  C   UNL     1       2.572   5.607  19.672  0.00  0.00    +0.000 C 
ATOM      6  C   UNL     1       3.876   4.786  19.695  0.00  0.00    +0.000 C 
ENDROOT
BRANCH   6   7
ATOM      7  C   UNL     1       4.965   5.471  18.877  0.00  0.00    +0.000 A 
ATOM      8  C   UNL     1       6.313   5.355  19.244  0.00  0.00    +0.000 A 
ATOM      9  C   UNL     1       7.325   5.906  18.453  0.00  0.00    +0.000 A 
ATOM     10  C   UNL     1       7.001   6.569  17.268  0.00  0.00    +0.000 A 
ATOM     11  C   UNL     1       5.668   6.723  16.899  0.00  0.00    +0.000 A 
ATOM     12  C   UNL     1       4.659   6.206  17.715  0.00  0.00    +0.000 A 
ENDBRANCH   6   7
BRANCH   1  13
ATOM     13  N   UNL     1       4.886   2.476  19.684  0.00  0.00    +0.000 NA
ATOM     14  H   UNL     1       5.155   2.700  20.649  0.00  0.00    +0.000 HD
ATOM     15  H   UNL     1       5.660   2.826  19.115  0.00  0.00    +0.000 HD
ENDBRANCH   1  13
BRANCH   1  16
ATOM     16  C   UNL     1       3.398   3.041  17.828  0.00  0.00    +0.000 C 
ATOM     17  O   UNL     1       2.348   3.211  17.228  0.00  0.00    +0.000 OA
BRANCH  16  18
ATOM     18  O   UNL     1       4.531   2.607  17.199  0.00  0.00    +0.000 OA
ATOM     19  H   UNL     1       5.138   2.290  17.914  0.00  0.00    +0.000 HD
ENDBRANCH  16  18
ENDBRANCH   1  16
TORSDOF 4
ENDMDL
MODEL 6
REMARK VINA RESULT:      -7.3      2.262      4.676
REMARK  Name = 
REMARK  4 active torsions:
REMARK  status: ('A' for Active; 'I' for Inactive)
REMARK    1  A    between atoms: N_1  and  C_2
REMARK    2  A    between atoms: C_2  and  C_3
REMARK    3  A    between atoms: C_3  and  O_5
REMARK    4  A    between atoms: C_10  and  C_11
REMARK                            x       y       z     vdW  Elec       q    Type
REMARK                         _______ _______ _______ _____ _____    ______ ____
ROOT
ATOM      1  C   UNL     1       4.968   4.474  17.578  0.00  0.00    +0.000 C 
ATOM      2  C   UNL     1       5.916   5.328  16.707  0.00  0.00    +0.000 C 
ATOM      3  C   UNL     1       5.881   6.820  17.046  0.00  0.00    +0.000 C 
ATOM      4  C   UNL     1       4.464   7.375  17.007  0.00  0.00    +0.000 C 
ATOM      5  C   UNL     1       3.531   6.602  17.933  0.00  0.00    +0.000 C 
ATOM      6  C   UNL     1       3.525   5.092  17.627  0.00  0.00    +0.000 C 
ENDROOT
BRANCH   6   7
ATOM      7  C   UNL     1       2.547   4.356  18.535  0.00  0.00    +0.000 A 
ATOM      8  C   UNL     1       2.258   4.845  19.817  0.00  0.00    +0.000 A 
ATOM      9  C   UNL     1       1.299   4.227  20.624  0.00  0.00    +0.000 A 
ATOM     10  C   UNL     1       0.600   3.116  20.150  0.00  0.00    +0.000 A 
ATOM     11  C   UNL     1       0.892   2.594  18.894  0.00  0.00    +0.000 A 
ATOM     12  C   UNL     1       1.881   3.191  18.108  0.00  0.00    +0.000 A 
ENDBRANCH   6   7
BRANCH   1  13
ATOM     13  N   UNL     1       4.914   3.090  16.978  0.00  0.00    +0.000 NA
ATOM     14  H   UNL     1       4.721   3.187  15.975  0.00  0.00    +0.000 HD
ATOM     15  H   UNL     1       4.094   2.608  17.351  0.00  0.00    +0.000 HD
ENDBRANCH   1  13
BRANCH   1  16
ATOM     16  C   UNL     1       5.588   4.297  18.995  0.00  0.00    +0.000 C 
ATOM     17  O   UNL     1       6.162   5.152  19.652  0.00  0.00    +0.000 OA
BRANCH  16  18
ATOM     18  O   UNL     1       5.415   3.023  19.456  0.00  0.00    +0.000 OA
ATOM     19  H   UNL     1       4.454   2.939  19.680  0.00  0.00    +0.000 HD
ENDBRANCH  16  18
ENDBRANCH   1  16
TORSDOF 4
ENDMDL
MODEL 7
REMARK VINA RESULT:      -6.9      1.953      2.466
REMARK  Name = 
REMARK  4 active torsions:
REMARK  status: ('A' for Active; 'I' for Inactive)
REMARK    1  A    between atoms: N_1  and  C_2
REMARK    2  A    between atoms: C_2  and  C_3
REMARK    3  A    between atoms: C_3  and  O_5
REMARK    4  A    between atoms: C_10  and  C_11
REMARK                            x       y       z     vdW  Elec       q    Type
REMARK                         _______ _______ _______ _____ _____    ______ ____
ROOT
ATOM      1  C   UNL     1       3.354   4.249  19.601  0.00  0.00    +0.000 C 
ATOM      2  C   UNL     1       2.243   3.710  20.529  0.00  0.00    +0.000 C 
ATOM      3  C   UNL     1       1.605   2.412  20.029  0.00  0.00    +0.000 C 
ATOM      4  C   UNL     1       1.097   2.547  18.600  0.00  0.00    +0.000 C 
ATOM      5  C   UNL     1       2.204   2.989  17.649  0.00  0.00    +0.000 C 
ATOM      6  C   UNL     1       2.876   4.299  18.106  0.00  0.00    +0.000 C 
ENDROOT
BRANCH   6   7
ATOM      7  C   UNL     1       3.942   4.741  17.110  0.00  0.00    +0.000 A 
ATOM      8  C   UNL     1       4.589   3.801  16.295  0.00  0.00    +0.000 A 
ATOM      9  C   UNL     1       5.504   4.204  15.319  0.00  0.00    +0.000 A 
ATOM     10  C   UNL     1       5.773   5.561  15.132  0.00  0.00    +0.000 A 
ATOM     11  C   UNL     1       5.166   6.509  15.949  0.00  0.00    +0.000 A 
ATOM     12  C   UNL     1       4.283   6.098  16.951  0.00  0.00    +0.000 A 
ENDBRANCH   6   7
BRANCH   1  13
ATOM     13  N   UNL     1       3.713   5.638  20.072  0.00  0.00    +0.000 NA
ATOM     14  H   UNL     1       4.125   6.144  19.280  0.00  0.00    +0.000 HD
ATOM     15  H   UNL     1       4.473   5.561  20.751  0.00  0.00    +0.000 HD
ENDBRANCH   1  13
BRANCH   1  16
ATOM     16  C   UNL     1       4.642   3.394  19.785  0.00  0.00    +0.000 C 
ATOM     17  O   UNL     1       4.694   2.202  20.048  0.00  0.00    +0.000 OA
BRANCH  16  18
ATOM     18  O   UNL     1       5.767   4.149  19.612  0.00  0.00    +0.000 OA
ATOM     19  H   UNL     1       5.721   4.871  20.288  0.00  0.00    +0.000 HD
ENDBRANCH  16  18
ENDBRANCH   1  16
TORSDOF 4
ENDMDL
MODEL 8
REMARK VINA RESULT:      -6.9      1.941      2.392
REMARK  Name = 
REMARK  4 active torsions:
REMARK  status: ('A' for Active; 'I' for Inactive)
REMARK    1  A    between atoms: N_1  and  C_2
REMARK    2  A    between atoms: C_2  and  C_3
REMARK    3  A    between atoms: C_3  and  O_5
REMARK    4  A    between atoms: C_10  and  C_11
REMARK                            x       y       z     vdW  Elec       q    Type
REMARK                         _______ _______ _______ _____ _____    ______ ____
ROOT
ATOM      1  C   UNL     1       3.361   4.254  19.594  0.00  0.00    +0.000 C 
ATOM      2  C   UNL     1       2.268   3.730  20.552  0.00  0.00    +0.000 C 
ATOM      3  C   UNL     1       1.620   2.425  20.084  0.00  0.00    +0.000 C 
ATOM      4  C   UNL     1       1.085   2.537  18.663  0.00  0.00    +0.000 C 
ATOM      5  C   UNL     1       2.173   2.965  17.684  0.00  0.00    +0.000 C 
ATOM      6  C   UNL     1       2.854   4.281  18.109  0.00  0.00    +0.000 C 
ENDROOT
BRANCH   6   7
ATOM      7  C   UNL     1       3.901   4.706  17.085  0.00  0.00    +0.000 A 
ATOM      8  C   UNL     1       4.254   6.056  16.944  0.00  0.00    +0.000 A 
ATOM      9  C   UNL     1       5.273   6.446  16.071  0.00  0.00    +0.000 A 
ATOM     10  C   UNL     1       5.969   5.484  15.337  0.00  0.00    +0.000 A 
ATOM     11  C   UNL     1       5.616   4.142  15.438  0.00  0.00    +0.000 A 
ATOM     12  C   UNL     1       4.569   3.763  16.281  0.00  0.00    +0.000 A 
ENDBRANCH   6   7
BRANCH   1  13
ATOM     13  N   UNL     1       3.729   5.650  20.037  0.00  0.00    +0.000 NA
ATOM     14  H   UNL     1       4.633   5.601  20.519  0.00  0.00    +0.000 HD
ATOM     15  H   UNL     1       3.069   5.943  20.759  0.00  0.00    +0.000 HD
ENDBRANCH   1  13
BRANCH   1  16
ATOM     16  C   UNL     1       4.652   3.401  19.767  0.00  0.00    +0.000 C 
ATOM     17  O   UNL     1       4.709   2.214  20.049  0.00  0.00    +0.000 OA
BRANCH  16  18
ATOM     18  O   UNL     1       5.774   4.152  19.559  0.00  0.00    +0.000 OA
ATOM     19  H   UNL     1       5.486   5.098  19.616  0.00  0.00    +0.000 HD
ENDBRANCH  16  18
ENDBRANCH   1  16
TORSDOF 4
ENDMDL
MODEL 9
REMARK VINA RESULT:      -6.8      1.305      1.540
REMARK  Name = 
REMARK  4 active torsions:
REMARK  status: ('A' for Active; 'I' for Inactive)
REMARK    1  A    between atoms: N_1  and  C_2
REMARK    2  A    between atoms: C_2  and  C_3
REMARK    3  A    between atoms: C_3  and  O_5
REMARK    4  A    between atoms: C_10  and  C_11
REMARK                            x       y       z     vdW  Elec       q    Type
REMARK                         _______ _______ _______ _____ _____    ______ ____
ROOT
ATOM      1  C   UNL     1       2.983   3.294  19.074  0.00  0.00    +0.000 C 
ATOM      2  C   UNL     1       2.150   3.097  20.360  0.00  0.00    +0.000 C 
ATOM      3  C   UNL     1       1.199   4.259  20.656  0.00  0.00    +0.000 C 
ATOM      4  C   UNL     1       1.930   5.594  20.685  0.00  0.00    +0.000 C 
ATOM      5  C   UNL     1       2.685   5.850  19.385  0.00  0.00    +0.000 C 
ATOM      6  C   UNL     1       3.664   4.708  19.044  0.00  0.00    +0.000 C 
ENDROOT
BRANCH   6   7
ATOM      7  C   UNL     1       4.437   5.017  17.768  0.00  0.00    +0.000 A 
ATOM      8  C   UNL     1       5.178   4.017  17.123  0.00  0.00    +0.000 A 
ATOM      9  C   UNL     1       5.820   4.266  15.907  0.00  0.00    +0.000 A 
ATOM     10  C   UNL     1       5.713   5.523  15.307  0.00  0.00    +0.000 A 
ATOM     11  C   UNL     1       5.009   6.540  15.944  0.00  0.00    +0.000 A 
ATOM     12  C   UNL     1       4.404   6.296  17.180  0.00  0.00    +0.000 A 
ENDBRANCH   6   7
BRANCH   1  13
ATOM     13  N   UNL     1       4.039   2.215  19.041  0.00  0.00    +0.000 NA
ATOM     14  H   UNL     1       4.244   1.943  20.008  0.00  0.00    +0.000 HD
ATOM     15  H   UNL     1       4.910   2.627  18.700  0.00  0.00    +0.000 HD
ENDBRANCH   1  13
BRANCH   1  16
ATOM     16  C   UNL     1       2.081   3.041  17.830  0.00  0.00    +0.000 C 
ATOM     17  O   UNL     1       1.331   3.844  17.298  0.00  0.00    +0.000 OA
BRANCH  16  18
ATOM     18  O   UNL     1       2.222   1.763  17.367  0.00  0.00    +0.000 OA
ATOM     19  H   UNL     1       2.556   1.843  16.438  0.00  0.00    +0.000 HD
ENDBRANCH  16  18
ENDBRANCH   1  16
TORSDOF 4
ENDMDL
