MODEL 1
REMARK VINA RESULT:      -8.2      0.000      0.000
REMARK  Name = 
REMARK  7 active torsions:
REMARK  status: ('A' for Active; 'I' for Inactive)
REMARK    1  A    between atoms: C_1  and  C_2
REMARK    2  A    between atoms: C_11  and  O_12
REMARK    3  A    between atoms: O_12  and  C_13
REMARK    4  A    between atoms: C_13  and  C_15
REMARK    5  A    between atoms: C_23  and  C_24
REMARK    6  A    between atoms: C_27  and  C_28
REMARK    7  A    between atoms: C_30  and  N_31
REMARK                            x       y       z     vdW  Elec       q    Type
REMARK                         _______ _______ _______ _____ _____    ______ ____
ROOT
ATOM      1  C   UNL     1      -2.790  14.679  21.094  0.00  0.00    +0.000 C 
ATOM      2  C   UNL     1      -3.654  13.409  21.283  0.00  0.00    +0.000 C 
ATOM      3  C   UNL     1      -3.180  12.568  22.479  0.00  0.00    +0.000 C 
ATOM      4  C   UNL     1      -1.773  11.991  22.253  0.00  0.00    +0.000 C 
ATOM      5  C   UNL     1      -1.612  11.211  20.922  0.00  0.00    +0.000 C 
ATOM      6  C   UNL     1      -2.198  11.983  19.700  0.00  0.00    +0.000 C 
ATOM      7  C   UNL     1      -2.195  11.078  18.457  0.00  0.00    +0.000 C 
ATOM      8  C   UNL     1      -0.954  10.247  18.311  0.00  0.00    +0.000 C 
ATOM      9  C   UNL     1      -0.024  10.069  19.267  0.00  0.00    +0.000 C 
ATOM     10  C   UNL     1       1.206   9.217  18.999  0.00  0.00    +0.000 C 
ATOM     11  C   UNL     1       1.445   8.162  20.089  0.00  0.00    +0.000 C 
ATOM     12  C   UNL     1       1.472   8.822  21.468  0.00  0.00    +0.000 C 
ATOM     13  C   UNL     1       0.186   9.606  21.731  0.00  0.00    +0.000 C 
ATOM     14  C   UNL     1      -0.142  10.693  20.662  0.00  0.00    +0.000 C 
ATOM     15  C   UNL     1       0.889  11.842  20.759  0.00  0.00    +0.000 C 
ATOM     16  C   UNL     1      -3.620  12.446  20.062  0.00  0.00    +0.000 C 
ATOM     17  C   UNL     1      -4.524  13.110  19.028  0.00  0.00    +0.000 C 
ATOM     18  C   UNL     1      -5.575  13.662  19.957  0.00  0.00    +0.000 C 
ATOM     19  C   UNL     1      -5.128  13.802  21.225  0.00  0.00    +0.000 C 
ENDROOT
BRANCH  19  20
ATOM     20  N   UNL     1      -5.880  14.186  22.344  0.00  0.00    +0.000 N 
ATOM     21  C   UNL     1      -6.720  13.373  23.096  0.00  0.00    +0.000 A 
ATOM     22  C   UNL     1      -7.284  14.131  24.090  0.00  0.00    +0.000 A 
ATOM     23  C   UNL     1      -6.770  15.409  23.876  0.00  0.00    +0.000 A 
ATOM     24  N   UNL     1      -5.894  15.445  22.876  0.00  0.00    +0.000 NA
ENDBRANCH  19  20
BRANCH  18  25
ATOM     25  C   UNL     1      -6.916  14.016  19.457  0.00  0.00    +0.000 C 
ATOM     26  O   UNL     1      -7.902  13.329  19.718  0.00  0.00    +0.000 OA
ENDBRANCH  18  25
BRANCH  11  27
ATOM     27  O   UNL     1       2.717   7.501  19.885  0.00  0.00    +0.000 OA
BRANCH  27  28
ATOM     28  C   UNL     1       2.755   6.627  18.846  0.00  0.00    +0.000 C 
ATOM     29  O   UNL     1       3.254   6.846  17.751  0.00  0.00    +0.000 OA
BRANCH  28  30
ATOM     30  C   UNL     1       2.119   5.323  19.192  0.00  0.00    +0.000 A 
ATOM     31  C   UNL     1       1.795   4.451  18.138  0.00  0.00    +0.000 A 
ATOM     32  C   UNL     1       1.208   3.211  18.395  0.00  0.00    +0.000 A 
ATOM     33  C   UNL     1       0.946   2.828  19.710  0.00  0.00    +0.000 A 
ATOM     34  C   UNL     1       1.259   3.688  20.761  0.00  0.00    +0.000 A 
ATOM     35  C   UNL     1       1.841   4.932  20.508  0.00  0.00    +0.000 A 
ENDBRANCH  28  30
ENDBRANCH  27  28
ENDBRANCH  11  27
TORSDOF 5
ENDMDL
MODEL 2
REMARK VINA RESULT:      -8.1      2.814      4.154
REMARK  Name = 
REMARK  7 active torsions:
REMARK  status: ('A' for Active; 'I' for Inactive)
REMARK    1  A    between atoms: C_1  and  C_2
REMARK    2  A    between atoms: C_11  and  O_12
REMARK    3  A    between atoms: O_12  and  C_13
REMARK    4  A    between atoms: C_13  and  C_15
REMARK    5  A    between atoms: C_23  and  C_24
REMARK    6  A    between atoms: C_27  and  C_28
REMARK    7  A    between atoms: C_30  and  N_31
REMARK                            x       y       z     vdW  Elec       q    Type
REMARK                         _______ _______ _______ _____ _____    ______ ____
ROOT
ATOM      1  C   UNL     1      -2.671  13.088  20.352  0.00  0.00    +0.000 C 
ATOM      2  C   UNL     1      -1.269  13.562  20.807  0.00  0.00    +0.000 C 
ATOM      3  C   UNL     1      -0.311  13.734  19.617  0.00  0.00    +0.000 C 
ATOM      4  C   UNL     1      -0.009  12.394  18.925  0.00  0.00    +0.000 C 
ATOM      5  C   UNL     1       0.484  11.279  19.884  0.00  0.00    +0.000 C 
ATOM      6  C   UNL     1      -0.394  11.161  21.167  0.00  0.00    +0.000 C 
ATOM      7  C   UNL     1       0.261  10.191  22.164  0.00  0.00    +0.000 C 
ATOM      8  C   UNL     1       0.850   8.967  21.525  0.00  0.00    +0.000 C 
ATOM      9  C   UNL     1       1.050   8.802  20.205  0.00  0.00    +0.000 C 
ATOM     10  C   UNL     1       1.639   7.507  19.669  0.00  0.00    +0.000 C 
ATOM     11  C   UNL     1       2.822   7.743  18.719  0.00  0.00    +0.000 C 
ATOM     12  C   UNL     1       2.425   8.716  17.609  0.00  0.00    +0.000 C 
ATOM     13  C   UNL     1       1.910  10.034  18.187  0.00  0.00    +0.000 C 
ATOM     14  C   UNL     1       0.713   9.885  19.175  0.00  0.00    +0.000 C 
ATOM     15  C   UNL     1      -0.546   9.432  18.400  0.00  0.00    +0.000 C 
ATOM     16  C   UNL     1      -0.558  12.568  21.768  0.00  0.00    +0.000 C 
ATOM     17  C   UNL     1      -1.248  12.778  23.113  0.00  0.00    +0.000 C 
ATOM     18  C   UNL     1      -1.455  14.270  23.037  0.00  0.00    +0.000 C 
ATOM     19  C   UNL     1      -1.432  14.735  21.768  0.00  0.00    +0.000 C 
ENDROOT
BRANCH  19  20
ATOM     20  N   UNL     1      -1.488  16.076  21.364  0.00  0.00    +0.000 N 
ATOM     21  C   UNL     1      -0.447  16.996  21.400  0.00  0.00    +0.000 A 
ATOM     22  C   UNL     1      -0.913  18.200  20.938  0.00  0.00    +0.000 A 
ATOM     23  C   UNL     1      -2.258  17.960  20.658  0.00  0.00    +0.000 A 
ATOM     24  N   UNL     1      -2.599  16.689  20.856  0.00  0.00    +0.000 NA
ENDBRANCH  19  20
BRANCH  18  25
ATOM     25  C   UNL     1      -1.680  15.065  24.258  0.00  0.00    +0.000 C 
ATOM     26  O   UNL     1      -0.793  15.226  25.094  0.00  0.00    +0.000 OA
ENDBRANCH  18  25
BRANCH  11  27
ATOM     27  O   UNL     1       3.231   6.499  18.099  0.00  0.00    +0.000 OA
BRANCH  27  28
ATOM     28  C   UNL     1       3.712   5.557  18.951  0.00  0.00    +0.000 C 
ATOM     29  O   UNL     1       4.829   5.555  19.450  0.00  0.00    +0.000 OA
BRANCH  28  30
ATOM     30  C   UNL     1       2.701   4.498  19.237  0.00  0.00    +0.000 A 
ATOM     31  C   UNL     1       2.477   4.151  20.580  0.00  0.00    +0.000 A 
ATOM     32  C   UNL     1       1.537   3.176  20.915  0.00  0.00    +0.000 A 
ATOM     33  C   UNL     1       0.807   2.543  19.910  0.00  0.00    +0.000 A 
ATOM     34  C   UNL     1       1.025   2.877  18.575  0.00  0.00    +0.000 A 
ATOM     35  C   UNL     1       1.970   3.848  18.234  0.00  0.00    +0.000 A 
ENDBRANCH  28  30
ENDBRANCH  27  28
ENDBRANCH  11  27
TORSDOF 5
ENDMDL
MODEL 3
REMARK VINA RESULT:      -8.0      0.702      1.059
REMARK  Name = 
REMARK  7 active torsions:
REMARK  status: ('A' for Active; 'I' for Inactive)
REMARK    1  A    between atoms: C_1  and  C_2
REMARK    2  A    between atoms: C_11  and  O_12
REMARK    3  A    between atoms: O_12  and  C_13
REMARK    4  A    between atoms: C_13  and  C_15
REMARK    5  A    between atoms: C_23  and  C_24
REMARK    6  A    between atoms: C_27  and  C_28
REMARK    7  A    between atoms: C_30  and  N_31
REMARK                            x       y       z     vdW  Elec       q    Type
REMARK                         _______ _______ _______ _____ _____    ______ ____
ROOT
ATOM      1  C   UNL     1      -2.440  14.300  20.726  0.00  0.00    +0.000 C 
ATOM      2  C   UNL     1      -3.276  13.024  20.986  0.00  0.00    +0.000 C 
ATOM      3  C   UNL     1      -2.716  12.202  22.159  0.00  0.00    +0.000 C 
ATOM      4  C   UNL     1      -1.320  11.636  21.847  0.00  0.00    +0.000 C 
ATOM      5  C   UNL     1      -1.237  10.842  20.518  0.00  0.00    +0.000 C 
ATOM      6  C   UNL     1      -1.911  11.592  19.328  0.00  0.00    +0.000 C 
ATOM      7  C   UNL     1      -1.980  10.673  18.099  0.00  0.00    +0.000 C 
ATOM      8  C   UNL     1      -0.742   9.852  17.882  0.00  0.00    +0.000 C 
ATOM      9  C   UNL     1       0.251   9.696  18.777  0.00  0.00    +0.000 C 
ATOM     10  C   UNL     1       1.470   8.853  18.438  0.00  0.00    +0.000 C 
ATOM     11  C   UNL     1       1.791   7.814  19.523  0.00  0.00    +0.000 C 
ATOM     12  C   UNL     1       1.901   8.491  20.889  0.00  0.00    +0.000 C 
ATOM     13  C   UNL     1       0.626   9.266  21.227  0.00  0.00    +0.000 C 
ATOM     14  C   UNL     1       0.218  10.336  20.168  0.00  0.00    +0.000 C 
ATOM     15  C   UNL     1       1.240  11.497  20.184  0.00  0.00    +0.000 C 
ATOM     16  C   UNL     1      -3.311  12.046  19.778  0.00  0.00    +0.000 C 
ATOM     17  C   UNL     1      -4.289  12.687  18.797  0.00  0.00    +0.000 C 
ATOM     18  C   UNL     1      -5.282  13.240  19.786  0.00  0.00    +0.000 C 
ATOM     19  C   UNL     1      -4.754  13.400  21.021  0.00  0.00    +0.000 C 
ENDROOT
BRANCH  19  20
ATOM     20  N   UNL     1      -5.436  13.791  22.182  0.00  0.00    +0.000 N 
ATOM     21  C   UNL     1      -6.320  13.017  22.923  0.00  0.00    +0.000 A 
ATOM     22  C   UNL     1      -6.786  13.769  23.970  0.00  0.00    +0.000 A 
ATOM     23  C   UNL     1      -6.169  15.008  23.801  0.00  0.00    +0.000 A 
ATOM     24  N   UNL     1      -5.323  15.018  22.774  0.00  0.00    +0.000 NA
ENDBRANCH  19  20
BRANCH  18  25
ATOM     25  C   UNL     1      -6.657  13.574  19.372  0.00  0.00    +0.000 C 
ATOM     26  O   UNL     1      -7.509  12.704  19.207  0.00  0.00    +0.000 OA
ENDBRANCH  18  25
BRANCH  11  27
ATOM     27  O   UNL     1       3.054   7.163  19.243  0.00  0.00    +0.000 OA
BRANCH  27  28
ATOM     28  C   UNL     1       2.969   6.026  18.505  0.00  0.00    +0.000 C 
ATOM     29  O   UNL     1       3.359   5.896  17.354  0.00  0.00    +0.000 OA
BRANCH  28  30
ATOM     30  C   UNL     1       2.345   4.910  19.273  0.00  0.00    +0.000 A 
ATOM     31  C   UNL     1       2.665   4.792  20.636  0.00  0.00    +0.000 A 
ATOM     32  C   UNL     1       2.106   3.777  21.414  0.00  0.00    +0.000 A 
ATOM     33  C   UNL     1       1.214   2.873  20.836  0.00  0.00    +0.000 A 
ATOM     34  C   UNL     1       0.894   2.980  19.483  0.00  0.00    +0.000 A 
ATOM     35  C   UNL     1       1.457   3.990  18.701  0.00  0.00    +0.000 A 
ENDBRANCH  28  30
ENDBRANCH  27  28
ENDBRANCH  11  27
TORSDOF 5
ENDMDL
MODEL 4
REMARK VINA RESULT:      -8.0      1.419      2.070
REMARK  Name = 
REMARK  7 active torsions:
REMARK  status: ('A' for Active; 'I' for Inactive)
REMARK    1  A    between atoms: C_1  and  C_2
REMARK    2  A    between atoms: C_11  and  O_12
REMARK    3  A    between atoms: O_12  and  C_13
REMARK    4  A    between atoms: C_13  and  C_15
REMARK    5  A    between atoms: C_23  and  C_24
REMARK    6  A    between atoms: C_27  and  C_28
REMARK    7  A    between atoms: C_30  and  N_31
REMARK                            x       y       z     vdW  Elec       q    Type
REMARK                         _______ _______ _______ _____ _____    ______ ____
ROOT
ATOM      1  C   UNL     1      -3.243  14.639  20.702  0.00  0.00    +0.000 C 
ATOM      2  C   UNL     1      -3.969  13.307  21.007  0.00  0.00    +0.000 C 
ATOM      3  C   UNL     1      -3.281  12.526  22.139  0.00  0.00    +0.000 C 
ATOM      4  C   UNL     1      -1.871  12.060  21.738  0.00  0.00    +0.000 C 
ATOM      5  C   UNL     1      -1.816  11.274  20.402  0.00  0.00    +0.000 C 
ATOM      6  C   UNL     1      -2.613  11.976  19.261  0.00  0.00    +0.000 C 
ATOM      7  C   UNL     1      -2.694  11.054  18.033  0.00  0.00    +0.000 C 
ATOM      8  C   UNL     1      -1.417  10.323  17.736  0.00  0.00    +0.000 C 
ATOM      9  C   UNL     1      -0.362  10.236  18.566  0.00  0.00    +0.000 C 
ATOM     10  C   UNL     1       0.889   9.481  18.149  0.00  0.00    +0.000 C 
ATOM     11  C   UNL     1       1.349   8.467  19.207  0.00  0.00    +0.000 C 
ATOM     12  C   UNL     1       1.496   9.149  20.567  0.00  0.00    +0.000 C 
ATOM     13  C   UNL     1       0.194   9.832  20.986  0.00  0.00    +0.000 C 
ATOM     14  C   UNL     1      -0.353  10.871  19.961  0.00  0.00    +0.000 C 
ATOM     15  C   UNL     1       0.584  12.101  19.919  0.00  0.00    +0.000 C 
ATOM     16  C   UNL     1      -4.011  12.330  19.798  0.00  0.00    +0.000 C 
ATOM     17  C   UNL     1      -5.090  12.902  18.883  0.00  0.00    +0.000 C 
ATOM     18  C   UNL     1      -6.057  13.383  19.935  0.00  0.00    +0.000 C 
ATOM     19  C   UNL     1      -5.465  13.579  21.135  0.00  0.00    +0.000 C 
ENDROOT
BRANCH  19  20
ATOM     20  N   UNL     1      -6.099  13.920  22.338  0.00  0.00    +0.000 N 
ATOM     21  C   UNL     1      -6.729  13.049  23.218  0.00  0.00    +0.000 A 
ATOM     22  C   UNL     1      -7.238  13.777  24.263  0.00  0.00    +0.000 A 
ATOM     23  C   UNL     1      -6.910  15.095  23.951  0.00  0.00    +0.000 A 
ATOM     24  N   UNL     1      -6.187  15.190  22.838  0.00  0.00    +0.000 NA
ENDBRANCH  19  20
BRANCH  18  25
ATOM     25  C   UNL     1      -7.474  13.620  19.608  0.00  0.00    +0.000 C 
ATOM     26  O   UNL     1      -7.912  14.755  19.427  0.00  0.00    +0.000 OA
ENDBRANCH  18  25
BRANCH  11  27
ATOM     27  O   UNL     1       2.635   7.906  18.846  0.00  0.00    +0.000 OA
BRANCH  27  28
ATOM     28  C   UNL     1       2.714   6.552  18.906  0.00  0.00    +0.000 C 
ATOM     29  O   UNL     1       2.135   5.841  19.715  0.00  0.00    +0.000 OA
BRANCH  28  30
ATOM     30  C   UNL     1       3.599   5.999  17.840  0.00  0.00    +0.000 A 
ATOM     31  C   UNL     1       4.323   6.909  17.052  0.00  0.00    +0.000 A 
ATOM     32  C   UNL     1       5.177   6.456  16.045  0.00  0.00    +0.000 A 
ATOM     33  C   UNL     1       5.321   5.087  15.822  0.00  0.00    +0.000 A 
ATOM     34  C   UNL     1       4.603   4.177  16.596  0.00  0.00    +0.000 A 
ATOM     35  C   UNL     1       3.743   4.626  17.600  0.00  0.00    +0.000 A 
ENDBRANCH  28  30
ENDBRANCH  27  28
ENDBRANCH  11  27
TORSDOF 5
ENDMDL
MODEL 5
REMARK VINA RESULT:      -8.0      2.733      3.968
REMARK  Name = 
REMARK  7 active torsions:
REMARK  status: ('A' for Active; 'I' for Inactive)
REMARK    1  A    between atoms: C_1  and  C_2
REMARK    2  A    between atoms: C_11  and  O_12
REMARK    3  A    between atoms: O_12  and  C_13
REMARK    4  A    between atoms: C_13  and  C_15
REMARK    5  A    between atoms: C_23  and  C_24
REMARK    6  A    between atoms: C_27  and  C_28
REMARK    7  A    between atoms: C_30  and  N_31
REMARK                            x       y       z     vdW  Elec       q    Type
REMARK                         _______ _______ _______ _____ _____    ______ ____
ROOT
ATOM      1  C   UNL     1      -2.641  13.196  20.370  0.00  0.00    +0.000 C 
ATOM      2  C   UNL     1      -1.242  13.630  20.868  0.00  0.00    +0.000 C 
ATOM      3  C   UNL     1      -0.253  13.813  19.706  0.00  0.00    +0.000 C 
ATOM      4  C   UNL     1       0.040  12.486  18.987  0.00  0.00    +0.000 C 
ATOM      5  C   UNL     1       0.488  11.338  19.927  0.00  0.00    +0.000 C 
ATOM      6  C   UNL     1      -0.421  11.204  21.186  0.00  0.00    +0.000 C 
ATOM      7  C   UNL     1       0.191  10.196  22.172  0.00  0.00    +0.000 C 
ATOM      8  C   UNL     1       0.771   8.977  21.516  0.00  0.00    +0.000 C 
ATOM      9  C   UNL     1       0.999   8.842  20.197  0.00  0.00    +0.000 C 
ATOM     10  C   UNL     1       1.575   7.550  19.641  0.00  0.00    +0.000 C 
ATOM     11  C   UNL     1       2.785   7.787  18.725  0.00  0.00    +0.000 C 
ATOM     12  C   UNL     1       2.433   8.795  17.632  0.00  0.00    +0.000 C 
ATOM     13  C   UNL     1       1.929  10.108  18.232  0.00  0.00    +0.000 C 
ATOM     14  C   UNL     1       0.707   9.958  19.188  0.00  0.00    +0.000 C 
ATOM     15  C   UNL     1      -0.542   9.549  18.373  0.00  0.00    +0.000 C 
ATOM     16  C   UNL     1      -0.573  12.598  21.820  0.00  0.00    +0.000 C 
ATOM     17  C   UNL     1      -1.290  12.788  23.153  0.00  0.00    +0.000 C 
ATOM     18  C   UNL     1      -1.466  14.285  23.111  0.00  0.00    +0.000 C 
ATOM     19  C   UNL     1      -1.405  14.782  21.855  0.00  0.00    +0.000 C 
ENDROOT
BRANCH  19  20
ATOM     20  N   UNL     1      -1.426  16.133  21.485  0.00  0.00    +0.000 N 
ATOM     21  C   UNL     1      -2.525  16.850  21.028  0.00  0.00    +0.000 A 
ATOM     22  C   UNL     1      -2.126  18.133  20.756  0.00  0.00    +0.000 A 
ATOM     23  C   UNL     1      -0.761  18.133  21.041  0.00  0.00    +0.000 A 
ATOM     24  N   UNL     1      -0.343  16.967  21.525  0.00  0.00    +0.000 NA
ENDBRANCH  19  20
BRANCH  18  25
ATOM     25  C   UNL     1      -1.705  15.053  24.347  0.00  0.00    +0.000 C 
ATOM     26  O   UNL     1      -2.747  14.933  24.988  0.00  0.00    +0.000 OA
ENDBRANCH  18  25
BRANCH  11  27
ATOM     27  O   UNL     1       3.184   6.551  18.083  0.00  0.00    +0.000 OA
BRANCH  27  28
ATOM     28  C   UNL     1       3.697   5.606  18.912  0.00  0.00    +0.000 C 
ATOM     29  O   UNL     1       4.845   5.575  19.331  0.00  0.00    +0.000 OA
BRANCH  28  30
ATOM     30  C   UNL     1       2.678   4.581  19.284  0.00  0.00    +0.000 A 
ATOM     31  C   UNL     1       1.979   3.945  18.244  0.00  0.00    +0.000 A 
ATOM     32  C   UNL     1       1.021   2.969  18.524  0.00  0.00    +0.000 A 
ATOM     33  C   UNL     1       0.760   2.614  19.847  0.00  0.00    +0.000 A 
ATOM     34  C   UNL     1       1.445   3.243  20.885  0.00  0.00    +0.000 A 
ATOM     35  C   UNL     1       2.400   4.225  20.610  0.00  0.00    +0.000 A 
ENDBRANCH  28  30
ENDBRANCH  27  28
ENDBRANCH  11  27
TORSDOF 5
ENDMDL
MODEL 6
REMARK VINA RESULT:      -7.9      3.912      5.817
REMARK  Name = 
REMARK  7 active torsions:
REMARK  status: ('A' for Active; 'I' for Inactive)
REMARK    1  A    between atoms: C_1  and  C_2
REMARK    2  A    between atoms: C_11  and  O_12
REMARK    3  A    between atoms: O_12  and  C_13
REMARK    4  A    between atoms: C_13  and  C_15
REMARK    5  A    between atoms: C_23  and  C_24
REMARK    6  A    between atoms: C_27  and  C_28
REMARK    7  A    between atoms: C_30  and  N_31
REMARK                            x       y       z     vdW  Elec       q    Type
REMARK                         _______ _______ _______ _____ _____    ______ ____
ROOT
ATOM      1  C   UNL     1      -0.981  12.368  18.795  0.00  0.00    +0.000 C 
ATOM      2  C   UNL     1       0.364  12.654  19.505  0.00  0.00    +0.000 C 
ATOM      3  C   UNL     1       1.557  12.519  18.545  0.00  0.00    +0.000 C 
ATOM      4  C   UNL     1       1.735  11.074  18.051  0.00  0.00    +0.000 C 
ATOM      5  C   UNL     1       1.806  10.017  19.183  0.00  0.00    +0.000 C 
ATOM      6  C   UNL     1       0.681  10.202  20.248  0.00  0.00    +0.000 C 
ATOM      7  C   UNL     1       0.928   9.265  21.441  0.00  0.00    +0.000 C 
ATOM      8  C   UNL     1       1.392   7.892  21.051  0.00  0.00    +0.000 C 
ATOM      9  C   UNL     1       1.819   7.537  19.825  0.00  0.00    +0.000 C 
ATOM     10  C   UNL     1       2.249   6.107  19.542  0.00  0.00    +0.000 C 
ATOM     11  C   UNL     1       3.623   6.027  18.859  0.00  0.00    +0.000 C 
ATOM     12  C   UNL     1       3.647   6.910  17.611  0.00  0.00    +0.000 C 
ATOM     13  C   UNL     1       3.283   8.356  17.951  0.00  0.00    +0.000 C 
ATOM     14  C   UNL     1       1.906   8.529  18.661  0.00  0.00    +0.000 C 
ATOM     15  C   UNL     1       0.766   8.200  17.668  0.00  0.00    +0.000 C 
ATOM     16  C   UNL     1       0.667  11.679  20.679  0.00  0.00    +0.000 C 
ATOM     17  C   UNL     1      -0.227  12.163  21.817  0.00  0.00    +0.000 C 
ATOM     18  C   UNL     1      -0.130  13.648  21.574  0.00  0.00    +0.000 C 
ATOM     19  C   UNL     1       0.235  13.946  20.306  0.00  0.00    +0.000 C 
ENDROOT
BRANCH  19  20
ATOM     20  N   UNL     1       0.515  15.218  19.790  0.00  0.00    +0.000 N 
ATOM     21  C   UNL     1      -0.335  16.005  19.021  0.00  0.00    +0.000 A 
ATOM     22  C   UNL     1       0.319  17.167  18.701  0.00  0.00    +0.000 A 
ATOM     23  C   UNL     1       1.578  17.021  19.281  0.00  0.00    +0.000 A 
ATOM     24  N   UNL     1       1.690  15.892  19.976  0.00  0.00    +0.000 NA
ENDBRANCH  19  20
BRANCH  18  25
ATOM     25  C   UNL     1      -0.443  14.612  22.645  0.00  0.00    +0.000 C 
ATOM     26  O   UNL     1       0.436  15.279  23.188  0.00  0.00    +0.000 OA
ENDBRANCH  18  25
BRANCH  11  27
ATOM     27  O   UNL     1       3.906   4.666  18.449  0.00  0.00    +0.000 OA
BRANCH  27  28
ATOM     28  C   UNL     1       5.222   4.333  18.417  0.00  0.00    +0.000 C 
ATOM     29  O   UNL     1       5.890   3.983  19.379  0.00  0.00    +0.000 OA
BRANCH  28  30
ATOM     30  C   UNL     1       5.786   4.427  17.039  0.00  0.00    +0.000 A 
ATOM     31  C   UNL     1       4.979   4.000  15.970  0.00  0.00    +0.000 A 
ATOM     32  C   UNL     1       5.443   4.072  14.656  0.00  0.00    +0.000 A 
ATOM     33  C   UNL     1       6.716   4.579  14.397  0.00  0.00    +0.000 A 
ATOM     34  C   UNL     1       7.525   5.001  15.451  0.00  0.00    +0.000 A 
ATOM     35  C   UNL     1       7.067   4.925  16.768  0.00  0.00    +0.000 A 
ENDBRANCH  28  30
ENDBRANCH  27  28
ENDBRANCH  11  27
TORSDOF 5
ENDMDL
MODEL 7
REMARK VINA RESULT:      -7.9      3.305      4.828
REMARK  Name = 
REMARK  7 active torsions:
REMARK  status: ('A' for Active; 'I' for Inactive)
REMARK    1  A    between atoms: C_1  and  C_2
REMARK    2  A    between atoms: C_11  and  O_12
REMARK    3  A    between atoms: O_12  and  C_13
REMARK    4  A    between atoms: C_13  and  C_15
REMARK    5  A    between atoms: C_23  and  C_24
REMARK    6  A    between atoms: C_27  and  C_28
REMARK    7  A    between atoms: C_30  and  N_31
REMARK                            x       y       z     vdW  Elec       q    Type
REMARK                         _______ _______ _______ _____ _____    ______ ____
ROOT
ATOM      1  C   UNL     1      -2.396  13.445  20.379  0.00  0.00    +0.000 C 
ATOM      2  C   UNL     1      -0.986  13.767  20.930  0.00  0.00    +0.000 C 
ATOM      3  C   UNL     1       0.047  13.921  19.802  0.00  0.00    +0.000 C 
ATOM      4  C   UNL     1       0.272  12.601  19.047  0.00  0.00    +0.000 C 
ATOM      5  C   UNL     1       0.615  11.395  19.960  0.00  0.00    +0.000 C 
ATOM      6  C   UNL     1      -0.338  11.283  21.188  0.00  0.00    +0.000 C 
ATOM      7  C   UNL     1       0.177  10.205  22.156  0.00  0.00    +0.000 C 
ATOM      8  C   UNL     1       0.694   8.971  21.474  0.00  0.00    +0.000 C 
ATOM      9  C   UNL     1       0.951   8.863  20.158  0.00  0.00    +0.000 C 
ATOM     10  C   UNL     1       1.457   7.554  19.575  0.00  0.00    +0.000 C 
ATOM     11  C   UNL     1       2.706   7.738  18.701  0.00  0.00    +0.000 C 
ATOM     12  C   UNL     1       2.454   8.802  17.633  0.00  0.00    +0.000 C 
ATOM     13  C   UNL     1       2.021  10.127  18.264  0.00  0.00    +0.000 C 
ATOM     14  C   UNL     1       0.764  10.028  19.181  0.00  0.00    +0.000 C 
ATOM     15  C   UNL     1      -0.485   9.731  18.318  0.00  0.00    +0.000 C 
ATOM     16  C   UNL     1      -0.416  12.663  21.864  0.00  0.00    +0.000 C 
ATOM     17  C   UNL     1      -1.158  12.858  23.183  0.00  0.00    +0.000 C 
ATOM     18  C   UNL     1      -1.233  14.364  23.187  0.00  0.00    +0.000 C 
ATOM     19  C   UNL     1      -1.102  14.895  21.951  0.00  0.00    +0.000 C 
ENDROOT
BRANCH  19  20
ATOM     20  N   UNL     1      -1.022  16.257  21.626  0.00  0.00    +0.000 N 
ATOM     21  C   UNL     1      -2.053  17.056  21.147  0.00  0.00    +0.000 A 
ATOM     22  C   UNL     1      -1.563  18.319  20.935  0.00  0.00    +0.000 A 
ATOM     23  C   UNL     1      -0.215  18.223  21.279  0.00  0.00    +0.000 A 
ATOM     24  N   UNL     1       0.108  17.018  21.742  0.00  0.00    +0.000 NA
ENDBRANCH  19  20
BRANCH  18  25
ATOM     25  C   UNL     1      -1.457  15.107  24.441  0.00  0.00    +0.000 C 
ATOM     26  O   UNL     1      -0.523  15.430  25.173  0.00  0.00    +0.000 OA
ENDBRANCH  18  25
BRANCH  11  27
ATOM     27  O   UNL     1       3.041   6.500  18.029  0.00  0.00    +0.000 OA
BRANCH  27  28
ATOM     28  C   UNL     1       4.002   5.754  18.632  0.00  0.00    +0.000 C 
ATOM     29  O   UNL     1       3.984   5.380  19.797  0.00  0.00    +0.000 OA
BRANCH  28  30
ATOM     30  C   UNL     1       5.112   5.412  17.696  0.00  0.00    +0.000 A 
ATOM     31  C   UNL     1       4.903   5.633  16.324  0.00  0.00    +0.000 A 
ATOM     32  C   UNL     1       5.905   5.345  15.396  0.00  0.00    +0.000 A 
ATOM     33  C   UNL     1       7.129   4.841  15.833  0.00  0.00    +0.000 A 
ATOM     34  C   UNL     1       7.344   4.615  17.192  0.00  0.00    +0.000 A 
ATOM     35  C   UNL     1       6.342   4.896  18.123  0.00  0.00    +0.000 A 
ENDBRANCH  28  30
ENDBRANCH  27  28
ENDBRANCH  11  27
TORSDOF 5
ENDMDL
MODEL 8
REMARK VINA RESULT:      -7.9      1.522      2.204
REMARK  Name = 
REMARK  7 active torsions:
REMARK  status: ('A' for Active; 'I' for Inactive)
REMARK    1  A    between atoms: C_1  and  C_2
REMARK    2  A    between atoms: C_11  and  O_12
REMARK    3  A    between atoms: O_12  and  C_13
REMARK    4  A    between atoms: C_13  and  C_15
REMARK    5  A    between atoms: C_23  and  C_24
REMARK    6  A    between atoms: C_27  and  C_28
REMARK    7  A    between atoms: C_30  and  N_31
REMARK                            x       y       z     vdW  Elec       q    Type
REMARK                         _______ _______ _______ _____ _____    ______ ____
ROOT
ATOM      1  C   UNL     1      -2.803  14.421  20.775  0.00  0.00    +0.000 C 
ATOM      2  C   UNL     1      -3.605  13.116  20.996  0.00  0.00    +0.000 C 
ATOM      3  C   UNL     1      -3.026  12.277  22.147  0.00  0.00    +0.000 C 
ATOM      4  C   UNL     1      -1.615  11.758  21.825  0.00  0.00    +0.000 C 
ATOM      5  C   UNL     1      -1.506  11.004  20.474  0.00  0.00    +0.000 C 
ATOM      6  C   UNL     1      -2.196  11.769  19.304  0.00  0.00    +0.000 C 
ATOM      7  C   UNL     1      -2.236  10.883  18.048  0.00  0.00    +0.000 C 
ATOM      8  C   UNL     1      -0.976  10.102  17.813  0.00  0.00    +0.000 C 
ATOM      9  C   UNL     1       0.018   9.948  18.707  0.00  0.00    +0.000 C 
ATOM     10  C   UNL     1       1.260   9.148  18.350  0.00  0.00    +0.000 C 
ATOM     11  C   UNL     1       1.606   8.088  19.406  0.00  0.00    +0.000 C 
ATOM     12  C   UNL     1       1.693   8.729  20.791  0.00  0.00    +0.000 C 
ATOM     13  C   UNL     1       0.397   9.459  21.145  0.00  0.00    +0.000 C 
ATOM     14  C   UNL     1      -0.037  10.547  20.116  0.00  0.00    +0.000 C 
ATOM     15  C   UNL     1       0.953  11.734  20.168  0.00  0.00    +0.000 C 
ATOM     16  C   UNL     1      -3.610  12.172  19.760  0.00  0.00    +0.000 C 
ATOM     17  C   UNL     1      -4.601  12.814  18.794  0.00  0.00    +0.000 C 
ATOM     18  C   UNL     1      -5.612  13.312  19.795  0.00  0.00    +0.000 C 
ATOM     19  C   UNL     1      -5.092  13.451  21.036  0.00  0.00    +0.000 C 
ENDROOT
BRANCH  19  20
ATOM     20  N   UNL     1      -5.788  13.790  22.204  0.00  0.00    +0.000 N 
ATOM     21  C   UNL     1      -5.911  15.060  22.756  0.00  0.00    +0.000 A 
ATOM     22  C   UNL     1      -6.651  14.966  23.906  0.00  0.00    +0.000 A 
ATOM     23  C   UNL     1      -6.930  13.605  24.021  0.00  0.00    +0.000 A 
ATOM     24  N   UNL     1      -6.469  12.902  22.989  0.00  0.00    +0.000 NA
ENDBRANCH  19  20
BRANCH  18  25
ATOM     25  C   UNL     1      -6.994  13.620  19.385  0.00  0.00    +0.000 C 
ATOM     26  O   UNL     1      -7.610  12.898  18.603  0.00  0.00    +0.000 OA
ENDBRANCH  18  25
BRANCH  11  27
ATOM     27  O   UNL     1       2.887   7.479  19.113  0.00  0.00    +0.000 OA
BRANCH  27  28
ATOM     28  C   UNL     1       2.843   6.158  18.801  0.00  0.00    +0.000 C 
ATOM     29  O   UNL     1       2.146   5.320  19.354  0.00  0.00    +0.000 OA
BRANCH  28  30
ATOM     30  C   UNL     1       3.754   5.824  17.667  0.00  0.00    +0.000 A 
ATOM     31  C   UNL     1       3.927   4.468  17.343  0.00  0.00    +0.000 A 
ATOM     32  C   UNL     1       4.756   4.089  16.286  0.00  0.00    +0.000 A 
ATOM     33  C   UNL     1       5.414   5.064  15.538  0.00  0.00    +0.000 A 
ATOM     34  C   UNL     1       5.252   6.412  15.855  0.00  0.00    +0.000 A 
ATOM     35  C   UNL     1       4.428   6.795  16.916  0.00  0.00    +0.000 A 
ENDBRANCH  28  30
ENDBRANCH  27  28
ENDBRANCH  11  27
TORSDOF 5
ENDMDL
MODEL 9
REMARK VINA RESULT:      -7.8      3.830      6.306
REMARK  Name = 
REMARK  7 active torsions:
REMARK  status: ('A' for Active; 'I' for Inactive)
REMARK    1  A    between atoms: C_1  and  C_2
REMARK    2  A    between atoms: C_11  and  O_12
REMARK    3  A    between atoms: O_12  and  C_13
REMARK    4  A    between atoms: C_13  and  C_15
REMARK    5  A    between atoms: C_23  and  C_24
REMARK    6  A    between atoms: C_27  and  C_28
REMARK    7  A    between atoms: C_30  and  N_31
REMARK                            x       y       z     vdW  Elec       q    Type
REMARK                         _______ _______ _______ _____ _____    ______ ____
ROOT
ATOM      1  C   UNL     1      -1.244   9.816  19.063  0.00  0.00    +0.000 C 
ATOM      2  C   UNL     1      -0.019  10.305  19.873  0.00  0.00    +0.000 C 
ATOM      3  C   UNL     1       1.138  10.734  18.957  0.00  0.00    +0.000 C 
ATOM      4  C   UNL     1       1.709   9.549  18.160  0.00  0.00    +0.000 C 
ATOM      5  C   UNL     1       2.108   8.330  19.031  0.00  0.00    +0.000 C 
ATOM      6  C   UNL     1       1.005   7.943  20.063  0.00  0.00    +0.000 C 
ATOM      7  C   UNL     1       1.539   6.871  21.027  0.00  0.00    +0.000 C 
ATOM      8  C   UNL     1       2.367   5.811  20.360  0.00  0.00    +0.000 C 
ATOM      9  C   UNL     1       2.846   5.878  19.104  0.00  0.00    +0.000 C 
ATOM     10  C   UNL     1       3.660   4.731  18.527  0.00  0.00    +0.000 C 
ATOM     11  C   UNL     1       4.981   5.200  17.900  0.00  0.00    +0.000 C 
ATOM     12  C   UNL     1       4.720   6.311  16.883  0.00  0.00    +0.000 C 
ATOM     13  C   UNL     1       3.967   7.479  17.521  0.00  0.00    +0.000 C 
ATOM     14  C   UNL     1       2.616   7.089  18.195  0.00  0.00    +0.000 C 
ATOM     15  C   UNL     1       1.593   6.682  17.108  0.00  0.00    +0.000 C 
ATOM     16  C   UNL     1       0.579   9.219  20.812  0.00  0.00    +0.000 C 
ATOM     17  C   UNL     1      -0.387   9.160  21.992  0.00  0.00    +0.000 C 
ATOM     18  C   UNL     1      -0.724  10.626  22.090  0.00  0.00    +0.000 C 
ATOM     19  C   UNL     1      -0.492  11.292  20.936  0.00  0.00    +0.000 C 
ENDROOT
BRANCH  19  20
ATOM     20  N   UNL     1      -0.601  12.674  20.728  0.00  0.00    +0.000 N 
ATOM     21  C   UNL     1      -1.606  13.329  20.026  0.00  0.00    +0.000 A 
ATOM     22  C   UNL     1      -1.339  14.674  20.036  0.00  0.00    +0.000 A 
ATOM     23  C   UNL     1      -0.139  14.778  20.739  0.00  0.00    +0.000 A 
ATOM     24  N   UNL     1       0.283  13.604  21.201  0.00  0.00    +0.000 NA
ENDBRANCH  19  20
BRANCH  18  25
ATOM     25  C   UNL     1      -1.272  11.194  23.335  0.00  0.00    +0.000 C 
ATOM     26  O   UNL     1      -2.386  11.715  23.369  0.00  0.00    +0.000 OA
ENDBRANCH  18  25
BRANCH  11  27
ATOM     27  O   UNL     1       5.631   4.105  17.210  0.00  0.00    +0.000 OA
BRANCH  27  28
ATOM     28  C   UNL     1       6.825   4.407  16.638  0.00  0.00    +0.000 C 
ATOM     29  O   UNL     1       7.854   4.677  17.242  0.00  0.00    +0.000 OA
BRANCH  28  30
ATOM     30  C   UNL     1       6.757   4.362  15.148  0.00  0.00    +0.000 A 
ATOM     31  C   UNL     1       7.681   5.136  14.426  0.00  0.00    +0.000 A 
ATOM     32  C   UNL     1       7.677   5.129  13.030  0.00  0.00    +0.000 A 
ATOM     33  C   UNL     1       6.753   4.342  12.344  0.00  0.00    +0.000 A 
ATOM     34  C   UNL     1       5.830   3.575  13.052  0.00  0.00    +0.000 A 
ATOM     35  C   UNL     1       5.826   3.584  14.449  0.00  0.00    +0.000 A 
ENDBRANCH  28  30
ENDBRANCH  27  28
ENDBRANCH  11  27
TORSDOF 5
ENDMDL
