MODEL 1
REMARK VINA RESULT:      -9.1      0.000      0.000
REMARK  Name = 
REMARK  6 active torsions:
REMARK  status: ('A' for Active; 'I' for Inactive)
REMARK    1  A    between atoms: C_1  and  O_2
REMARK    2  A    between atoms: O_2  and  C_3
REMARK    3  A    between atoms: C_6  and  N_7
REMARK    4  A    between atoms: C_8  and  C_9
REMARK    5  A    between atoms: C_10  and  C_11
REMARK    6  A    between atoms: C_14  and  N_15
REMARK                            x       y       z     vdW  Elec       q    Type
REMARK                         _______ _______ _______ _____ _____    ______ ____
ROOT
ATOM      1  N   UNL     1       4.320   3.934  17.879  0.00  0.00    +0.000 N 
ATOM      2  C   UNL     1       4.452   4.518  19.127  0.00  0.00    +0.000 A 
ATOM      3  N   UNL     1       4.359   3.802  20.206  0.00  0.00    +0.000 NA
ATOM      4  C   UNL     1       3.157   3.069  20.208  0.00  0.00    +0.000 A 
ATOM      5  C   UNL     1       2.515   2.856  21.424  0.00  0.00    +0.000 A 
ATOM      6  C   UNL     1       1.138   2.639  21.440  0.00  0.00    +0.000 A 
ATOM      7  C   UNL     1       0.417   2.604  20.241  0.00  0.00    +0.000 A 
ATOM      8  C   UNL     1       1.081   2.676  19.015  0.00  0.00    +0.000 A 
ATOM      9  C   UNL     1       2.458   2.879  19.009  0.00  0.00    +0.000 A 
ATOM     10  C   UNL     1       3.218   3.091  17.749  0.00  0.00    +0.000 A 
ATOM     11  O   UNL     1       2.804   2.547  16.734  0.00  0.00    +0.000 OA
ENDROOT
BRANCH   1  15
ATOM     12  C   UNL     1       6.989   5.068  14.723  0.00  0.00    +0.000 A 
ATOM     13  C   UNL     1       7.466   4.838  16.012  0.00  0.00    +0.000 A 
ATOM     14  C   UNL     1       6.606   4.442  17.045  0.00  0.00    +0.000 A 
ATOM     15  C   UNL     1       5.240   4.259  16.821  0.00  0.00    +0.000 A 
ATOM     16  C   UNL     1       4.777   4.446  15.500  0.00  0.00    +0.000 A 
ATOM     17  C   UNL     1       5.639   4.863  14.466  0.00  0.00    +0.000 A 
BRANCH  12  19
ATOM     18  C   UNL     1       7.764   5.188  12.465  0.00  0.00    +0.000 C 
ATOM     19  O   UNL     1       7.941   5.493  13.841  0.00  0.00    +0.000 OA
ENDBRANCH  12  19
ENDBRANCH   1  15
BRANCH   2  20
ATOM     20  C   UNL     1       3.955   5.936  19.095  0.00  0.00    +0.000 C 
ATOM     21  C   UNL     1       2.780   6.274  19.659  0.00  0.00    +0.000 C 
BRANCH  21  22
ATOM     22  C   UNL     1       2.233   7.616  19.488  0.00  0.00    +0.000 A 
ATOM     23  C   UNL     1       1.519   8.289  20.492  0.00  0.00    +0.000 A 
ATOM     24  C   UNL     1       0.837   9.472  20.194  0.00  0.00    +0.000 A 
ATOM     25  C   UNL     1       0.892   9.989  18.892  0.00  0.00    +0.000 A 
ATOM     26  C   UNL     1       1.706   9.390  17.925  0.00  0.00    +0.000 A 
ATOM     27  C   UNL     1       2.387   8.213  18.234  0.00  0.00    +0.000 A 
BRANCH  25  28
ATOM     28  N   UNL     1       0.050  11.130  18.517  0.00  0.00    +0.000 N 
ATOM     29  O   UNL     1      -1.117  10.896  18.171  0.00  0.00    +0.000 OA
ATOM     30  O   UNL     1       0.565  12.257  18.544  0.00  0.00    +0.000 OA
ENDBRANCH  25  28
ENDBRANCH  21  22
ENDBRANCH   2  20
TORSDOF 5
ENDMDL
MODEL 2
REMARK VINA RESULT:      -9.0      0.463      1.112
REMARK  Name = 
REMARK  6 active torsions:
REMARK  status: ('A' for Active; 'I' for Inactive)
REMARK    1  A    between atoms: C_1  and  O_2
REMARK    2  A    between atoms: O_2  and  C_3
REMARK    3  A    between atoms: C_6  and  N_7
REMARK    4  A    between atoms: C_8  and  C_9
REMARK    5  A    between atoms: C_10  and  C_11
REMARK    6  A    between atoms: C_14  and  N_15
REMARK                            x       y       z     vdW  Elec       q    Type
REMARK                         _______ _______ _______ _____ _____    ______ ____
ROOT
ATOM      1  N   UNL     1       4.352   3.996  17.840  0.00  0.00    +0.000 N 
ATOM      2  C   UNL     1       4.390   4.716  19.022  0.00  0.00    +0.000 A 
ATOM      3  N   UNL     1       4.314   4.111  20.168  0.00  0.00    +0.000 NA
ATOM      4  C   UNL     1       3.176   3.283  20.214  0.00  0.00    +0.000 A 
ATOM      5  C   UNL     1       2.508   3.145  21.426  0.00  0.00    +0.000 A 
ATOM      6  C   UNL     1       1.154   2.815  21.425  0.00  0.00    +0.000 A 
ATOM      7  C   UNL     1       0.483   2.595  20.217  0.00  0.00    +0.000 A 
ATOM      8  C   UNL     1       1.185   2.595  19.010  0.00  0.00    +0.000 A 
ATOM      9  C   UNL     1       2.541   2.911  19.022  0.00  0.00    +0.000 A 
ATOM     10  C   UNL     1       3.327   3.054  17.769  0.00  0.00    +0.000 A 
ATOM     11  O   UNL     1       2.998   2.374  16.806  0.00  0.00    +0.000 OA
ENDROOT
BRANCH   1  15
ATOM     12  C   UNL     1       7.054   5.025  14.676  0.00  0.00    +0.000 A 
ATOM     13  C   UNL     1       7.521   4.814  15.971  0.00  0.00    +0.000 A 
ATOM     14  C   UNL     1       6.650   4.453  17.008  0.00  0.00    +0.000 A 
ATOM     15  C   UNL     1       5.282   4.286  16.780  0.00  0.00    +0.000 A 
ATOM     16  C   UNL     1       4.828   4.451  15.454  0.00  0.00    +0.000 A 
ATOM     17  C   UNL     1       5.702   4.834  14.415  0.00  0.00    +0.000 A 
BRANCH  12  19
ATOM     18  C   UNL     1       7.774   5.218  12.404  0.00  0.00    +0.000 C 
ATOM     19  O   UNL     1       8.016   5.417  13.790  0.00  0.00    +0.000 OA
ENDBRANCH  12  19
ENDBRANCH   1  15
BRANCH   2  20
ATOM     20  C   UNL     1       3.781   6.076  18.824  0.00  0.00    +0.000 C 
ATOM     21  C   UNL     1       2.768   6.504  19.601  0.00  0.00    +0.000 C 
BRANCH  21  22
ATOM     22  C   UNL     1       2.083   7.757  19.302  0.00  0.00    +0.000 A 
ATOM     23  C   UNL     1       2.162   8.399  18.057  0.00  0.00    +0.000 A 
ATOM     24  C   UNL     1       1.667   9.698  17.905  0.00  0.00    +0.000 A 
ATOM     25  C   UNL     1       1.071  10.340  18.999  0.00  0.00    +0.000 A 
ATOM     26  C   UNL     1       0.876   9.655  20.202  0.00  0.00    +0.000 A 
ATOM     27  C   UNL     1       1.369   8.358  20.343  0.00  0.00    +0.000 A 
BRANCH  25  28
ATOM     28  N   UNL     1       0.701  11.756  18.910  0.00  0.00    +0.000 N 
ATOM     29  O   UNL     1       1.541  12.544  18.453  0.00  0.00    +0.000 OA
ATOM     30  O   UNL     1      -0.423  12.083  19.320  0.00  0.00    +0.000 OA
ENDBRANCH  25  28
ENDBRANCH  21  22
ENDBRANCH   2  20
TORSDOF 5
ENDMDL
MODEL 3
REMARK VINA RESULT:      -9.0      0.302      1.070
REMARK  Name = 
REMARK  6 active torsions:
REMARK  status: ('A' for Active; 'I' for Inactive)
REMARK    1  A    between atoms: C_1  and  O_2
REMARK    2  A    between atoms: O_2  and  C_3
REMARK    3  A    between atoms: C_6  and  N_7
REMARK    4  A    between atoms: C_8  and  C_9
REMARK    5  A    between atoms: C_10  and  C_11
REMARK    6  A    between atoms: C_14  and  N_15
REMARK                            x       y       z     vdW  Elec       q    Type
REMARK                         _______ _______ _______ _____ _____    ______ ____
ROOT
ATOM      1  N   UNL     1       4.272   4.036  17.761  0.00  0.00    +0.000 N 
ATOM      2  C   UNL     1       4.434   4.629  19.002  0.00  0.00    +0.000 A 
ATOM      3  N   UNL     1       4.406   3.914  20.086  0.00  0.00    +0.000 NA
ATOM      4  C   UNL     1       3.229   3.143  20.137  0.00  0.00    +0.000 A 
ATOM      5  C   UNL     1       2.642   2.915  21.377  0.00  0.00    +0.000 A 
ATOM      6  C   UNL     1       1.275   2.653  21.448  0.00  0.00    +0.000 A 
ATOM      7  C   UNL     1       0.509   2.592  20.278  0.00  0.00    +0.000 A 
ATOM      8  C   UNL     1       1.121   2.680  19.027  0.00  0.00    +0.000 A 
ATOM      9  C   UNL     1       2.491   2.926  18.966  0.00  0.00    +0.000 A 
ATOM     10  C   UNL     1       3.193   3.158  17.676  0.00  0.00    +0.000 A 
ATOM     11  O   UNL     1       2.757   2.597  16.680  0.00  0.00    +0.000 OA
ENDROOT
BRANCH   1  15
ATOM     12  C   UNL     1       6.925   4.914  14.511  0.00  0.00    +0.000 A 
ATOM     13  C   UNL     1       5.555   4.775  14.295  0.00  0.00    +0.000 A 
ATOM     14  C   UNL     1       4.676   4.513  15.355  0.00  0.00    +0.000 A 
ATOM     15  C   UNL     1       5.139   4.387  16.667  0.00  0.00    +0.000 A 
ATOM     16  C   UNL     1       6.520   4.581  16.881  0.00  0.00    +0.000 A 
ATOM     17  C   UNL     1       7.407   4.825  15.812  0.00  0.00    +0.000 A 
BRANCH  12  19
ATOM     18  C   UNL     1       7.246   4.454  12.188  0.00  0.00    +0.000 C 
ATOM     19  O   UNL     1       7.653   5.120  13.375  0.00  0.00    +0.000 OA
ENDBRANCH  12  19
ENDBRANCH   1  15
BRANCH   2  20
ATOM     20  C   UNL     1       3.891   6.030  18.986  0.00  0.00    +0.000 C 
ATOM     21  C   UNL     1       2.750   6.341  19.629  0.00  0.00    +0.000 C 
BRANCH  21  22
ATOM     22  C   UNL     1       2.150   7.662  19.480  0.00  0.00    +0.000 A 
ATOM     23  C   UNL     1       1.483   8.326  20.521  0.00  0.00    +0.000 A 
ATOM     24  C   UNL     1       0.744   9.483  20.255  0.00  0.00    +0.000 A 
ATOM     25  C   UNL     1       0.696   9.984  18.947  0.00  0.00    +0.000 A 
ATOM     26  C   UNL     1       1.464   9.398  17.935  0.00  0.00    +0.000 A 
ATOM     27  C   UNL     1       2.202   8.247  18.212  0.00  0.00    +0.000 A 
BRANCH  25  28
ATOM     28  N   UNL     1      -0.205  11.092  18.615  0.00  0.00    +0.000 N 
ATOM     29  O   UNL     1       0.043  12.203  19.104  0.00  0.00    +0.000 OA
ATOM     30  O   UNL     1      -1.175  10.844  17.884  0.00  0.00    +0.000 OA
ENDBRANCH  25  28
ENDBRANCH  21  22
ENDBRANCH   2  20
TORSDOF 5
ENDMDL
MODEL 4
REMARK VINA RESULT:      -8.6      0.518      1.342
REMARK  Name = 
REMARK  6 active torsions:
REMARK  status: ('A' for Active; 'I' for Inactive)
REMARK    1  A    between atoms: C_1  and  O_2
REMARK    2  A    between atoms: O_2  and  C_3
REMARK    3  A    between atoms: C_6  and  N_7
REMARK    4  A    between atoms: C_8  and  C_9
REMARK    5  A    between atoms: C_10  and  C_11
REMARK    6  A    between atoms: C_14  and  N_15
REMARK                            x       y       z     vdW  Elec       q    Type
REMARK                         _______ _______ _______ _____ _____    ______ ____
ROOT
ATOM      1  N   UNL     1       4.313   4.195  17.751  0.00  0.00    +0.000 N 
ATOM      2  C   UNL     1       4.324   4.902  18.941  0.00  0.00    +0.000 A 
ATOM      3  N   UNL     1       4.269   4.281  20.081  0.00  0.00    +0.000 NA
ATOM      4  C   UNL     1       3.161   3.413  20.116  0.00  0.00    +0.000 A 
ATOM      5  C   UNL     1       2.497   3.237  21.325  0.00  0.00    +0.000 A 
ATOM      6  C   UNL     1       1.156   2.859  21.319  0.00  0.00    +0.000 A 
ATOM      7  C   UNL     1       0.495   2.629  20.108  0.00  0.00    +0.000 A 
ATOM      8  C   UNL     1       1.197   2.667  18.901  0.00  0.00    +0.000 A 
ATOM      9  C   UNL     1       2.541   3.032  18.919  0.00  0.00    +0.000 A 
ATOM     10  C   UNL     1       3.323   3.217  17.668  0.00  0.00    +0.000 A 
ATOM     11  O   UNL     1       3.018   2.537  16.698  0.00  0.00    +0.000 OA
ENDROOT
BRANCH   1  15
ATOM     12  C   UNL     1       7.136   5.035  14.638  0.00  0.00    +0.000 A 
ATOM     13  C   UNL     1       5.806   4.753  14.336  0.00  0.00    +0.000 A 
ATOM     14  C   UNL     1       4.868   4.502  15.347  0.00  0.00    +0.000 A 
ATOM     15  C   UNL     1       5.233   4.529  16.696  0.00  0.00    +0.000 A 
ATOM     16  C   UNL     1       6.571   4.866  16.992  0.00  0.00    +0.000 A 
ATOM     17  C   UNL     1       7.518   5.099  15.973  0.00  0.00    +0.000 A 
BRANCH  12  19
ATOM     18  C   UNL     1       7.458   4.751  12.286  0.00  0.00    +0.000 C 
ATOM     19  O   UNL     1       7.934   5.210  13.543  0.00  0.00    +0.000 OA
ENDBRANCH  12  19
ENDBRANCH   1  15
BRANCH   2  20
ATOM     20  C   UNL     1       3.667   6.241  18.758  0.00  0.00    +0.000 C 
ATOM     21  C   UNL     1       2.727   6.677  19.617  0.00  0.00    +0.000 C 
BRANCH  21  22
ATOM     22  C   UNL     1       1.985   7.905  19.345  0.00  0.00    +0.000 A 
ATOM     23  C   UNL     1       1.988   8.543  18.095  0.00  0.00    +0.000 A 
ATOM     24  C   UNL     1       1.442   9.824  17.961  0.00  0.00    +0.000 A 
ATOM     25  C   UNL     1       0.874  10.450  19.079  0.00  0.00    +0.000 A 
ATOM     26  C   UNL     1       0.756   9.764  20.292  0.00  0.00    +0.000 A 
ATOM     27  C   UNL     1       1.299   8.486  20.414  0.00  0.00    +0.000 A 
BRANCH  25  28
ATOM     28  N   UNL     1       0.451  11.852  19.002  0.00  0.00    +0.000 N 
ATOM     29  O   UNL     1      -0.739  12.109  19.236  0.00  0.00    +0.000 OA
ATOM     30  O   UNL     1       1.304  12.693  18.683  0.00  0.00    +0.000 OA
ENDBRANCH  25  28
ENDBRANCH  21  22
ENDBRANCH   2  20
TORSDOF 5
ENDMDL
MODEL 5
REMARK VINA RESULT:      -7.7      2.197      2.590
REMARK  Name = 
REMARK  6 active torsions:
REMARK  status: ('A' for Active; 'I' for Inactive)
REMARK    1  A    between atoms: C_1  and  O_2
REMARK    2  A    between atoms: O_2  and  C_3
REMARK    3  A    between atoms: C_6  and  N_7
REMARK    4  A    between atoms: C_8  and  C_9
REMARK    5  A    between atoms: C_10  and  C_11
REMARK    6  A    between atoms: C_14  and  N_15
REMARK                            x       y       z     vdW  Elec       q    Type
REMARK                         _______ _______ _______ _____ _____    ______ ____
ROOT
ATOM      1  N   UNL     1       4.329   5.128  18.704  0.00  0.00    +0.000 N 
ATOM      2  C   UNL     1       3.476   5.510  19.725  0.00  0.00    +0.000 A 
ATOM      3  N   UNL     1       3.075   4.648  20.610  0.00  0.00    +0.000 NA
ATOM      4  C   UNL     1       2.505   3.525  19.980  0.00  0.00    +0.000 A 
ATOM      5  C   UNL     1       1.433   2.893  20.601  0.00  0.00    +0.000 A 
ATOM      6  C   UNL     1       0.525   2.171  19.829  0.00  0.00    +0.000 A 
ATOM      7  C   UNL     1       0.709   2.060  18.446  0.00  0.00    +0.000 A 
ATOM      8  C   UNL     1       1.859   2.574  17.843  0.00  0.00    +0.000 A 
ATOM      9  C   UNL     1       2.768   3.280  18.626  0.00  0.00    +0.000 A 
ATOM     10  C   UNL     1       3.950   3.964  18.038  0.00  0.00    +0.000 A 
ATOM     11  O   UNL     1       4.453   3.475  17.035  0.00  0.00    +0.000 OA
ENDROOT
BRANCH   1  15
ATOM     12  C   UNL     1       7.633   7.692  17.764  0.00  0.00    +0.000 A 
ATOM     13  C   UNL     1       7.772   6.662  18.692  0.00  0.00    +0.000 A 
ATOM     14  C   UNL     1       6.706   5.801  18.987  0.00  0.00    +0.000 A 
ATOM     15  C   UNL     1       5.465   5.943  18.360  0.00  0.00    +0.000 A 
ATOM     16  C   UNL     1       5.352   6.957  17.386  0.00  0.00    +0.000 A 
ATOM     17  C   UNL     1       6.418   7.834  17.103  0.00  0.00    +0.000 A 
BRANCH  12  19
ATOM     18  C   UNL     1       8.763   9.740  18.260  0.00  0.00    +0.000 C 
ATOM     19  O   UNL     1       8.745   8.471  17.621  0.00  0.00    +0.000 OA
ENDBRANCH  12  19
ENDBRANCH   1  15
BRANCH   2  20
ATOM     20  C   UNL     1       2.574   6.619  19.264  0.00  0.00    +0.000 C 
ATOM     21  C   UNL     1       2.383   7.719  20.016  0.00  0.00    +0.000 C 
BRANCH  21  22
ATOM     22  C   UNL     1       1.388   8.716  19.635  0.00  0.00    +0.000 A 
ATOM     23  C   UNL     1       0.456   9.256  20.535  0.00  0.00    +0.000 A 
ATOM     24  C   UNL     1      -0.604  10.035  20.063  0.00  0.00    +0.000 A 
ATOM     25  C   UNL     1      -0.712  10.291  18.689  0.00  0.00    +0.000 A 
ATOM     26  C   UNL     1       0.285   9.862  17.808  0.00  0.00    +0.000 A 
ATOM     27  C   UNL     1       1.342   9.089  18.289  0.00  0.00    +0.000 A 
BRANCH  25  28
ATOM     28  N   UNL     1      -1.903  10.959  18.156  0.00  0.00    +0.000 N 
ATOM     29  O   UNL     1      -2.324  10.592  17.049  0.00  0.00    +0.000 OA
ATOM     30  O   UNL     1      -2.404  11.869  18.833  0.00  0.00    +0.000 OA
ENDBRANCH  25  28
ENDBRANCH  21  22
ENDBRANCH   2  20
TORSDOF 5
ENDMDL
MODEL 6
REMARK VINA RESULT:      -7.6      2.132      2.713
REMARK  Name = 
REMARK  6 active torsions:
REMARK  status: ('A' for Active; 'I' for Inactive)
REMARK    1  A    between atoms: C_1  and  O_2
REMARK    2  A    between atoms: O_2  and  C_3
REMARK    3  A    between atoms: C_6  and  N_7
REMARK    4  A    between atoms: C_8  and  C_9
REMARK    5  A    between atoms: C_10  and  C_11
REMARK    6  A    between atoms: C_14  and  N_15
REMARK                            x       y       z     vdW  Elec       q    Type
REMARK                         _______ _______ _______ _____ _____    ______ ____
ROOT
ATOM      1  N   UNL     1       4.338   5.122  18.702  0.00  0.00    +0.000 N 
ATOM      2  C   UNL     1       3.501   5.495  19.739  0.00  0.00    +0.000 A 
ATOM      3  N   UNL     1       3.118   4.627  20.626  0.00  0.00    +0.000 NA
ATOM      4  C   UNL     1       2.540   3.506  20.000  0.00  0.00    +0.000 A 
ATOM      5  C   UNL     1       1.480   2.868  20.635  0.00  0.00    +0.000 A 
ATOM      6  C   UNL     1       0.562   2.148  19.874  0.00  0.00    +0.000 A 
ATOM      7  C   UNL     1       0.723   2.045  18.487  0.00  0.00    +0.000 A 
ATOM      8  C   UNL     1       1.862   2.565  17.868  0.00  0.00    +0.000 A 
ATOM      9  C   UNL     1       2.782   3.270  18.640  0.00  0.00    +0.000 A 
ATOM     10  C   UNL     1       3.952   3.960  18.036  0.00  0.00    +0.000 A 
ATOM     11  O   UNL     1       4.439   3.477  17.023  0.00  0.00    +0.000 OA
ENDROOT
BRANCH   1  15
ATOM     12  C   UNL     1       7.618   7.701  17.720  0.00  0.00    +0.000 A 
ATOM     13  C   UNL     1       7.770   6.680  18.655  0.00  0.00    +0.000 A 
ATOM     14  C   UNL     1       6.712   5.814  18.965  0.00  0.00    +0.000 A 
ATOM     15  C   UNL     1       5.467   5.941  18.345  0.00  0.00    +0.000 A 
ATOM     16  C   UNL     1       5.339   6.946  17.362  0.00  0.00    +0.000 A 
ATOM     17  C   UNL     1       6.398   7.829  17.065  0.00  0.00    +0.000 A 
BRANCH  12  19
ATOM     18  C   UNL     1       8.773   9.723  18.260  0.00  0.00    +0.000 C 
ATOM     19  O   UNL     1       8.724   8.486  17.563  0.00  0.00    +0.000 OA
ENDBRANCH  12  19
ENDBRANCH   1  15
BRANCH   2  20
ATOM     20  C   UNL     1       2.588   6.605  19.299  0.00  0.00    +0.000 C 
ATOM     21  C   UNL     1       2.272   7.616  20.129  0.00  0.00    +0.000 C 
BRANCH  21  22
ATOM     22  C   UNL     1       1.266   8.602  19.748  0.00  0.00    +0.000 A 
ATOM     23  C   UNL     1       1.177   9.152  18.460  0.00  0.00    +0.000 A 
ATOM     24  C   UNL     1       0.339  10.245  18.220  0.00  0.00    +0.000 A 
ATOM     25  C   UNL     1      -0.425  10.770  19.271  0.00  0.00    +0.000 A 
ATOM     26  C   UNL     1      -0.434  10.145  20.522  0.00  0.00    +0.000 A 
ATOM     27  C   UNL     1       0.401   9.051  20.750  0.00  0.00    +0.000 A 
BRANCH  25  28
ATOM     28  N   UNL     1      -1.177  12.015  19.085  0.00  0.00    +0.000 N 
ATOM     29  O   UNL     1      -1.021  12.629  18.019  0.00  0.00    +0.000 OA
ATOM     30  O   UNL     1      -1.905  12.392  20.015  0.00  0.00    +0.000 OA
ENDBRANCH  25  28
ENDBRANCH  21  22
ENDBRANCH   2  20
TORSDOF 5
ENDMDL
MODEL 7
REMARK VINA RESULT:      -7.3      3.831     10.226
REMARK  Name = 
REMARK  6 active torsions:
REMARK  status: ('A' for Active; 'I' for Inactive)
REMARK    1  A    between atoms: C_1  and  O_2
REMARK    2  A    between atoms: O_2  and  C_3
REMARK    3  A    between atoms: C_6  and  N_7
REMARK    4  A    between atoms: C_8  and  C_9
REMARK    5  A    between atoms: C_10  and  C_11
REMARK    6  A    between atoms: C_14  and  N_15
REMARK                            x       y       z     vdW  Elec       q    Type
REMARK                         _______ _______ _______ _____ _____    ______ ____
ROOT
ATOM      1  N   UNL     1      -0.460  12.892  19.575  0.00  0.00    +0.000 N 
ATOM      2  C   UNL     1       0.325  12.173  20.461  0.00  0.00    +0.000 A 
ATOM      3  N   UNL     1       0.965  12.775  21.417  0.00  0.00    +0.000 NA
ATOM      4  C   UNL     1       1.757  13.817  20.899  0.00  0.00    +0.000 A 
ATOM      5  C   UNL     1       2.980  14.082  21.508  0.00  0.00    +0.000 A 
ATOM      6  C   UNL     1       3.996  14.682  20.766  0.00  0.00    +0.000 A 
ATOM      7  C   UNL     1       3.777  15.039  19.431  0.00  0.00    +0.000 A 
ATOM      8  C   UNL     1       2.508  14.903  18.863  0.00  0.00    +0.000 A 
ATOM      9  C   UNL     1       1.495  14.317  19.617  0.00  0.00    +0.000 A 
ATOM     10  C   UNL     1       0.156  14.023  19.043  0.00  0.00    +0.000 A 
ATOM     11  O   UNL     1      -0.262  14.761  18.160  0.00  0.00    +0.000 OA
ENDROOT
BRANCH   1  15
ATOM     12  C   UNL     1      -4.422  11.670  18.488  0.00  0.00    +0.000 A 
ATOM     13  C   UNL     1      -3.333  11.360  17.676  0.00  0.00    +0.000 A 
ATOM     14  C   UNL     1      -2.030  11.732  18.035  0.00  0.00    +0.000 A 
ATOM     15  C   UNL     1      -1.775  12.424  19.221  0.00  0.00    +0.000 A 
ATOM     16  C   UNL     1      -2.879  12.688  20.060  0.00  0.00    +0.000 A 
ATOM     17  C   UNL     1      -4.191  12.330  19.690  0.00  0.00    +0.000 A 
BRANCH  12  19
ATOM     18  C   UNL     1      -6.525  10.589  18.836  0.00  0.00    +0.000 C 
ATOM     19  O   UNL     1      -5.628  11.281  17.980  0.00  0.00    +0.000 OA
ENDBRANCH  12  19
ENDBRANCH   1  15
BRANCH   2  20
ATOM     20  C   UNL     1       0.909  10.967  19.781  0.00  0.00    +0.000 C 
ATOM     21  C   UNL     1       0.850   9.750  20.352  0.00  0.00    +0.000 C 
BRANCH  21  22
ATOM     22  C   UNL     1       1.554   8.617  19.760  0.00  0.00    +0.000 A 
ATOM     23  C   UNL     1       2.008   8.603  18.432  0.00  0.00    +0.000 A 
ATOM     24  C   UNL     1       2.475   7.414  17.863  0.00  0.00    +0.000 A 
ATOM     25  C   UNL     1       2.506   6.247  18.637  0.00  0.00    +0.000 A 
ATOM     26  C   UNL     1       2.176   6.288  19.996  0.00  0.00    +0.000 A 
ATOM     27  C   UNL     1       1.717   7.480  20.555  0.00  0.00    +0.000 A 
BRANCH  25  28
ATOM     28  N   UNL     1       2.830   4.959  18.015  0.00  0.00    +0.000 N 
ATOM     29  O   UNL     1       4.024   4.634  17.949  0.00  0.00    +0.000 OA
ATOM     30  O   UNL     1       1.890   4.283  17.571  0.00  0.00    +0.000 OA
ENDBRANCH  25  28
ENDBRANCH  21  22
ENDBRANCH   2  20
TORSDOF 5
ENDMDL
MODEL 8
REMARK VINA RESULT:      -7.3      4.019     10.316
REMARK  Name = 
REMARK  6 active torsions:
REMARK  status: ('A' for Active; 'I' for Inactive)
REMARK    1  A    between atoms: C_1  and  O_2
REMARK    2  A    between atoms: O_2  and  C_3
REMARK    3  A    between atoms: C_6  and  N_7
REMARK    4  A    between atoms: C_8  and  C_9
REMARK    5  A    between atoms: C_10  and  C_11
REMARK    6  A    between atoms: C_14  and  N_15
REMARK                            x       y       z     vdW  Elec       q    Type
REMARK                         _______ _______ _______ _____ _____    ______ ____
ROOT
ATOM      1  N   UNL     1      -0.388  13.079  19.744  0.00  0.00    +0.000 N 
ATOM      2  C   UNL     1       0.464  12.324  20.531  0.00  0.00    +0.000 A 
ATOM      3  N   UNL     1       1.194  12.887  21.446  0.00  0.00    +0.000 NA
ATOM      4  C   UNL     1       1.950  13.939  20.895  0.00  0.00    +0.000 A 
ATOM      5  C   UNL     1       3.224  14.172  21.400  0.00  0.00    +0.000 A 
ATOM      6  C   UNL     1       4.178  14.788  20.591  0.00  0.00    +0.000 A 
ATOM      7  C   UNL     1       3.844  15.193  19.293  0.00  0.00    +0.000 A 
ATOM      8  C   UNL     1       2.529  15.088  18.837  0.00  0.00    +0.000 A 
ATOM      9  C   UNL     1       1.580  14.485  19.659  0.00  0.00    +0.000 A 
ATOM     10  C   UNL     1       0.191  14.223  19.197  0.00  0.00    +0.000 A 
ATOM     11  O   UNL     1      -0.295  14.995  18.381  0.00  0.00    +0.000 OA
ENDROOT
BRANCH   1  15
ATOM     12  C   UNL     1      -4.440  11.927  18.952  0.00  0.00    +0.000 A 
ATOM     13  C   UNL     1      -3.402  11.492  18.131  0.00  0.00    +0.000 A 
ATOM     14  C   UNL     1      -2.070  11.841  18.396  0.00  0.00    +0.000 A 
ATOM     15  C   UNL     1      -1.735  12.636  19.494  0.00  0.00    +0.000 A 
ATOM     16  C   UNL     1      -2.789  13.029  20.347  0.00  0.00    +0.000 A 
ATOM     17  C   UNL     1      -4.129  12.693  20.070  0.00  0.00    +0.000 A 
BRANCH  12  19
ATOM     18  C   UNL     1      -6.338  12.337  17.558  0.00  0.00    +0.000 C 
ATOM     19  O   UNL     1      -5.682  11.542  18.536  0.00  0.00    +0.000 OA
ENDBRANCH  12  19
ENDBRANCH   1  15
BRANCH   2  20
ATOM     20  C   UNL     1       0.970  11.137  19.762  0.00  0.00    +0.000 C 
ATOM     21  C   UNL     1       0.838   9.887  20.244  0.00  0.00    +0.000 C 
BRANCH  21  22
ATOM     22  C   UNL     1       1.469   8.759  19.566  0.00  0.00    +0.000 A 
ATOM     23  C   UNL     1       1.801   7.560  20.215  0.00  0.00    +0.000 A 
ATOM     24  C   UNL     1       2.598   6.610  19.569  0.00  0.00    +0.000 A 
ATOM     25  C   UNL     1       3.039   6.857  18.262  0.00  0.00    +0.000 A 
ATOM     26  C   UNL     1       2.604   7.991  17.569  0.00  0.00    +0.000 A 
ATOM     27  C   UNL     1       1.805   8.930  18.220  0.00  0.00    +0.000 A 
BRANCH  25  28
ATOM     28  N   UNL     1       4.010   5.957  17.630  0.00  0.00    +0.000 N 
ATOM     29  O   UNL     1       5.090   6.441  17.263  0.00  0.00    +0.000 OA
ATOM     30  O   UNL     1       3.681   4.771  17.479  0.00  0.00    +0.000 OA
ENDBRANCH  25  28
ENDBRANCH  21  22
ENDBRANCH   2  20
TORSDOF 5
ENDMDL
MODEL 9
REMARK VINA RESULT:      -7.2      5.585     10.290
REMARK  Name = 
REMARK  6 active torsions:
REMARK  status: ('A' for Active; 'I' for Inactive)
REMARK    1  A    between atoms: C_1  and  O_2
REMARK    2  A    between atoms: O_2  and  C_3
REMARK    3  A    between atoms: C_6  and  N_7
REMARK    4  A    between atoms: C_8  and  C_9
REMARK    5  A    between atoms: C_10  and  C_11
REMARK    6  A    between atoms: C_14  and  N_15
REMARK                            x       y       z     vdW  Elec       q    Type
REMARK                         _______ _______ _______ _____ _____    ______ ____
ROOT
ATOM      1  N   UNL     1       0.459  12.337  20.187  0.00  0.00    +0.000 N 
ATOM      2  C   UNL     1      -0.692  12.787  19.565  0.00  0.00    +0.000 A 
ATOM      3  N   UNL     1      -0.631  13.691  18.634  0.00  0.00    +0.000 NA
ATOM      4  C   UNL     1       0.072  14.822  19.091  0.00  0.00    +0.000 A 
ATOM      5  C   UNL     1      -0.332  16.076  18.646  0.00  0.00    +0.000 A 
ATOM      6  C   UNL     1      -0.065  17.198  19.428  0.00  0.00    +0.000 A 
ATOM      7  C   UNL     1       0.630  17.065  20.636  0.00  0.00    +0.000 A 
ATOM      8  C   UNL     1       1.158  15.829  21.014  0.00  0.00    +0.000 A 
ATOM      9  C   UNL     1       0.899  14.716  20.218  0.00  0.00    +0.000 A 
ATOM     10  C   UNL     1       1.318  13.347  20.617  0.00  0.00    +0.000 A 
ATOM     11  O   UNL     1       2.334  13.234  21.290  0.00  0.00    +0.000 OA
ENDROOT
BRANCH   1  15
ATOM     12  C   UNL     1       1.258   8.174  20.823  0.00  0.00    +0.000 A 
ATOM     13  C   UNL     1       0.744   8.966  21.848  0.00  0.00    +0.000 A 
ATOM     14  C   UNL     1       0.455  10.322  21.644  0.00  0.00    +0.000 A 
ATOM     15  C   UNL     1       0.668  10.929  20.404  0.00  0.00    +0.000 A 
ATOM     16  C   UNL     1       1.140  10.106  19.359  0.00  0.00    +0.000 A 
ATOM     17  C   UNL     1       1.449   8.747  19.570  0.00  0.00    +0.000 A 
BRANCH  12  19
ATOM     18  C   UNL     1       1.953   5.977  20.186  0.00  0.00    +0.000 C 
ATOM     19  O   UNL     1       1.530   6.888  21.191  0.00  0.00    +0.000 OA
ENDBRANCH  12  19
ENDBRANCH   1  15
BRANCH   2  20
ATOM     20  C   UNL     1      -1.854  12.735  20.516  0.00  0.00    +0.000 C 
ATOM     21  C   UNL     1      -3.120  12.664  20.064  0.00  0.00    +0.000 C 
BRANCH  21  22
ATOM     22  C   UNL     1      -4.245  12.771  20.988  0.00  0.00    +0.000 A 
ATOM     23  C   UNL     1      -4.115  13.229  22.308  0.00  0.00    +0.000 A 
ATOM     24  C   UNL     1      -5.182  13.100  23.203  0.00  0.00    +0.000 A 
ATOM     25  C   UNL     1      -6.385  12.532  22.762  0.00  0.00    +0.000 A 
ATOM     26  C   UNL     1      -6.558  12.194  21.417  0.00  0.00    +0.000 A 
ATOM     27  C   UNL     1      -5.490  12.332  20.530  0.00  0.00    +0.000 A 
BRANCH  25  28
ATOM     28  N   UNL     1      -7.453  12.233  23.722  0.00  0.00    +0.000 N 
ATOM     29  O   UNL     1      -7.811  13.139  24.488  0.00  0.00    +0.000 OA
ATOM     30  O   UNL     1      -7.917  11.083  23.726  0.00  0.00    +0.000 OA
ENDBRANCH  25  28
ENDBRANCH  21  22
ENDBRANCH   2  20
TORSDOF 5
ENDMDL
