MODEL 1
REMARK VINA RESULT:      -7.1      0.000      0.000
REMARK  Name = 
REMARK  4 active torsions:
REMARK  status: ('A' for Active; 'I' for Inactive)
REMARK    1  A    between atoms: C_1  and  N_2
REMARK    2  A    between atoms: C_5  and  C_6
REMARK    3  A    between atoms: C_6  and  C_7
REMARK    4  A    between atoms: N_14  and  C_15
REMARK                            x       y       z     vdW  Elec       q    Type
REMARK                         _______ _______ _______ _____ _____    ______ ____
ROOT
ATOM      1  C   UNL     1       8.129   7.099  18.498  0.00  0.00    +0.000 C 
ATOM      2  N   UNL     1       7.069   6.169  18.139  0.00  0.00    +0.000 N 
ATOM      3  C   UNL     1       6.584   5.337  19.126  0.00  0.00    +0.000 C 
ATOM      4  O   UNL     1       7.110   5.242  20.237  0.00  0.00    +0.000 OA
ATOM      5  C   UNL     1       5.360   4.543  18.789  0.00  0.00    +0.000 C 
ATOM      6  C   UNL     1       5.267   4.168  17.340  0.00  0.00    +0.000 C 
ATOM      7  O   UNL     1       4.508   3.259  16.990  0.00  0.00    +0.000 OA
ATOM      8  N   UNL     1       6.004   4.918  16.446  0.00  0.00    +0.000 N 
ATOM      9  C   UNL     1       5.906   4.602  15.028  0.00  0.00    +0.000 C 
ATOM     10  C   UNL     1       6.906   5.915  16.789  0.00  0.00    +0.000 C 
ATOM     11  O   UNL     1       7.569   6.505  15.935  0.00  0.00    +0.000 OA
ENDROOT
BRANCH   5  12
ATOM     12  C   UNL     1       4.073   5.292  19.160  0.00  0.00    +0.000 C 
BRANCH  12  13
ATOM     13  C   UNL     1       3.033   4.431  19.824  0.00  0.00    +0.000 A 
ATOM     14  C   UNL     1       1.720   4.740  20.126  0.00  0.00    +0.000 A 
ATOM     15  C   UNL     1       1.049   3.672  20.790  0.00  0.00    +0.000 A 
ATOM     16  C   UNL     1       1.872   2.587  20.981  0.00  0.00    +0.000 A 
ATOM     17  S   UNL     1       3.439   2.851  20.351  0.00  0.00    +0.000 S 
ENDBRANCH  12  13
ENDBRANCH   5  12
TORSDOF 2
ENDMDL
MODEL 2
REMARK VINA RESULT:      -6.2      1.365      1.492
REMARK  Name = 
REMARK  4 active torsions:
REMARK  status: ('A' for Active; 'I' for Inactive)
REMARK    1  A    between atoms: C_1  and  N_2
REMARK    2  A    between atoms: C_5  and  C_6
REMARK    3  A    between atoms: C_6  and  C_7
REMARK    4  A    between atoms: N_14  and  C_15
REMARK                            x       y       z     vdW  Elec       q    Type
REMARK                         _______ _______ _______ _____ _____    ______ ____
ROOT
ATOM      1  C   UNL     1       7.328   5.827  19.287  0.00  0.00    +0.000 C 
ATOM      2  N   UNL     1       6.498   5.344  18.194  0.00  0.00    +0.000 N 
ATOM      3  C   UNL     1       5.603   4.331  18.468  0.00  0.00    +0.000 C 
ATOM      4  O   UNL     1       5.588   3.724  19.540  0.00  0.00    +0.000 OA
ATOM      5  C   UNL     1       4.620   3.998  17.387  0.00  0.00    +0.000 C 
ATOM      6  C   UNL     1       5.155   4.212  16.003  0.00  0.00    +0.000 C 
ATOM      7  O   UNL     1       4.593   3.680  15.040  0.00  0.00    +0.000 OA
ATOM      8  N   UNL     1       6.234   5.063  15.867  0.00  0.00    +0.000 N 
ATOM      9  C   UNL     1       6.752   5.320  14.530  0.00  0.00    +0.000 C 
ATOM     10  C   UNL     1       6.931   5.646  16.915  0.00  0.00    +0.000 C 
ATOM     11  O   UNL     1       7.920   6.353  16.716  0.00  0.00    +0.000 OA
ENDROOT
BRANCH   5  12
ATOM     12  C   UNL     1       3.328   4.814  17.519  0.00  0.00    +0.000 C 
BRANCH  12  13
ATOM     13  C   UNL     1       2.377   4.291  18.561  0.00  0.00    +0.000 A 
ATOM     14  C   UNL     1       1.943   4.906  19.721  0.00  0.00    +0.000 A 
ATOM     15  C   UNL     1       1.063   4.078  20.478  0.00  0.00    +0.000 A 
ATOM     16  C   UNL     1       0.861   2.858  19.877  0.00  0.00    +0.000 A 
ATOM     17  S   UNL     1       1.715   2.718  18.403  0.00  0.00    +0.000 S 
ENDBRANCH  12  13
ENDBRANCH   5  12
TORSDOF 2
ENDMDL
MODEL 3
REMARK VINA RESULT:      -6.2      3.287      5.689
REMARK  Name = 
REMARK  4 active torsions:
REMARK  status: ('A' for Active; 'I' for Inactive)
REMARK    1  A    between atoms: C_1  and  N_2
REMARK    2  A    between atoms: C_5  and  C_6
REMARK    3  A    between atoms: C_6  and  C_7
REMARK    4  A    between atoms: N_14  and  C_15
REMARK                            x       y       z     vdW  Elec       q    Type
REMARK                         _______ _______ _______ _____ _____    ______ ____
ROOT
ATOM      1  C   UNL     1       2.057   6.946  20.358  0.00  0.00    +0.000 C 
ATOM      2  N   UNL     1       2.273   5.809  19.477  0.00  0.00    +0.000 N 
ATOM      3  C   UNL     1       2.778   6.059  18.218  0.00  0.00    +0.000 C 
ATOM      4  O   UNL     1       2.902   7.198  17.763  0.00  0.00    +0.000 OA
ATOM      5  C   UNL     1       3.186   4.865  17.412  0.00  0.00    +0.000 C 
ATOM      6  C   UNL     1       2.365   3.642  17.693  0.00  0.00    +0.000 C 
ATOM      7  O   UNL     1       2.369   2.704  16.889  0.00  0.00    +0.000 OA
ATOM      8  N   UNL     1       1.682   3.601  18.892  0.00  0.00    +0.000 N 
ATOM      9  C   UNL     1       0.906   2.411  19.210  0.00  0.00    +0.000 C 
ATOM     10  C   UNL     1       1.606   4.642  19.806  0.00  0.00    +0.000 C 
ATOM     11  O   UNL     1       0.931   4.550  20.832  0.00  0.00    +0.000 OA
ENDROOT
BRANCH   5  12
ATOM     12  C   UNL     1       4.659   4.500  17.639  0.00  0.00    +0.000 C 
BRANCH  12  13
ATOM     13  C   UNL     1       5.503   4.559  16.395  0.00  0.00    +0.000 A 
ATOM     14  C   UNL     1       5.166   4.197  15.104  0.00  0.00    +0.000 A 
ATOM     15  C   UNL     1       6.249   4.365  14.192  0.00  0.00    +0.000 A 
ATOM     16  C   UNL     1       7.378   4.842  14.816  0.00  0.00    +0.000 A 
ATOM     17  S   UNL     1       7.128   5.097  16.488  0.00  0.00    +0.000 S 
ENDBRANCH  12  13
ENDBRANCH   5  12
TORSDOF 2
ENDMDL
MODEL 4
REMARK VINA RESULT:      -6.2      1.523      1.724
REMARK  Name = 
REMARK  4 active torsions:
REMARK  status: ('A' for Active; 'I' for Inactive)
REMARK    1  A    between atoms: C_1  and  N_2
REMARK    2  A    between atoms: C_5  and  C_6
REMARK    3  A    between atoms: C_6  and  C_7
REMARK    4  A    between atoms: N_14  and  C_15
REMARK                            x       y       z     vdW  Elec       q    Type
REMARK                         _______ _______ _______ _____ _____    ______ ____
ROOT
ATOM      1  C   UNL     1       7.198   5.729  19.466  0.00  0.00    +0.000 C 
ATOM      2  N   UNL     1       6.452   5.272  18.304  0.00  0.00    +0.000 N 
ATOM      3  C   UNL     1       5.566   4.231  18.479  0.00  0.00    +0.000 C 
ATOM      4  O   UNL     1       5.496   3.581  19.524  0.00  0.00    +0.000 OA
ATOM      5  C   UNL     1       4.663   3.920  17.325  0.00  0.00    +0.000 C 
ATOM      6  C   UNL     1       5.281   4.201  15.988  0.00  0.00    +0.000 C 
ATOM      7  O   UNL     1       4.794   3.696  14.970  0.00  0.00    +0.000 OA
ATOM      8  N   UNL     1       6.346   5.078  15.955  0.00  0.00    +0.000 N 
ATOM      9  C   UNL     1       6.943   5.400  14.666  0.00  0.00    +0.000 C 
ATOM     10  C   UNL     1       6.959   5.634  17.068  0.00  0.00    +0.000 C 
ATOM     11  O   UNL     1       7.942   6.369  16.962  0.00  0.00    +0.000 OA
ENDROOT
BRANCH   5  12
ATOM     12  C   UNL     1       3.346   4.703  17.403  0.00  0.00    +0.000 C 
BRANCH  12  13
ATOM     13  C   UNL     1       2.379   4.175  18.428  0.00  0.00    +0.000 A 
ATOM     14  C   UNL     1       1.589   3.043  18.367  0.00  0.00    +0.000 A 
ATOM     15  C   UNL     1       0.772   2.887  19.525  0.00  0.00    +0.000 A 
ATOM     16  C   UNL     1       0.959   3.908  20.428  0.00  0.00    +0.000 A 
ATOM     17  S   UNL     1       2.122   5.038  19.886  0.00  0.00    +0.000 S 
ENDBRANCH  12  13
ENDBRANCH   5  12
TORSDOF 2
ENDMDL
MODEL 5
REMARK VINA RESULT:      -6.1      3.041      5.446
REMARK  Name = 
REMARK  4 active torsions:
REMARK  status: ('A' for Active; 'I' for Inactive)
REMARK    1  A    between atoms: C_1  and  N_2
REMARK    2  A    between atoms: C_5  and  C_6
REMARK    3  A    between atoms: C_6  and  C_7
REMARK    4  A    between atoms: N_14  and  C_15
REMARK                            x       y       z     vdW  Elec       q    Type
REMARK                         _______ _______ _______ _____ _____    ______ ____
ROOT
ATOM      1  C   UNL     1       2.041   6.564  20.540  0.00  0.00    +0.000 C 
ATOM      2  N   UNL     1       2.297   5.483  19.601  0.00  0.00    +0.000 N 
ATOM      3  C   UNL     1       3.033   5.774  18.473  0.00  0.00    +0.000 C 
ATOM      4  O   UNL     1       3.343   6.924  18.156  0.00  0.00    +0.000 OA
ATOM      5  C   UNL     1       3.460   4.609  17.633  0.00  0.00    +0.000 C 
ATOM      6  C   UNL     1       2.489   3.466  17.656  0.00  0.00    +0.000 C 
ATOM      7  O   UNL     1       2.543   2.599  16.777  0.00  0.00    +0.000 OA
ATOM      8  N   UNL     1       1.609   3.406  18.718  0.00  0.00    +0.000 N 
ATOM      9  C   UNL     1       0.679   2.287  18.788  0.00  0.00    +0.000 C 
ATOM     10  C   UNL     1       1.475   4.374  19.702  0.00  0.00    +0.000 C 
ATOM     11  O   UNL     1       0.626   4.277  20.590  0.00  0.00    +0.000 OA
ENDROOT
BRANCH   5  12
ATOM     12  C   UNL     1       4.829   4.067  18.062  0.00  0.00    +0.000 C 
BRANCH  12  13
ATOM     13  C   UNL     1       5.941   5.077  17.980  0.00  0.00    +0.000 A 
ATOM     14  C   UNL     1       6.774   5.528  18.987  0.00  0.00    +0.000 A 
ATOM     15  C   UNL     1       7.691   6.520  18.530  0.00  0.00    +0.000 A 
ATOM     16  C   UNL     1       7.523   6.799  17.193  0.00  0.00    +0.000 A 
ATOM     17  S   UNL     1       6.277   5.861  16.494  0.00  0.00    +0.000 S 
ENDBRANCH  12  13
ENDBRANCH   5  12
TORSDOF 2
ENDMDL
MODEL 6
REMARK VINA RESULT:      -6.1      2.974      5.441
REMARK  Name = 
REMARK  4 active torsions:
REMARK  status: ('A' for Active; 'I' for Inactive)
REMARK    1  A    between atoms: C_1  and  N_2
REMARK    2  A    between atoms: C_5  and  C_6
REMARK    3  A    between atoms: C_6  and  C_7
REMARK    4  A    between atoms: N_14  and  C_15
REMARK                            x       y       z     vdW  Elec       q    Type
REMARK                         _______ _______ _______ _____ _____    ______ ____
ROOT
ATOM      1  C   UNL     1       1.938   6.556  20.736  0.00  0.00    +0.000 C 
ATOM      2  N   UNL     1       2.245   5.566  19.715  0.00  0.00    +0.000 N 
ATOM      3  C   UNL     1       2.975   5.978  18.620  0.00  0.00    +0.000 C 
ATOM      4  O   UNL     1       3.237   7.162  18.400  0.00  0.00    +0.000 OA
ATOM      5  C   UNL     1       3.455   4.903  17.693  0.00  0.00    +0.000 C 
ATOM      6  C   UNL     1       2.533   3.723  17.616  0.00  0.00    +0.000 C 
ATOM      7  O   UNL     1       2.628   2.934  16.670  0.00  0.00    +0.000 OA
ATOM      8  N   UNL     1       1.650   3.541  18.661  0.00  0.00    +0.000 N 
ATOM      9  C   UNL     1       0.768   2.383  18.632  0.00  0.00    +0.000 C 
ATOM     10  C   UNL     1       1.470   4.420  19.719  0.00  0.00    +0.000 C 
ATOM     11  O   UNL     1       0.621   4.215  20.588  0.00  0.00    +0.000 OA
ENDROOT
BRANCH   5  12
ATOM     12  C   UNL     1       4.843   4.386  18.090  0.00  0.00    +0.000 C 
BRANCH  12  13
ATOM     13  C   UNL     1       5.936   5.414  17.974  0.00  0.00    +0.000 A 
ATOM     14  C   UNL     1       6.201   6.279  16.930  0.00  0.00    +0.000 A 
ATOM     15  C   UNL     1       7.349   7.089  17.172  0.00  0.00    +0.000 A 
ATOM     16  C   UNL     1       7.928   6.809  18.388  0.00  0.00    +0.000 A 
ATOM     17  S   UNL     1       7.082   5.589  19.236  0.00  0.00    +0.000 S 
ENDBRANCH  12  13
ENDBRANCH   5  12
TORSDOF 2
ENDMDL
MODEL 7
REMARK VINA RESULT:      -6.1      3.503      5.050
REMARK  Name = 
REMARK  4 active torsions:
REMARK  status: ('A' for Active; 'I' for Inactive)
REMARK    1  A    between atoms: C_1  and  N_2
REMARK    2  A    between atoms: C_5  and  C_6
REMARK    3  A    between atoms: C_6  and  C_7
REMARK    4  A    between atoms: N_14  and  C_15
REMARK                            x       y       z     vdW  Elec       q    Type
REMARK                         _______ _______ _______ _____ _____    ______ ____
ROOT
ATOM      1  C   UNL     1       2.450   2.287  19.744  0.00  0.00    +0.000 C 
ATOM      2  N   UNL     1       3.055   3.539  19.317  0.00  0.00    +0.000 N 
ATOM      3  C   UNL     1       2.253   4.449  18.661  0.00  0.00    +0.000 C 
ATOM      4  O   UNL     1       1.108   4.184  18.290  0.00  0.00    +0.000 OA
ATOM      5  C   UNL     1       2.841   5.805  18.419  0.00  0.00    +0.000 C 
ATOM      6  C   UNL     1       4.326   5.789  18.217  0.00  0.00    +0.000 C 
ATOM      7  O   UNL     1       4.884   6.759  17.693  0.00  0.00    +0.000 OA
ATOM      8  N   UNL     1       5.017   4.693  18.694  0.00  0.00    +0.000 N 
ATOM      9  C   UNL     1       6.465   4.665  18.546  0.00  0.00    +0.000 C 
ATOM     10  C   UNL     1       4.437   3.559  19.245  0.00  0.00    +0.000 C 
ATOM     11  O   UNL     1       5.118   2.596  19.600  0.00  0.00    +0.000 OA
ENDROOT
BRANCH   5  12
ATOM     12  C   UNL     1       2.538   6.772  19.571  0.00  0.00    +0.000 C 
BRANCH  12  13
ATOM     13  C   UNL     1       1.913   8.069  19.135  0.00  0.00    +0.000 A 
ATOM     14  C   UNL     1       1.956   8.673  17.892  0.00  0.00    +0.000 A 
ATOM     15  C   UNL     1       1.269   9.922  17.870  0.00  0.00    +0.000 A 
ATOM     16  C   UNL     1       0.731  10.234  19.098  0.00  0.00    +0.000 A 
ATOM     17  S   UNL     1       1.043   9.022  20.262  0.00  0.00    +0.000 S 
ENDBRANCH  12  13
ENDBRANCH   5  12
TORSDOF 2
ENDMDL
MODEL 8
REMARK VINA RESULT:      -6.0      2.949      5.508
REMARK  Name = 
REMARK  4 active torsions:
REMARK  status: ('A' for Active; 'I' for Inactive)
REMARK    1  A    between atoms: C_1  and  N_2
REMARK    2  A    between atoms: C_5  and  C_6
REMARK    3  A    between atoms: C_6  and  C_7
REMARK    4  A    between atoms: N_14  and  C_15
REMARK                            x       y       z     vdW  Elec       q    Type
REMARK                         _______ _______ _______ _____ _____    ______ ____
ROOT
ATOM      1  C   UNL     1       4.100   1.545  18.837  0.00  0.00    +0.000 C 
ATOM      2  N   UNL     1       3.669   2.924  19.002  0.00  0.00    +0.000 N 
ATOM      3  C   UNL     1       4.640   3.902  19.021  0.00  0.00    +0.000 C 
ATOM      4  O   UNL     1       5.845   3.646  19.061  0.00  0.00    +0.000 OA
ATOM      5  C   UNL     1       4.161   5.321  18.981  0.00  0.00    +0.000 C 
ATOM      6  C   UNL     1       2.836   5.526  19.652  0.00  0.00    +0.000 C 
ATOM      7  O   UNL     1       2.485   6.665  19.979  0.00  0.00    +0.000 OA
ATOM      8  N   UNL     1       2.033   4.416  19.816  0.00  0.00    +0.000 N 
ATOM      9  C   UNL     1       0.724   4.590  20.431  0.00  0.00    +0.000 C 
ATOM     10  C   UNL     1       2.396   3.112  19.511  0.00  0.00    +0.000 C 
ATOM     11  O   UNL     1       1.642   2.164  19.737  0.00  0.00    +0.000 OA
ENDROOT
BRANCH   5  12
ATOM     12  C   UNL     1       4.042   5.843  17.543  0.00  0.00    +0.000 C 
BRANCH  12  13
ATOM     13  C   UNL     1       5.083   5.297  16.605  0.00  0.00    +0.000 A 
ATOM     14  C   UNL     1       4.968   4.264  15.694  0.00  0.00    +0.000 A 
ATOM     15  C   UNL     1       6.189   4.011  15.002  0.00  0.00    +0.000 A 
ATOM     16  C   UNL     1       7.196   4.853  15.412  0.00  0.00    +0.000 A 
ATOM     17  S   UNL     1       6.668   5.948  16.613  0.00  0.00    +0.000 S 
ENDBRANCH  12  13
ENDBRANCH   5  12
TORSDOF 2
ENDMDL
MODEL 9
REMARK VINA RESULT:      -5.8      2.992      5.680
REMARK  Name = 
REMARK  4 active torsions:
REMARK  status: ('A' for Active; 'I' for Inactive)
REMARK    1  A    between atoms: C_1  and  N_2
REMARK    2  A    between atoms: C_5  and  C_6
REMARK    3  A    between atoms: C_6  and  C_7
REMARK    4  A    between atoms: N_14  and  C_15
REMARK                            x       y       z     vdW  Elec       q    Type
REMARK                         _______ _______ _______ _____ _____    ______ ____
ROOT
ATOM      1  C   UNL     1       2.216   2.520  20.725  0.00  0.00    +0.000 C 
ATOM      2  N   UNL     1       2.815   3.586  19.938  0.00  0.00    +0.000 N 
ATOM      3  C   UNL     1       4.109   3.408  19.497  0.00  0.00    +0.000 C 
ATOM      4  O   UNL     1       4.818   2.471  19.867  0.00  0.00    +0.000 OA
ATOM      5  C   UNL     1       4.627   4.418  18.519  0.00  0.00    +0.000 C 
ATOM      6  C   UNL     1       4.051   5.789  18.712  0.00  0.00    +0.000 C 
ATOM      7  O   UNL     1       4.616   6.767  18.210  0.00  0.00    +0.000 OA
ATOM      8  N   UNL     1       2.859   5.883  19.401  0.00  0.00    +0.000 N 
ATOM      9  C   UNL     1       2.255   7.197  19.571  0.00  0.00    +0.000 C 
ATOM     10  C   UNL     1       2.209   4.827  20.023  0.00  0.00    +0.000 C 
ATOM     11  O   UNL     1       1.173   4.998  20.667  0.00  0.00    +0.000 OA
ENDROOT
BRANCH   5  12
ATOM     12  C   UNL     1       4.358   3.999  17.068  0.00  0.00    +0.000 C 
BRANCH  12  13
ATOM     13  C   UNL     1       5.492   4.295  16.125  0.00  0.00    +0.000 A 
ATOM     14  C   UNL     1       6.783   4.689  16.423  0.00  0.00    +0.000 A 
ATOM     15  C   UNL     1       7.568   4.908  15.253  0.00  0.00    +0.000 A 
ATOM     16  C   UNL     1       6.850   4.683  14.102  0.00  0.00    +0.000 A 
ATOM     17  S   UNL     1       5.245   4.197  14.432  0.00  0.00    +0.000 S 
ENDBRANCH  12  13
ENDBRANCH   5  12
TORSDOF 2
ENDMDL
