MODEL 1
REMARK VINA RESULT:      -7.1      0.000      0.000
REMARK  Name = 
REMARK  8 active torsions:
REMARK  status: ('A' for Active; 'I' for Inactive)
REMARK    1  A    between atoms: C_1  and  C_2
REMARK    2  A    between atoms: C_7  and  C_8
REMARK    3  A    between atoms: C_8  and  C_9
REMARK    4  A    between atoms: C_9  and  C_10
REMARK    5  A    between atoms: C_10  and  O_11
REMARK    6  A    between atoms: C_16  and  C_18
REMARK    7  A    between atoms: C_18  and  C_19
REMARK    8  A    between atoms: C_19  and  N_20
REMARK                            x       y       z     vdW  Elec       q    Type
REMARK                         _______ _______ _______ _____ _____    ______ ____
ROOT
ATOM      1  C   UNL     1       2.897   6.690  18.593  0.00  0.00    +0.000 C 
ATOM      2  C   UNL     1       3.059   7.809  17.517  0.00  0.00    +0.000 C 
ATOM      3  C   UNL     1       4.183   7.638  16.492  0.00  0.00    +0.000 C 
ATOM      4  C   UNL     1       5.457   7.031  17.049  0.00  0.00    +0.000 C 
ATOM      5  N   UNL     1       5.178   5.882  17.901  0.00  0.00    +0.000 N 
ATOM      6  C   UNL     1       6.033   4.790  18.029  0.00  0.00    +0.000 C 
ATOM      7  O   UNL     1       6.020   4.075  19.037  0.00  0.00    +0.000 OA
ATOM      8  C   UNL     1       4.286   6.165  19.023  0.00  0.00    +0.000 C 
ENDROOT
BRANCH   1   9
ATOM      9  C   UNL     1       2.022   5.459  18.129  0.00  0.00    +0.000 C 
BRANCH   9  16
ATOM     10  C   UNL     1       3.103   2.684  17.326  0.00  0.00    +0.000 C 
ATOM     11  C   UNL     1       2.382   2.972  18.622  0.00  0.00    +0.000 A 
ATOM     12  C   UNL     1       1.968   1.878  19.395  0.00  0.00    +0.000 A 
ATOM     13  C   UNL     1       1.375   2.066  20.646  0.00  0.00    +0.000 A 
ATOM     14  C   UNL     1       1.292   3.345  21.179  0.00  0.00    +0.000 A 
ATOM     15  C   UNL     1       1.685   4.436  20.414  0.00  0.00    +0.000 A 
ATOM     16  C   UNL     1       2.109   4.264  19.077  0.00  0.00    +0.000 A 
ENDBRANCH   9  16
ENDBRANCH   1   9
BRANCH   1  17
ATOM     17  C   UNL     1       2.263   7.364  19.846  0.00  0.00    +0.000 C 
BRANCH  17  18
ATOM     18  O   UNL     1       1.721   8.648  19.569  0.00  0.00    +0.000 OA
ATOM     19  H   UNL     1       1.032   8.847  20.219  0.00  0.00    +0.000 HD
ENDBRANCH  17  18
ENDBRANCH   1  17
BRANCH   6  20
ATOM     20  C   UNL     1       6.977   4.465  16.884  0.00  0.00    +0.000 C 
BRANCH  20  21
ATOM     21  C   UNL     1       6.170   3.828  15.749  0.00  0.00    +0.000 C 
BRANCH  21  22
ATOM     22  N   UNL     1       6.283   4.593  14.497  0.00  0.00    +0.000 NA
ATOM     23  C   UNL     1       6.279   3.691  13.345  0.00  0.00    +0.000 C 
ATOM     24  C   UNL     1       7.009   4.494  12.298  0.00  0.00    +0.000 C 
ATOM     25  C   UNL     1       7.998   5.304  13.103  0.00  0.00    +0.000 C 
ATOM     26  O   UNL     1       7.632   5.157  14.479  0.00  0.00    +0.000 OA
ENDBRANCH  21  22
ENDBRANCH  20  21
ENDBRANCH   6  20
TORSDOF 7
ENDMDL
MODEL 2
REMARK VINA RESULT:      -6.9      3.851      5.804
REMARK  Name = 
REMARK  8 active torsions:
REMARK  status: ('A' for Active; 'I' for Inactive)
REMARK    1  A    between atoms: C_1  and  C_2
REMARK    2  A    between atoms: C_7  and  C_8
REMARK    3  A    between atoms: C_8  and  C_9
REMARK    4  A    between atoms: C_9  and  C_10
REMARK    5  A    between atoms: C_10  and  O_11
REMARK    6  A    between atoms: C_16  and  C_18
REMARK    7  A    between atoms: C_18  and  C_19
REMARK    8  A    between atoms: C_19  and  N_20
REMARK                            x       y       z     vdW  Elec       q    Type
REMARK                         _______ _______ _______ _____ _____    ______ ____
ROOT
ATOM      1  C   UNL     1       5.170   5.063  17.271  0.00  0.00    +0.000 C 
ATOM      2  C   UNL     1       5.490   4.171  18.511  0.00  0.00    +0.000 C 
ATOM      3  C   UNL     1       6.432   4.753  19.568  0.00  0.00    +0.000 C 
ATOM      4  C   UNL     1       7.571   5.586  19.008  0.00  0.00    +0.000 C 
ATOM      5  N   UNL     1       7.108   6.505  17.976  0.00  0.00    +0.000 N 
ATOM      6  C   UNL     1       7.682   7.751  17.738  0.00  0.00    +0.000 C 
ATOM      7  O   UNL     1       7.597   8.301  16.636  0.00  0.00    +0.000 OA
ATOM      8  C   UNL     1       6.426   5.861  16.855  0.00  0.00    +0.000 C 
ENDROOT
BRANCH   1   9
ATOM      9  C   UNL     1       3.981   6.081  17.487  0.00  0.00    +0.000 C 
BRANCH   9  16
ATOM     10  C   UNL     1       2.519   7.253  19.937  0.00  0.00    +0.000 C 
ATOM     11  C   UNL     1       2.265   5.874  19.376  0.00  0.00    +0.000 A 
ATOM     12  C   UNL     1       1.500   4.987  20.146  0.00  0.00    +0.000 A 
ATOM     13  C   UNL     1       1.148   3.728  19.654  0.00  0.00    +0.000 A 
ATOM     14  C   UNL     1       1.467   3.390  18.346  0.00  0.00    +0.000 A 
ATOM     15  C   UNL     1       2.238   4.256  17.580  0.00  0.00    +0.000 A 
ATOM     16  C   UNL     1       2.754   5.447  18.139  0.00  0.00    +0.000 A 
ENDBRANCH   9  16
ENDBRANCH   1   9
BRANCH   1  17
ATOM     17  C   UNL     1       4.844   4.092  16.097  0.00  0.00    +0.000 C 
BRANCH  17  18
ATOM     18  O   UNL     1       5.934   3.247  15.757  0.00  0.00    +0.000 OA
ATOM     19  H   UNL     1       6.224   3.451  14.857  0.00  0.00    +0.000 HD
ENDBRANCH  17  18
ENDBRANCH   1  17
BRANCH   6  20
ATOM     20  C   UNL     1       8.401   8.451  18.879  0.00  0.00    +0.000 C 
BRANCH  20  21
ATOM     21  C   UNL     1       8.675   9.901  18.470  0.00  0.00    +0.000 C 
BRANCH  21  22
ATOM     22  N   UNL     1       9.829  10.467  19.187  0.00  0.00    +0.000 NA
ATOM     23  C   UNL     1       9.402  11.063  20.454  0.00  0.00    +0.000 C 
ATOM     24  C   UNL     1      10.478  12.084  20.714  0.00  0.00    +0.000 C 
ATOM     25  C   UNL     1      10.882  12.531  19.328  0.00  0.00    +0.000 C 
ATOM     26  O   UNL     1      10.276  11.619  18.406  0.00  0.00    +0.000 OA
ENDBRANCH  21  22
ENDBRANCH  20  21
ENDBRANCH   6  20
TORSDOF 7
ENDMDL
MODEL 3
REMARK VINA RESULT:      -6.9      2.284      4.455
REMARK  Name = 
REMARK  8 active torsions:
REMARK  status: ('A' for Active; 'I' for Inactive)
REMARK    1  A    between atoms: C_1  and  C_2
REMARK    2  A    between atoms: C_7  and  C_8
REMARK    3  A    between atoms: C_8  and  C_9
REMARK    4  A    between atoms: C_9  and  C_10
REMARK    5  A    between atoms: C_10  and  O_11
REMARK    6  A    between atoms: C_16  and  C_18
REMARK    7  A    between atoms: C_18  and  C_19
REMARK    8  A    between atoms: C_19  and  N_20
REMARK                            x       y       z     vdW  Elec       q    Type
REMARK                         _______ _______ _______ _____ _____    ______ ____
ROOT
ATOM      1  C   UNL     1       2.406   4.287  19.840  0.00  0.00    +0.000 C 
ATOM      2  C   UNL     1       2.944   3.103  20.703  0.00  0.00    +0.000 C 
ATOM      3  C   UNL     1       4.219   2.407  20.219  0.00  0.00    +0.000 C 
ATOM      4  C   UNL     1       4.326   2.264  18.712  0.00  0.00    +0.000 C 
ATOM      5  N   UNL     1       3.962   3.498  18.027  0.00  0.00    +0.000 N 
ATOM      6  C   UNL     1       4.521   3.903  16.818  0.00  0.00    +0.000 C 
ATOM      7  O   UNL     1       3.922   4.666  16.053  0.00  0.00    +0.000 OA
ATOM      8  C   UNL     1       2.622   3.989  18.339  0.00  0.00    +0.000 C 
ENDROOT
BRANCH   1   9
ATOM      9  C   UNL     1       3.061   5.687  20.170  0.00  0.00    +0.000 C 
BRANCH   9  16
ATOM     10  C   UNL     1       2.879   7.478  17.666  0.00  0.00    +0.000 C 
ATOM     11  C   UNL     1       2.197   7.783  18.978  0.00  0.00    +0.000 A 
ATOM     12  C   UNL     1       1.650   9.062  19.148  0.00  0.00    +0.000 A 
ATOM     13  C   UNL     1       0.927   9.387  20.298  0.00  0.00    +0.000 A 
ATOM     14  C   UNL     1       0.654   8.402  21.237  0.00  0.00    +0.000 A 
ATOM     15  C   UNL     1       1.206   7.135  21.085  0.00  0.00    +0.000 A 
ATOM     16  C   UNL     1       2.092   6.858  20.020  0.00  0.00    +0.000 A 
ENDBRANCH   9  16
ENDBRANCH   1   9
BRANCH   1  17
ATOM     17  C   UNL     1       0.866   4.342  20.072  0.00  0.00    +0.000 C 
BRANCH  17  18
ATOM     18  O   UNL     1       0.278   3.056  20.195  0.00  0.00    +0.000 OA
ATOM     19  H   UNL     1       0.940   2.383  19.977  0.00  0.00    +0.000 HD
ENDBRANCH  17  18
ENDBRANCH   1  17
BRANCH   6  20
ATOM     20  C   UNL     1       5.913   3.412  16.457  0.00  0.00    +0.000 C 
BRANCH  20  21
ATOM     21  C   UNL     1       6.660   4.538  15.737  0.00  0.00    +0.000 C 
BRANCH  21  22
ATOM     22  N   UNL     1       7.603   5.231  16.629  0.00  0.00    +0.000 NA
ATOM     23  C   UNL     1       7.268   4.971  18.029  0.00  0.00    +0.000 C 
ATOM     24  C   UNL     1       7.848   6.171  18.733  0.00  0.00    +0.000 C 
ATOM     25  C   UNL     1       7.702   7.279  17.717  0.00  0.00    +0.000 C 
ATOM     26  O   UNL     1       7.338   6.661  16.478  0.00  0.00    +0.000 OA
ENDBRANCH  21  22
ENDBRANCH  20  21
ENDBRANCH   6  20
TORSDOF 7
ENDMDL
MODEL 4
REMARK VINA RESULT:      -6.7      3.884      7.061
REMARK  Name = 
REMARK  8 active torsions:
REMARK  status: ('A' for Active; 'I' for Inactive)
REMARK    1  A    between atoms: C_1  and  C_2
REMARK    2  A    between atoms: C_7  and  C_8
REMARK    3  A    between atoms: C_8  and  C_9
REMARK    4  A    between atoms: C_9  and  C_10
REMARK    5  A    between atoms: C_10  and  O_11
REMARK    6  A    between atoms: C_16  and  C_18
REMARK    7  A    between atoms: C_18  and  C_19
REMARK    8  A    between atoms: C_19  and  N_20
REMARK                            x       y       z     vdW  Elec       q    Type
REMARK                         _______ _______ _______ _____ _____    ______ ____
ROOT
ATOM      1  C   UNL     1       2.688   6.188  19.295  0.00  0.00    +0.000 C 
ATOM      2  C   UNL     1       2.086   6.084  20.731  0.00  0.00    +0.000 C 
ATOM      3  C   UNL     1       1.013   7.107  21.116  0.00  0.00    +0.000 C 
ATOM      4  C   UNL     1       1.246   8.502  20.567  0.00  0.00    +0.000 C 
ATOM      5  N   UNL     1       1.635   8.469  19.163  0.00  0.00    +0.000 N 
ATOM      6  C   UNL     1       1.315   9.470  18.249  0.00  0.00    +0.000 C 
ATOM      7  O   UNL     1       1.993   9.659  17.234  0.00  0.00    +0.000 OA
ATOM      8  C   UNL     1       2.827   7.671  18.885  0.00  0.00    +0.000 C 
ENDROOT
BRANCH   1   9
ATOM      9  C   UNL     1       1.853   5.439  18.181  0.00  0.00    +0.000 C 
BRANCH   9  16
ATOM     10  C   UNL     1       0.494   3.285  19.920  0.00  0.00    +0.000 C 
ATOM     11  C   UNL     1       1.704   3.035  19.051  0.00  0.00    +0.000 A 
ATOM     12  C   UNL     1       2.393   1.827  19.224  0.00  0.00    +0.000 A 
ATOM     13  C   UNL     1       3.466   1.487  18.397  0.00  0.00    +0.000 A 
ATOM     14  C   UNL     1       3.788   2.305  17.322  0.00  0.00    +0.000 A 
ATOM     15  C   UNL     1       3.120   3.512  17.152  0.00  0.00    +0.000 A 
ATOM     16  C   UNL     1       2.163   3.945  18.096  0.00  0.00    +0.000 A 
ENDBRANCH   9  16
ENDBRANCH   1   9
BRANCH   1  17
ATOM     17  C   UNL     1       4.131   5.605  19.374  0.00  0.00    +0.000 C 
BRANCH  17  18
ATOM     18  O   UNL     1       4.979   6.081  18.339  0.00  0.00    +0.000 OA
ATOM     19  H   UNL     1       5.023   7.048  18.387  0.00  0.00    +0.000 HD
ENDBRANCH  17  18
ENDBRANCH   1  17
BRANCH   6  20
ATOM     20  C   UNL     1       0.083  10.323  18.505  0.00  0.00    +0.000 C 
BRANCH  20  21
ATOM     21  C   UNL     1      -1.072   9.782  17.657  0.00  0.00    +0.000 C 
BRANCH  21  22
ATOM     22  N   UNL     1      -1.970  10.856  17.203  0.00  0.00    +0.000 NA
ATOM     23  C   UNL     1      -3.191  10.877  18.008  0.00  0.00    +0.000 C 
ATOM     24  C   UNL     1      -4.187  11.519  17.077  0.00  0.00    +0.000 C 
ATOM     25  C   UNL     1      -3.736  11.060  15.709  0.00  0.00    +0.000 C 
ATOM     26  O   UNL     1      -2.446  10.462  15.878  0.00  0.00    +0.000 OA
ENDBRANCH  21  22
ENDBRANCH  20  21
ENDBRANCH   6  20
TORSDOF 7
ENDMDL
MODEL 5
REMARK VINA RESULT:      -6.7      2.893      6.751
REMARK  Name = 
REMARK  8 active torsions:
REMARK  status: ('A' for Active; 'I' for Inactive)
REMARK    1  A    between atoms: C_1  and  C_2
REMARK    2  A    between atoms: C_7  and  C_8
REMARK    3  A    between atoms: C_8  and  C_9
REMARK    4  A    between atoms: C_9  and  C_10
REMARK    5  A    between atoms: C_10  and  O_11
REMARK    6  A    between atoms: C_16  and  C_18
REMARK    7  A    between atoms: C_18  and  C_19
REMARK    8  A    between atoms: C_19  and  N_20
REMARK                            x       y       z     vdW  Elec       q    Type
REMARK                         _______ _______ _______ _____ _____    ______ ____
ROOT
ATOM      1  C   UNL     1       4.008   3.439  18.511  0.00  0.00    +0.000 C 
ATOM      2  C   UNL     1       2.807   2.683  17.859  0.00  0.00    +0.000 C 
ATOM      3  C   UNL     1       1.674   3.536  17.283  0.00  0.00    +0.000 C 
ATOM      4  C   UNL     1       1.347   4.779  18.089  0.00  0.00    +0.000 C 
ATOM      5  N   UNL     1       2.553   5.492  18.490  0.00  0.00    +0.000 N 
ATOM      6  C   UNL     1       2.617   6.875  18.646  0.00  0.00    +0.000 C 
ATOM      7  O   UNL     1       3.455   7.403  19.384  0.00  0.00    +0.000 OA
ATOM      8  C   UNL     1       3.500   4.691  19.262  0.00  0.00    +0.000 C 
ENDROOT
BRANCH   1   9
ATOM      9  C   UNL     1       5.128   3.889  17.491  0.00  0.00    +0.000 C 
BRANCH   9  16
ATOM     10  C   UNL     1       5.002   6.618  16.059  0.00  0.00    +0.000 C 
ATOM     11  C   UNL     1       5.994   6.274  17.145  0.00  0.00    +0.000 A 
ATOM     12  C   UNL     1       7.068   7.152  17.350  0.00  0.00    +0.000 A 
ATOM     13  C   UNL     1       7.974   6.947  18.393  0.00  0.00    +0.000 A 
ATOM     14  C   UNL     1       7.748   5.925  19.305  0.00  0.00    +0.000 A 
ATOM     15  C   UNL     1       6.696   5.041  19.102  0.00  0.00    +0.000 A 
ATOM     16  C   UNL     1       5.891   5.133  17.944  0.00  0.00    +0.000 A 
ENDBRANCH   9  16
ENDBRANCH   1   9
BRANCH   1  17
ATOM     17  C   UNL     1       4.606   2.481  19.585  0.00  0.00    +0.000 C 
BRANCH  17  18
ATOM     18  O   UNL     1       3.788   2.363  20.739  0.00  0.00    +0.000 OA
ATOM     19  H   UNL     1       4.052   3.036  21.384  0.00  0.00    +0.000 HD
ENDBRANCH  17  18
ENDBRANCH   1  17
BRANCH   6  20
ATOM     20  C   UNL     1       1.648   7.742  17.861  0.00  0.00    +0.000 C 
BRANCH  20  21
ATOM     21  C   UNL     1       2.158   9.186  17.876  0.00  0.00    +0.000 C 
BRANCH  21  22
ATOM     22  N   UNL     1       1.140  10.123  18.380  0.00  0.00    +0.000 NA
ATOM     23  C   UNL     1       0.847   9.852  19.788  0.00  0.00    +0.000 C 
ATOM     24  C   UNL     1      -0.550  10.393  19.941  0.00  0.00    +0.000 C 
ATOM     25  C   UNL     1      -1.172  10.153  18.585  0.00  0.00    +0.000 C 
ATOM     26  O   UNL     1      -0.109   9.778  17.703  0.00  0.00    +0.000 OA
ENDBRANCH  21  22
ENDBRANCH  20  21
ENDBRANCH   6  20
TORSDOF 7
ENDMDL
MODEL 6
REMARK VINA RESULT:      -6.6      2.609      6.869
REMARK  Name = 
REMARK  8 active torsions:
REMARK  status: ('A' for Active; 'I' for Inactive)
REMARK    1  A    between atoms: C_1  and  C_2
REMARK    2  A    between atoms: C_7  and  C_8
REMARK    3  A    between atoms: C_8  and  C_9
REMARK    4  A    between atoms: C_9  and  C_10
REMARK    5  A    between atoms: C_10  and  O_11
REMARK    6  A    between atoms: C_16  and  C_18
REMARK    7  A    between atoms: C_18  and  C_19
REMARK    8  A    between atoms: C_19  and  N_20
REMARK                            x       y       z     vdW  Elec       q    Type
REMARK                         _______ _______ _______ _____ _____    ______ ____
ROOT
ATOM      1  C   UNL     1       4.183   3.791  19.151  0.00  0.00    +0.000 C 
ATOM      2  C   UNL     1       3.608   3.042  17.909  0.00  0.00    +0.000 C 
ATOM      3  C   UNL     1       2.720   3.846  16.955  0.00  0.00    +0.000 C 
ATOM      4  C   UNL     1       1.806   4.847  17.639  0.00  0.00    +0.000 C 
ATOM      5  N   UNL     1       2.512   5.607  18.662  0.00  0.00    +0.000 N 
ATOM      6  C   UNL     1       2.206   6.925  18.993  0.00  0.00    +0.000 C 
ATOM      7  O   UNL     1       2.476   7.391  20.105  0.00  0.00    +0.000 OA
ATOM      8  C   UNL     1       3.138   4.789  19.699  0.00  0.00    +0.000 C 
ENDROOT
BRANCH   1   9
ATOM      9  C   UNL     1       5.526   4.578  18.876  0.00  0.00    +0.000 C 
BRANCH   9  16
ATOM     10  C   UNL     1       5.308   7.291  17.427  0.00  0.00    +0.000 C 
ATOM     11  C   UNL     1       5.479   5.965  16.724  0.00  0.00    +0.000 A 
ATOM     12  C   UNL     1       5.289   5.933  15.336  0.00  0.00    +0.000 A 
ATOM     13  C   UNL     1       5.517   4.764  14.607  0.00  0.00    +0.000 A 
ATOM     14  C   UNL     1       6.042   3.649  15.246  0.00  0.00    +0.000 A 
ATOM     15  C   UNL     1       6.219   3.666  16.625  0.00  0.00    +0.000 A 
ATOM     16  C   UNL     1       5.812   4.782  17.389  0.00  0.00    +0.000 A 
ENDBRANCH   9  16
ENDBRANCH   1   9
BRANCH   1  17
ATOM     17  C   UNL     1       4.403   2.716  20.258  0.00  0.00    +0.000 C 
BRANCH  17  18
ATOM     18  O   UNL     1       5.138   1.591  19.799  0.00  0.00    +0.000 OA
ATOM     19  H   UNL     1       4.824   1.346  18.916  0.00  0.00    +0.000 HD
ENDBRANCH  17  18
ENDBRANCH   1  17
BRANCH   6  20
ATOM     20  C   UNL     1       1.553   7.807  17.943  0.00  0.00    +0.000 C 
BRANCH  20  21
ATOM     21  C   UNL     1       1.831   9.272  18.289  0.00  0.00    +0.000 C 
BRANCH  21  22
ATOM     22  N   UNL     1       0.692   9.901  18.977  0.00  0.00    +0.000 NA
ATOM     23  C   UNL     1      -0.433  10.068  18.056  0.00  0.00    +0.000 C 
ATOM     24  C   UNL     1      -1.189  11.218  18.668  0.00  0.00    +0.000 C 
ATOM     25  C   UNL     1      -0.103  12.058  19.299  0.00  0.00    +0.000 C 
ATOM     26  O   UNL     1       1.095  11.275  19.270  0.00  0.00    +0.000 OA
ENDBRANCH  21  22
ENDBRANCH  20  21
ENDBRANCH   6  20
TORSDOF 7
ENDMDL
MODEL 7
REMARK VINA RESULT:      -6.6      3.915      6.309
REMARK  Name = 
REMARK  8 active torsions:
REMARK  status: ('A' for Active; 'I' for Inactive)
REMARK    1  A    between atoms: C_1  and  C_2
REMARK    2  A    between atoms: C_7  and  C_8
REMARK    3  A    between atoms: C_8  and  C_9
REMARK    4  A    between atoms: C_9  and  C_10
REMARK    5  A    between atoms: C_10  and  O_11
REMARK    6  A    between atoms: C_16  and  C_18
REMARK    7  A    between atoms: C_18  and  C_19
REMARK    8  A    between atoms: C_19  and  N_20
REMARK                            x       y       z     vdW  Elec       q    Type
REMARK                         _______ _______ _______ _____ _____    ______ ____
ROOT
ATOM      1  C   UNL     1       0.757  10.050  19.865  0.00  0.00    +0.000 C 
ATOM      2  C   UNL     1       1.400  10.612  18.558  0.00  0.00    +0.000 C 
ATOM      3  C   UNL     1       2.018   9.599  17.591  0.00  0.00    +0.000 C 
ATOM      4  C   UNL     1       2.728   8.438  18.263  0.00  0.00    +0.000 C 
ATOM      5  N   UNL     1       1.942   7.889  19.360  0.00  0.00    +0.000 N 
ATOM      6  C   UNL     1       1.966   6.546  19.730  0.00  0.00    +0.000 C 
ATOM      7  O   UNL     1       1.674   6.187  20.875  0.00  0.00    +0.000 OA
ATOM      8  C   UNL     1       1.587   8.858  20.393  0.00  0.00    +0.000 C 
ENDROOT
BRANCH   1   9
ATOM      9  C   UNL     1      -0.744   9.580  19.705  0.00  0.00    +0.000 C 
BRANCH   9  16
ATOM     10  C   UNL     1      -2.198  12.281  20.025  0.00  0.00    +0.000 C 
ATOM     11  C   UNL     1      -2.320  11.390  18.812  0.00  0.00    +0.000 A 
ATOM     12  C   UNL     1      -3.330  11.684  17.885  0.00  0.00    +0.000 A 
ATOM     13  C   UNL     1      -3.447  10.960  16.697  0.00  0.00    +0.000 A 
ATOM     14  C   UNL     1      -2.488  10.008  16.377  0.00  0.00    +0.000 A 
ATOM     15  C   UNL     1      -1.493   9.699  17.296  0.00  0.00    +0.000 A 
ATOM     16  C   UNL     1      -1.483  10.296  18.577  0.00  0.00    +0.000 A 
ENDBRANCH   9  16
ENDBRANCH   1   9
BRANCH   1  17
ATOM     17  C   UNL     1       0.860  11.180  20.933  0.00  0.00    +0.000 C 
BRANCH  17  18
ATOM     18  O   UNL     1       0.548  10.733  22.244  0.00  0.00    +0.000 OA
ATOM     19  H   UNL     1       0.201   9.830  22.197  0.00  0.00    +0.000 HD
ENDBRANCH  17  18
ENDBRANCH   1  17
BRANCH   6  20
ATOM     20  C   UNL     1       2.332   5.508  18.683  0.00  0.00    +0.000 C 
BRANCH  20  21
ATOM     21  C   UNL     1       3.599   4.778  19.138  0.00  0.00    +0.000 C 
BRANCH  21  22
ATOM     22  N   UNL     1       4.821   5.486  18.722  0.00  0.00    +0.000 NA
ATOM     23  C   UNL     1       4.896   5.563  17.263  0.00  0.00    +0.000 C 
ATOM     24  C   UNL     1       6.376   5.698  17.018  0.00  0.00    +0.000 C 
ATOM     25  C   UNL     1       6.994   4.905  18.146  0.00  0.00    +0.000 C 
ATOM     26  O   UNL     1       5.941   4.613  19.072  0.00  0.00    +0.000 OA
ENDBRANCH  21  22
ENDBRANCH  20  21
ENDBRANCH   6  20
TORSDOF 7
ENDMDL
MODEL 8
REMARK VINA RESULT:      -6.5      4.188      6.869
REMARK  Name = 
REMARK  8 active torsions:
REMARK  status: ('A' for Active; 'I' for Inactive)
REMARK    1  A    between atoms: C_1  and  C_2
REMARK    2  A    between atoms: C_7  and  C_8
REMARK    3  A    between atoms: C_8  and  C_9
REMARK    4  A    between atoms: C_9  and  C_10
REMARK    5  A    between atoms: C_10  and  O_11
REMARK    6  A    between atoms: C_16  and  C_18
REMARK    7  A    between atoms: C_18  and  C_19
REMARK    8  A    between atoms: C_19  and  N_20
REMARK                            x       y       z     vdW  Elec       q    Type
REMARK                         _______ _______ _______ _____ _____    ______ ____
ROOT
ATOM      1  C   UNL     1       0.478  10.282  19.920  0.00  0.00    +0.000 C 
ATOM      2  C   UNL     1       1.157  10.874  18.645  0.00  0.00    +0.000 C 
ATOM      3  C   UNL     1       1.872   9.893  17.712  0.00  0.00    +0.000 C 
ATOM      4  C   UNL     1       2.604   8.769  18.422  0.00  0.00    +0.000 C 
ATOM      5  N   UNL     1       1.792   8.181  19.479  0.00  0.00    +0.000 N 
ATOM      6  C   UNL     1       1.863   6.842  19.854  0.00  0.00    +0.000 C 
ATOM      7  O   UNL     1       1.533   6.469  20.984  0.00  0.00    +0.000 OA
ATOM      8  C   UNL     1       1.339   9.132  20.492  0.00  0.00    +0.000 C 
ENDROOT
BRANCH   1   9
ATOM      9  C   UNL     1      -0.987   9.739  19.687  0.00  0.00    +0.000 C 
BRANCH   9  16
ATOM     10  C   UNL     1      -2.587  12.372  19.820  0.00  0.00    +0.000 C 
ATOM     11  C   UNL     1      -2.588  11.438  18.634  0.00  0.00    +0.000 A 
ATOM     12  C   UNL     1      -3.548  11.651  17.635  0.00  0.00    +0.000 A 
ATOM     13  C   UNL     1      -3.553  10.885  16.467  0.00  0.00    +0.000 A 
ATOM     14  C   UNL     1      -2.530   9.973  16.242  0.00  0.00    +0.000 A 
ATOM     15  C   UNL     1      -1.583   9.744  17.233  0.00  0.00    +0.000 A 
ATOM     16  C   UNL     1      -1.686  10.381  18.490  0.00  0.00    +0.000 A 
ENDBRANCH   9  16
ENDBRANCH   1   9
BRANCH   1  17
ATOM     17  C   UNL     1       0.473  11.415  20.989  0.00  0.00    +0.000 C 
BRANCH  17  18
ATOM     18  O   UNL     1       0.360  10.924  22.317  0.00  0.00    +0.000 OA
ATOM     19  H   UNL     1       0.598   9.986  22.328  0.00  0.00    +0.000 HD
ENDBRANCH  17  18
ENDBRANCH   1  17
BRANCH   6  20
ATOM     20  C   UNL     1       2.332   5.823  18.829  0.00  0.00    +0.000 C 
BRANCH  20  21
ATOM     21  C   UNL     1       3.631   5.186  19.329  0.00  0.00    +0.000 C 
BRANCH  21  22
ATOM     22  N   UNL     1       3.540   3.718  19.382  0.00  0.00    +0.000 NA
ATOM     23  C   UNL     1       4.025   3.129  18.134  0.00  0.00    +0.000 C 
ATOM     24  C   UNL     1       3.305   1.806  18.094  0.00  0.00    +0.000 C 
ATOM     25  C   UNL     1       1.988   2.101  18.774  0.00  0.00    +0.000 C 
ATOM     26  O   UNL     1       2.114   3.394  19.376  0.00  0.00    +0.000 OA
ENDBRANCH  21  22
ENDBRANCH  20  21
ENDBRANCH   6  20
TORSDOF 7
ENDMDL
MODEL 9
REMARK VINA RESULT:      -6.5      2.093      4.511
REMARK  Name = 
REMARK  8 active torsions:
REMARK  status: ('A' for Active; 'I' for Inactive)
REMARK    1  A    between atoms: C_1  and  C_2
REMARK    2  A    between atoms: C_7  and  C_8
REMARK    3  A    between atoms: C_8  and  C_9
REMARK    4  A    between atoms: C_9  and  C_10
REMARK    5  A    between atoms: C_10  and  O_11
REMARK    6  A    between atoms: C_16  and  C_18
REMARK    7  A    between atoms: C_18  and  C_19
REMARK    8  A    between atoms: C_19  and  N_20
REMARK                            x       y       z     vdW  Elec       q    Type
REMARK                         _______ _______ _______ _____ _____    ______ ____
ROOT
ATOM      1  C   UNL     1       2.452   4.045  19.194  0.00  0.00    +0.000 C 
ATOM      2  C   UNL     1       2.691   2.592  19.712  0.00  0.00    +0.000 C 
ATOM      3  C   UNL     1       3.867   1.818  19.110  0.00  0.00    +0.000 C 
ATOM      4  C   UNL     1       4.093   2.066  17.630  0.00  0.00    +0.000 C 
ATOM      5  N   UNL     1       4.017   3.484  17.304  0.00  0.00    +0.000 N 
ATOM      6  C   UNL     1       4.753   4.082  16.284  0.00  0.00    +0.000 C 
ATOM      7  O   UNL     1       4.372   5.123  15.739  0.00  0.00    +0.000 OA
ATOM      8  C   UNL     1       2.758   4.124  17.681  0.00  0.00    +0.000 C 
ENDROOT
BRANCH   1   9
ATOM      9  C   UNL     1       3.306   5.151  19.933  0.00  0.00    +0.000 C 
BRANCH   9  16
ATOM     10  C   UNL     1       1.443   7.257  21.198  0.00  0.00    +0.000 C 
ATOM     11  C   UNL     1       2.072   7.392  19.832  0.00  0.00    +0.000 A 
ATOM     12  C   UNL     1       1.599   8.412  18.993  0.00  0.00    +0.000 A 
ATOM     13  C   UNL     1       2.192   8.654  17.753  0.00  0.00    +0.000 A 
ATOM     14  C   UNL     1       3.333   7.950  17.390  0.00  0.00    +0.000 A 
ATOM     15  C   UNL     1       3.800   6.928  18.207  0.00  0.00    +0.000 A 
ATOM     16  C   UNL     1       3.091   6.555  19.371  0.00  0.00    +0.000 A 
ENDBRANCH   9  16
ENDBRANCH   1   9
BRANCH   1  17
ATOM     17  C   UNL     1       0.931   4.334  19.361  0.00  0.00    +0.000 C 
BRANCH  17  18
ATOM     18  O   UNL     1       0.348   3.622  20.444  0.00  0.00    +0.000 OA
ATOM     19  H   UNL     1      -0.375   4.148  20.815  0.00  0.00    +0.000 HD
ENDBRANCH  17  18
ENDBRANCH   1  17
BRANCH   6  20
ATOM     20  C   UNL     1       6.066   3.446  15.863  0.00  0.00    +0.000 C 
BRANCH  20  21
ATOM     21  C   UNL     1       6.994   4.540  15.329  0.00  0.00    +0.000 C 
BRANCH  21  22
ATOM     22  N   UNL     1       7.767   5.180  16.405  0.00  0.00    +0.000 NA
ATOM     23  C   UNL     1       7.328   4.689  17.712  0.00  0.00    +0.000 C 
ATOM     24  C   UNL     1       7.707   5.821  18.632  0.00  0.00    +0.000 C 
ATOM     25  C   UNL     1       7.541   7.048  17.766  0.00  0.00    +0.000 C 
ATOM     26  O   UNL     1       7.366   6.586  16.422  0.00  0.00    +0.000 OA
ENDBRANCH  21  22
ENDBRANCH  20  21
ENDBRANCH   6  20
TORSDOF 7
ENDMDL
