MODEL 1
REMARK VINA RESULT:      -8.9      0.000      0.000
REMARK  Name = 
REMARK  9 active torsions:
REMARK  status: ('A' for Active; 'I' for Inactive)
REMARK    1  A    between atoms: C_1  and  C_2
REMARK    2  A    between atoms: C_2  and  C_3
REMARK    3  A    between atoms: C_3  and  C_4
REMARK    4  A    between atoms: C_4  and  C_5
REMARK    5  A    between atoms: C_5  and  N_6
REMARK    6  A    between atoms: C_8  and  C_9
REMARK    7  A    between atoms: N_11  and  C_12
REMARK    8  A    between atoms: C_12  and  C_13
REMARK    9  A    between atoms: C_12  and  C_14
REMARK                            x       y       z     vdW  Elec       q    Type
REMARK                         _______ _______ _______ _____ _____    ______ ____
ROOT
ATOM      1  N   UNL     1      -0.610  10.905  18.871  0.00  0.00    +0.000 N 
ATOM      2  C   UNL     1       0.354  10.063  18.303  0.00  0.00    +0.000 A 
ATOM      3  C   UNL     1       1.062   9.107  18.924  0.00  0.00    +0.000 A 
ATOM      4  C   UNL     1       0.797   8.937  20.367  0.00  0.00    +0.000 A 
ATOM      5  O   UNL     1       1.264   7.988  21.000  0.00  0.00    +0.000 OA
ATOM      6  C   UNL     1      -0.027   9.960  21.045  0.00  0.00    +0.000 A 
ATOM      7  C   UNL     1      -0.058   9.952  22.449  0.00  0.00    +0.000 A 
ATOM      8  C   UNL     1      -0.800  10.903  23.134  0.00  0.00    +0.000 A 
ATOM      9  C   UNL     1      -1.525  11.841  22.411  0.00  0.00    +0.000 A 
ATOM     10 CL   UNL     1      -2.461  13.019  23.252  0.00  0.00    +0.000 Cl
ATOM     11  C   UNL     1      -1.501  11.848  21.010  0.00  0.00    +0.000 A 
ATOM     12  C   UNL     1      -0.731  10.923  20.284  0.00  0.00    +0.000 A 
ENDROOT
BRANCH   3  13
ATOM     13  C   UNL     1       2.057   8.292  18.161  0.00  0.00    +0.000 C 
ATOM     14  O   UNL     1       2.699   8.775  17.233  0.00  0.00    +0.000 OA
ATOM     15  N   UNL     1       2.189   6.984  18.577  0.00  0.00    +0.000 N 
ATOM     16  H   UNL     1       1.727   6.731  19.451  0.00  0.00    +0.000 HD
BRANCH  15  17
ATOM     17  C   UNL     1       3.178   6.055  18.025  0.00  0.00    +0.000 C 
ATOM     18  C   UNL     1       4.582   6.582  18.341  0.00  0.00    +0.000 C 
BRANCH  17  19
ATOM     19  C   UNL     1       2.916   4.571  18.474  0.00  0.00    +0.000 C 
ATOM     20  C   UNL     1       4.197   3.997  19.149  0.00  0.00    +0.000 C 
ATOM     21  C   UNL     1       3.971   2.561  19.653  0.00  0.00    +0.000 C 
ATOM     22  C   UNL     1       2.827   2.551  20.677  0.00  0.00    +0.000 C 
ATOM     23  C   UNL     1       1.538   3.069  20.023  0.00  0.00    +0.000 C 
ATOM     24  C   UNL     1       1.169   2.176  18.828  0.00  0.00    +0.000 C 
ATOM     25  C   UNL     1       2.311   2.183  17.800  0.00  0.00    +0.000 C 
ATOM     26  C   UNL     1       3.593   1.661  18.466  0.00  0.00    +0.000 C 
ATOM     27  C   UNL     1       2.538   3.626  17.300  0.00  0.00    +0.000 C 
ATOM     28  C   UNL     1       1.766   4.507  19.526  0.00  0.00    +0.000 C 
ENDBRANCH  17  19
ENDBRANCH  15  17
ENDBRANCH   3  13
BRANCH   1  29
ATOM     29  C   UNL     1      -1.286  11.940  18.054  0.00  0.00    +0.000 C 
BRANCH  29  30
ATOM     30  C   UNL     1      -2.280  11.330  17.057  0.00  0.00    +0.000 C 
BRANCH  30  31
ATOM     31  C   UNL     1      -3.405  10.602  17.795  0.00  0.00    +0.000 C 
BRANCH  31  33
ATOM     32  C   UNL     1      -5.848  11.027  18.209  0.00  0.00    +0.000 C 
ATOM     33  C   UNL     1      -4.440  11.583  18.345  0.00  0.00    +0.000 C 
ENDBRANCH  31  33
ENDBRANCH  30  31
ENDBRANCH  29  30
ENDBRANCH   1  29
TORSDOF 7
ENDMDL
MODEL 2
REMARK VINA RESULT:      -8.9      0.820      1.710
REMARK  Name = 
REMARK  9 active torsions:
REMARK  status: ('A' for Active; 'I' for Inactive)
REMARK    1  A    between atoms: C_1  and  C_2
REMARK    2  A    between atoms: C_2  and  C_3
REMARK    3  A    between atoms: C_3  and  C_4
REMARK    4  A    between atoms: C_4  and  C_5
REMARK    5  A    between atoms: C_5  and  N_6
REMARK    6  A    between atoms: C_8  and  C_9
REMARK    7  A    between atoms: N_11  and  C_12
REMARK    8  A    between atoms: C_12  and  C_13
REMARK    9  A    between atoms: C_12  and  C_14
REMARK                            x       y       z     vdW  Elec       q    Type
REMARK                         _______ _______ _______ _____ _____    ______ ____
ROOT
ATOM      1  N   UNL     1      -0.373  10.956  18.971  0.00  0.00    +0.000 N 
ATOM      2  C   UNL     1       0.569  10.098  18.393  0.00  0.00    +0.000 A 
ATOM      3  C   UNL     1       1.198   9.069  18.983  0.00  0.00    +0.000 A 
ATOM      4  C   UNL     1       0.860   8.829  20.401  0.00  0.00    +0.000 A 
ATOM      5  O   UNL     1       1.248   7.820  20.994  0.00  0.00    +0.000 OA
ATOM      6  C   UNL     1       0.062   9.854  21.106  0.00  0.00    +0.000 A 
ATOM      7  C   UNL     1      -0.033   9.765  22.504  0.00  0.00    +0.000 A 
ATOM      8  C   UNL     1      -0.753  10.713  23.215  0.00  0.00    +0.000 A 
ATOM      9  C   UNL     1      -1.396  11.730  22.522  0.00  0.00    +0.000 A 
ATOM     10 CL   UNL     1      -2.305  12.906  23.393  0.00  0.00    +0.000 Cl
ATOM     11  C   UNL     1      -1.309  11.819  21.125  0.00  0.00    +0.000 A 
ATOM     12  C   UNL     1      -0.556  10.898  20.377  0.00  0.00    +0.000 A 
ENDROOT
BRANCH   3  13
ATOM     13  C   UNL     1       2.182   8.247  18.214  0.00  0.00    +0.000 C 
ATOM     14  O   UNL     1       2.894   8.750  17.349  0.00  0.00    +0.000 OA
ATOM     15  N   UNL     1       2.221   6.910  18.547  0.00  0.00    +0.000 N 
ATOM     16  H   UNL     1       1.704   6.630  19.382  0.00  0.00    +0.000 HD
BRANCH  15  17
ATOM     17  C   UNL     1       3.183   5.962  17.981  0.00  0.00    +0.000 C 
ATOM     18  C   UNL     1       4.598   6.512  18.184  0.00  0.00    +0.000 C 
BRANCH  17  19
ATOM     19  C   UNL     1       2.962   4.499  18.516  0.00  0.00    +0.000 C 
ATOM     20  C   UNL     1       2.549   3.570  17.336  0.00  0.00    +0.000 C 
ATOM     21  C   UNL     1       2.372   2.115  17.803  0.00  0.00    +0.000 C 
ATOM     22  C   UNL     1       3.692   1.603  18.396  0.00  0.00    +0.000 C 
ATOM     23  C   UNL     1       4.098   2.474  19.593  0.00  0.00    +0.000 C 
ATOM     24  C   UNL     1       2.998   2.427  20.664  0.00  0.00    +0.000 C 
ATOM     25  C   UNL     1       1.675   2.939  20.075  0.00  0.00    +0.000 C 
ATOM     26  C   UNL     1       1.279   2.058  18.881  0.00  0.00    +0.000 C 
ATOM     27  C   UNL     1       1.857   4.398  19.604  0.00  0.00    +0.000 C 
ATOM     28  C   UNL     1       4.280   3.927  19.121  0.00  0.00    +0.000 C 
ENDBRANCH  17  19
ENDBRANCH  15  17
ENDBRANCH   3  13
BRANCH   1  29
ATOM     29  C   UNL     1      -0.958  12.074  18.192  0.00  0.00    +0.000 C 
BRANCH  29  30
ATOM     30  C   UNL     1      -2.270  11.674  17.505  0.00  0.00    +0.000 C 
BRANCH  30  31
ATOM     31  C   UNL     1      -2.134  10.302  16.842  0.00  0.00    +0.000 C 
BRANCH  31  33
ATOM     32  C   UNL     1      -3.047  10.117  14.507  0.00  0.00    +0.000 C 
ATOM     33  C   UNL     1      -3.357   9.969  15.988  0.00  0.00    +0.000 C 
ENDBRANCH  31  33
ENDBRANCH  30  31
ENDBRANCH  29  30
ENDBRANCH   1  29
TORSDOF 7
ENDMDL
MODEL 3
REMARK VINA RESULT:      -8.9      0.865      1.210
REMARK  Name = 
REMARK  9 active torsions:
REMARK  status: ('A' for Active; 'I' for Inactive)
REMARK    1  A    between atoms: C_1  and  C_2
REMARK    2  A    between atoms: C_2  and  C_3
REMARK    3  A    between atoms: C_3  and  C_4
REMARK    4  A    between atoms: C_4  and  C_5
REMARK    5  A    between atoms: C_5  and  N_6
REMARK    6  A    between atoms: C_8  and  C_9
REMARK    7  A    between atoms: N_11  and  C_12
REMARK    8  A    between atoms: C_12  and  C_13
REMARK    9  A    between atoms: C_12  and  C_14
REMARK                            x       y       z     vdW  Elec       q    Type
REMARK                         _______ _______ _______ _____ _____    ______ ____
ROOT
ATOM      1  N   UNL     1      -1.059  10.969  18.671  0.00  0.00    +0.000 N 
ATOM      2  C   UNL     1      -0.065  10.124  18.164  0.00  0.00    +0.000 A 
ATOM      3  C   UNL     1       0.773   9.344  18.866  0.00  0.00    +0.000 A 
ATOM      4  C   UNL     1       0.631   9.398  20.335  0.00  0.00    +0.000 A 
ATOM      5  O   UNL     1       1.229   8.609  21.069  0.00  0.00    +0.000 OA
ATOM      6  C   UNL     1      -0.232  10.451  20.910  0.00  0.00    +0.000 A 
ATOM      7  C   UNL     1      -0.160  10.676  22.293  0.00  0.00    +0.000 A 
ATOM      8  C   UNL     1      -0.935  11.666  22.879  0.00  0.00    +0.000 A 
ATOM      9  C   UNL     1      -1.796  12.408  22.082  0.00  0.00    +0.000 A 
ATOM     10 CL   UNL     1      -2.773  13.632  22.801  0.00  0.00    +0.000 Cl
ATOM     11  C   UNL     1      -1.875  12.182  20.701  0.00  0.00    +0.000 A 
ATOM     12  C   UNL     1      -1.077  11.214  20.068  0.00  0.00    +0.000 A 
ENDROOT
BRANCH   3  13
ATOM     13  C   UNL     1       1.781   8.495  18.159  0.00  0.00    +0.000 C 
ATOM     14  O   UNL     1       2.425   8.929  17.207  0.00  0.00    +0.000 OA
ATOM     15  N   UNL     1       1.923   7.216  18.654  0.00  0.00    +0.000 N 
ATOM     16  H   UNL     1       1.458   7.011  19.539  0.00  0.00    +0.000 HD
BRANCH  15  17
ATOM     17  C   UNL     1       2.925   6.266  18.165  0.00  0.00    +0.000 C 
ATOM     18  C   UNL     1       4.321   6.807  18.491  0.00  0.00    +0.000 C 
BRANCH  17  19
ATOM     19  C   UNL     1       2.652   4.802  18.670  0.00  0.00    +0.000 C 
ATOM     20  C   UNL     1       3.984   4.168  19.172  0.00  0.00    +0.000 C 
ATOM     21  C   UNL     1       3.757   2.750  19.725  0.00  0.00    +0.000 C 
ATOM     22  C   UNL     1       2.766   2.809  20.896  0.00  0.00    +0.000 C 
ATOM     23  C   UNL     1       1.427   3.388  20.418  0.00  0.00    +0.000 C 
ATOM     24  C   UNL     1       0.852   2.505  19.299  0.00  0.00    +0.000 C 
ATOM     25  C   UNL     1       1.840   2.443  18.124  0.00  0.00    +0.000 C 
ATOM     26  C   UNL     1       3.174   1.860  18.616  0.00  0.00    +0.000 C 
ATOM     27  C   UNL     1       2.068   3.867  17.574  0.00  0.00    +0.000 C 
ATOM     28  C   UNL     1       1.657   4.807  19.871  0.00  0.00    +0.000 C 
ENDBRANCH  17  19
ENDBRANCH  15  17
ENDBRANCH   3  13
BRANCH   1  29
ATOM     29  C   UNL     1      -1.887  11.795  17.761  0.00  0.00    +0.000 C 
BRANCH  29  30
ATOM     30  C   UNL     1      -3.377  11.442  17.857  0.00  0.00    +0.000 C 
BRANCH  30  31
ATOM     31  C   UNL     1      -3.891  10.909  16.518  0.00  0.00    +0.000 C 
BRANCH  31  33
ATOM     32  C   UNL     1      -3.227  10.044  14.252  0.00  0.00    +0.000 C 
ATOM     33  C   UNL     1      -2.763  10.789  15.494  0.00  0.00    +0.000 C 
ENDBRANCH  31  33
ENDBRANCH  30  31
ENDBRANCH  29  30
ENDBRANCH   1  29
TORSDOF 7
ENDMDL
MODEL 4
REMARK VINA RESULT:      -8.8      0.379      1.373
REMARK  Name = 
REMARK  9 active torsions:
REMARK  status: ('A' for Active; 'I' for Inactive)
REMARK    1  A    between atoms: C_1  and  C_2
REMARK    2  A    between atoms: C_2  and  C_3
REMARK    3  A    between atoms: C_3  and  C_4
REMARK    4  A    between atoms: C_4  and  C_5
REMARK    5  A    between atoms: C_5  and  N_6
REMARK    6  A    between atoms: C_8  and  C_9
REMARK    7  A    between atoms: N_11  and  C_12
REMARK    8  A    between atoms: C_12  and  C_13
REMARK    9  A    between atoms: C_12  and  C_14
REMARK                            x       y       z     vdW  Elec       q    Type
REMARK                         _______ _______ _______ _____ _____    ______ ____
ROOT
ATOM      1  N   UNL     1      -0.864  10.897  18.634  0.00  0.00    +0.000 N 
ATOM      2  C   UNL     1       0.135  10.057  18.128  0.00  0.00    +0.000 A 
ATOM      3  C   UNL     1       0.938   9.239  18.828  0.00  0.00    +0.000 A 
ATOM      4  C   UNL     1       0.746   9.239  20.293  0.00  0.00    +0.000 A 
ATOM      5  O   UNL     1       1.308   8.414  21.016  0.00  0.00    +0.000 OA
ATOM      6  C   UNL     1      -0.123  10.283  20.878  0.00  0.00    +0.000 A 
ATOM      7  C   UNL     1      -0.096  10.454  22.271  0.00  0.00    +0.000 A 
ATOM      8  C   UNL     1      -0.877  11.432  22.867  0.00  0.00    +0.000 A 
ATOM      9  C   UNL     1      -1.700  12.217  22.070  0.00  0.00    +0.000 A 
ATOM     10 CL   UNL     1      -2.684  13.426  22.802  0.00  0.00    +0.000 Cl
ATOM     11  C   UNL     1      -1.734  12.044  20.680  0.00  0.00    +0.000 A 
ATOM     12  C   UNL     1      -0.928  11.089  20.037  0.00  0.00    +0.000 A 
ENDROOT
BRANCH   3  13
ATOM     13  C   UNL     1       1.958   8.403  18.124  0.00  0.00    +0.000 C 
ATOM     14  O   UNL     1       2.643   8.864  17.215  0.00  0.00    +0.000 OA
ATOM     15  N   UNL     1       2.062   7.103  18.570  0.00  0.00    +0.000 N 
ATOM     16  H   UNL     1       1.561   6.870  19.428  0.00  0.00    +0.000 HD
BRANCH  15  17
ATOM     17  C   UNL     1       3.067   6.157  18.079  0.00  0.00    +0.000 C 
ATOM     18  C   UNL     1       4.462   6.718  18.375  0.00  0.00    +0.000 C 
BRANCH  17  19
ATOM     19  C   UNL     1       2.819   4.697  18.610  0.00  0.00    +0.000 C 
ATOM     20  C   UNL     1       1.678   4.716  19.670  0.00  0.00    +0.000 C 
ATOM     21  C   UNL     1       1.363   3.299  20.181  0.00  0.00    +0.000 C 
ATOM     22  C   UNL     1       0.929   2.414  19.004  0.00  0.00    +0.000 C 
ATOM     23  C   UNL     1       2.055   2.340  17.964  0.00  0.00    +0.000 C 
ATOM     24  C   UNL     1       3.320   1.754  18.611  0.00  0.00    +0.000 C 
ATOM     25  C   UNL     1       3.759   2.637  19.790  0.00  0.00    +0.000 C 
ATOM     26  C   UNL     1       2.624   2.700  20.824  0.00  0.00    +0.000 C 
ATOM     27  C   UNL     1       4.070   4.058  19.274  0.00  0.00    +0.000 C 
ATOM     28  C   UNL     1       2.363   3.758  17.451  0.00  0.00    +0.000 C 
ENDBRANCH  17  19
ENDBRANCH  15  17
ENDBRANCH   3  13
BRANCH   1  29
ATOM     29  C   UNL     1      -1.649  11.769  17.728  0.00  0.00    +0.000 C 
BRANCH  29  30
ATOM     30  C   UNL     1      -2.386  10.966  16.649  0.00  0.00    +0.000 C 
BRANCH  30  31
ATOM     31  C   UNL     1      -3.738  10.475  17.171  0.00  0.00    +0.000 C 
BRANCH  31  33
ATOM     32  C   UNL     1      -5.896  11.149  18.272  0.00  0.00    +0.000 C 
ATOM     33  C   UNL     1      -4.477  11.577  17.930  0.00  0.00    +0.000 C 
ENDBRANCH  31  33
ENDBRANCH  30  31
ENDBRANCH  29  30
ENDBRANCH   1  29
TORSDOF 7
ENDMDL
MODEL 5
REMARK VINA RESULT:      -8.8      0.409      1.401
REMARK  Name = 
REMARK  9 active torsions:
REMARK  status: ('A' for Active; 'I' for Inactive)
REMARK    1  A    between atoms: C_1  and  C_2
REMARK    2  A    between atoms: C_2  and  C_3
REMARK    3  A    between atoms: C_3  and  C_4
REMARK    4  A    between atoms: C_4  and  C_5
REMARK    5  A    between atoms: C_5  and  N_6
REMARK    6  A    between atoms: C_8  and  C_9
REMARK    7  A    between atoms: N_11  and  C_12
REMARK    8  A    between atoms: C_12  and  C_13
REMARK    9  A    between atoms: C_12  and  C_14
REMARK                            x       y       z     vdW  Elec       q    Type
REMARK                         _______ _______ _______ _____ _____    ______ ____
ROOT
ATOM      1  N   UNL     1      -0.880  10.902  18.555  0.00  0.00    +0.000 N 
ATOM      2  C   UNL     1       0.114  10.056  18.051  0.00  0.00    +0.000 A 
ATOM      3  C   UNL     1       0.918   9.241  18.753  0.00  0.00    +0.000 A 
ATOM      4  C   UNL     1       0.732   9.251  20.219  0.00  0.00    +0.000 A 
ATOM      5  O   UNL     1       1.295   8.430  20.945  0.00  0.00    +0.000 OA
ATOM      6  C   UNL     1      -0.131  10.301  20.800  0.00  0.00    +0.000 A 
ATOM      7  C   UNL     1      -0.097  10.482  22.192  0.00  0.00    +0.000 A 
ATOM      8  C   UNL     1      -0.873  11.466  22.785  0.00  0.00    +0.000 A 
ATOM      9  C   UNL     1      -1.697  12.247  21.986  0.00  0.00    +0.000 A 
ATOM     10 CL   UNL     1      -2.675  13.465  22.714  0.00  0.00    +0.000 Cl
ATOM     11  C   UNL     1      -1.738  12.066  20.597  0.00  0.00    +0.000 A 
ATOM     12  C   UNL     1      -0.937  11.104  19.958  0.00  0.00    +0.000 A 
ENDROOT
BRANCH   3  13
ATOM     13  C   UNL     1       1.933   8.397  18.051  0.00  0.00    +0.000 C 
ATOM     14  O   UNL     1       2.617   8.851  17.137  0.00  0.00    +0.000 OA
ATOM     15  N   UNL     1       2.033   7.098  18.503  0.00  0.00    +0.000 N 
ATOM     16  H   UNL     1       1.533   6.872  19.364  0.00  0.00    +0.000 HD
BRANCH  15  17
ATOM     17  C   UNL     1       3.032   6.146  18.014  0.00  0.00    +0.000 C 
ATOM     18  C   UNL     1       4.430   6.718  18.273  0.00  0.00    +0.000 C 
BRANCH  17  19
ATOM     19  C   UNL     1       2.799   4.697  18.579  0.00  0.00    +0.000 C 
ATOM     20  C   UNL     1       2.400   3.742  17.415  0.00  0.00    +0.000 C 
ATOM     21  C   UNL     1       2.212   2.298  17.913  0.00  0.00    +0.000 C 
ATOM     22  C   UNL     1       3.522   1.796  18.536  0.00  0.00    +0.000 C 
ATOM     23  C   UNL     1       3.915   2.693  19.717  0.00  0.00    +0.000 C 
ATOM     24  C   UNL     1       2.800   2.674  20.775  0.00  0.00    +0.000 C 
ATOM     25  C   UNL     1       1.486   3.177  20.156  0.00  0.00    +0.000 C 
ATOM     26  C   UNL     1       1.104   2.269  18.977  0.00  0.00    +0.000 C 
ATOM     27  C   UNL     1       1.680   4.624  19.655  0.00  0.00    +0.000 C 
ATOM     28  C   UNL     1       4.108   4.134  19.215  0.00  0.00    +0.000 C 
ENDBRANCH  17  19
ENDBRANCH  15  17
ENDBRANCH   3  13
BRANCH   1  29
ATOM     29  C   UNL     1      -1.667  11.771  17.648  0.00  0.00    +0.000 C 
BRANCH  29  30
ATOM     30  C   UNL     1      -2.532  10.957  16.676  0.00  0.00    +0.000 C 
BRANCH  30  31
ATOM     31  C   UNL     1      -3.769  10.407  17.389  0.00  0.00    +0.000 C 
BRANCH  31  33
ATOM     32  C   UNL     1      -6.057  10.935  18.288  0.00  0.00    +0.000 C 
ATOM     33  C   UNL     1      -4.827  11.492  17.589  0.00  0.00    +0.000 C 
ENDBRANCH  31  33
ENDBRANCH  30  31
ENDBRANCH  29  30
ENDBRANCH   1  29
TORSDOF 7
ENDMDL
MODEL 6
REMARK VINA RESULT:      -8.7      0.613      1.693
REMARK  Name = 
REMARK  9 active torsions:
REMARK  status: ('A' for Active; 'I' for Inactive)
REMARK    1  A    between atoms: C_1  and  C_2
REMARK    2  A    between atoms: C_2  and  C_3
REMARK    3  A    between atoms: C_3  and  C_4
REMARK    4  A    between atoms: C_4  and  C_5
REMARK    5  A    between atoms: C_5  and  N_6
REMARK    6  A    between atoms: C_8  and  C_9
REMARK    7  A    between atoms: N_11  and  C_12
REMARK    8  A    between atoms: C_12  and  C_13
REMARK    9  A    between atoms: C_12  and  C_14
REMARK                            x       y       z     vdW  Elec       q    Type
REMARK                         _______ _______ _______ _____ _____    ______ ____
ROOT
ATOM      1  N   UNL     1      -0.752  10.769  18.763  0.00  0.00    +0.000 N 
ATOM      2  C   UNL     1       0.238   9.948  18.211  0.00  0.00    +0.000 A 
ATOM      3  C   UNL     1       1.037   9.089  18.865  0.00  0.00    +0.000 A 
ATOM      4  C   UNL     1       0.851   9.017  20.328  0.00  0.00    +0.000 A 
ATOM      5  O   UNL     1       1.409   8.152  21.006  0.00  0.00    +0.000 OA
ATOM      6  C   UNL     1      -0.006  10.037  20.969  0.00  0.00    +0.000 A 
ATOM      7  C   UNL     1       0.029  10.138  22.369  0.00  0.00    +0.000 A 
ATOM      8  C   UNL     1      -0.741  11.091  23.018  0.00  0.00    +0.000 A 
ATOM      9  C   UNL     1      -1.561  11.921  22.265  0.00  0.00    +0.000 A 
ATOM     10 CL   UNL     1      -2.532  13.101  23.062  0.00  0.00    +0.000 Cl
ATOM     11  C   UNL     1      -1.602  11.819  20.868  0.00  0.00    +0.000 A 
ATOM     12  C   UNL     1      -0.807  10.891  20.175  0.00  0.00    +0.000 A 
ENDROOT
BRANCH   3  13
ATOM     13  C   UNL     1       2.047   8.281  18.115  0.00  0.00    +0.000 C 
ATOM     14  O   UNL     1       2.699   8.769  17.196  0.00  0.00    +0.000 OA
ATOM     15  N   UNL     1       2.180   6.973  18.530  0.00  0.00    +0.000 N 
ATOM     16  H   UNL     1       1.707   6.716  19.398  0.00  0.00    +0.000 HD
BRANCH  15  17
ATOM     17  C   UNL     1       3.182   6.050  17.992  0.00  0.00    +0.000 C 
ATOM     18  C   UNL     1       4.578   6.616  18.273  0.00  0.00    +0.000 C 
BRANCH  17  19
ATOM     19  C   UNL     1       2.958   4.574  18.486  0.00  0.00    +0.000 C 
ATOM     20  C   UNL     1       1.784   4.541  19.509  0.00  0.00    +0.000 C 
ATOM     21  C   UNL     1       1.493   3.105  19.982  0.00  0.00    +0.000 C 
ATOM     22  C   UNL     1       1.122   2.232  18.775  0.00  0.00    +0.000 C 
ATOM     23  C   UNL     1       2.283   2.211  17.772  0.00  0.00    +0.000 C 
ATOM     24  C   UNL     1       3.542   1.647  18.449  0.00  0.00    +0.000 C 
ATOM     25  C   UNL     1       3.918   2.518  19.658  0.00  0.00    +0.000 C 
ATOM     26  C   UNL     1       2.749   2.530  20.655  0.00  0.00    +0.000 C 
ATOM     27  C   UNL     1       4.205   3.957  19.179  0.00  0.00    +0.000 C 
ATOM     28  C   UNL     1       2.567   3.646  17.296  0.00  0.00    +0.000 C 
ENDBRANCH  17  19
ENDBRANCH  15  17
ENDBRANCH   3  13
BRANCH   1  29
ATOM     29  C   UNL     1      -1.533  11.693  17.906  0.00  0.00    +0.000 C 
BRANCH  29  30
ATOM     30  C   UNL     1      -3.045  11.541  18.124  0.00  0.00    +0.000 C 
BRANCH  30  31
ATOM     31  C   UNL     1      -3.643  10.578  17.097  0.00  0.00    +0.000 C 
BRANCH  31  33
ATOM     32  C   UNL     1      -2.995  10.281  14.686  0.00  0.00    +0.000 C 
ATOM     33  C   UNL     1      -2.578  10.059  16.131  0.00  0.00    +0.000 C 
ENDBRANCH  31  33
ENDBRANCH  30  31
ENDBRANCH  29  30
ENDBRANCH   1  29
TORSDOF 7
ENDMDL
MODEL 7
REMARK VINA RESULT:      -8.4      1.374      2.379
REMARK  Name = 
REMARK  9 active torsions:
REMARK  status: ('A' for Active; 'I' for Inactive)
REMARK    1  A    between atoms: C_1  and  C_2
REMARK    2  A    between atoms: C_2  and  C_3
REMARK    3  A    between atoms: C_3  and  C_4
REMARK    4  A    between atoms: C_4  and  C_5
REMARK    5  A    between atoms: C_5  and  N_6
REMARK    6  A    between atoms: C_8  and  C_9
REMARK    7  A    between atoms: N_11  and  C_12
REMARK    8  A    between atoms: C_12  and  C_13
REMARK    9  A    between atoms: C_12  and  C_14
REMARK                            x       y       z     vdW  Elec       q    Type
REMARK                         _______ _______ _______ _____ _____    ______ ____
ROOT
ATOM      1  N   UNL     1      -0.623  11.369  19.146  0.00  0.00    +0.000 N 
ATOM      2  C   UNL     1       0.303  10.537  18.506  0.00  0.00    +0.000 A 
ATOM      3  C   UNL     1       0.912   9.456  19.020  0.00  0.00    +0.000 A 
ATOM      4  C   UNL     1       0.569   9.120  20.417  0.00  0.00    +0.000 A 
ATOM      5  O   UNL     1       0.937   8.064  20.934  0.00  0.00    +0.000 OA
ATOM      6  C   UNL     1      -0.210  10.107  21.195  0.00  0.00    +0.000 A 
ATOM      7  C   UNL     1      -0.306   9.919  22.582  0.00  0.00    +0.000 A 
ATOM      8  C   UNL     1      -1.009  10.827  23.361  0.00  0.00    +0.000 A 
ATOM      9  C   UNL     1      -1.632  11.904  22.743  0.00  0.00    +0.000 A 
ATOM     10 CL   UNL     1      -2.518  13.031  23.699  0.00  0.00    +0.000 Cl
ATOM     11  C   UNL     1      -1.542  12.091  21.357  0.00  0.00    +0.000 A 
ATOM     12  C   UNL     1      -0.807  11.212  20.543  0.00  0.00    +0.000 A 
ENDROOT
BRANCH   3  13
ATOM     13  C   UNL     1       1.880   8.673  18.192  0.00  0.00    +0.000 C 
ATOM     14  O   UNL     1       2.502   9.198  17.272  0.00  0.00    +0.000 OA
ATOM     15  N   UNL     1       2.012   7.345  18.538  0.00  0.00    +0.000 N 
ATOM     16  H   UNL     1       1.571   7.052  19.411  0.00  0.00    +0.000 HD
BRANCH  15  17
ATOM     17  C   UNL     1       2.980   6.439  17.916  0.00  0.00    +0.000 C 
ATOM     18  C   UNL     1       4.389   7.010  18.108  0.00  0.00    +0.000 C 
BRANCH  17  19
ATOM     19  C   UNL     1       2.800   4.953  18.401  0.00  0.00    +0.000 C 
ATOM     20  C   UNL     1       4.060   4.123  18.013  0.00  0.00    +0.000 C 
ATOM     21  C   UNL     1       3.952   2.672  18.515  0.00  0.00    +0.000 C 
ATOM     22  C   UNL     1       3.809   2.667  20.043  0.00  0.00    +0.000 C 
ATOM     23  C   UNL     1       2.547   3.441  20.451  0.00  0.00    +0.000 C 
ATOM     24  C   UNL     1       1.311   2.786  19.814  0.00  0.00    +0.000 C 
ATOM     25  C   UNL     1       1.449   2.789  18.284  0.00  0.00    +0.000 C 
ATOM     26  C   UNL     1       2.714   2.011  17.890  0.00  0.00    +0.000 C 
ATOM     27  C   UNL     1       1.561   4.246  17.786  0.00  0.00    +0.000 C 
ATOM     28  C   UNL     1       2.661   4.892  19.953  0.00  0.00    +0.000 C 
ENDBRANCH  17  19
ENDBRANCH  15  17
ENDBRANCH   3  13
BRANCH   1  29
ATOM     29  C   UNL     1      -1.186  12.550  18.450  0.00  0.00    +0.000 C 
BRANCH  29  30
ATOM     30  C   UNL     1      -0.091  13.517  17.978  0.00  0.00    +0.000 C 
BRANCH  30  31
ATOM     31  C   UNL     1       0.504  14.277  19.165  0.00  0.00    +0.000 C 
BRANCH  31  33
ATOM     32  C   UNL     1       2.220  13.303  20.723  0.00  0.00    +0.000 C 
ATOM     33  C   UNL     1       1.981  13.937  19.362  0.00  0.00    +0.000 C 
ENDBRANCH  31  33
ENDBRANCH  30  31
ENDBRANCH  29  30
ENDBRANCH   1  29
TORSDOF 7
ENDMDL
MODEL 8
REMARK VINA RESULT:      -8.4      2.952      8.895
REMARK  Name = 
REMARK  9 active torsions:
REMARK  status: ('A' for Active; 'I' for Inactive)
REMARK    1  A    between atoms: C_1  and  C_2
REMARK    2  A    between atoms: C_2  and  C_3
REMARK    3  A    between atoms: C_3  and  C_4
REMARK    4  A    between atoms: C_4  and  C_5
REMARK    5  A    between atoms: C_5  and  N_6
REMARK    6  A    between atoms: C_8  and  C_9
REMARK    7  A    between atoms: N_11  and  C_12
REMARK    8  A    between atoms: C_12  and  C_13
REMARK    9  A    between atoms: C_12  and  C_14
REMARK                            x       y       z     vdW  Elec       q    Type
REMARK                         _______ _______ _______ _____ _____    ______ ____
ROOT
ATOM      1  N   UNL     1       3.859   6.581  17.768  0.00  0.00    +0.000 N 
ATOM      2  C   UNL     1       3.136   7.770  17.612  0.00  0.00    +0.000 A 
ATOM      3  C   UNL     1       2.231   8.286  18.460  0.00  0.00    +0.000 A 
ATOM      4  C   UNL     1       1.968   7.502  19.684  0.00  0.00    +0.000 A 
ATOM      5  O   UNL     1       1.286   7.956  20.604  0.00  0.00    +0.000 OA
ATOM      6  C   UNL     1       2.525   6.135  19.764  0.00  0.00    +0.000 A 
ATOM      7  C   UNL     1       2.061   5.297  20.790  0.00  0.00    +0.000 A 
ATOM      8  C   UNL     1       2.537   3.999  20.898  0.00  0.00    +0.000 A 
ATOM      9  C   UNL     1       3.493   3.555  19.994  0.00  0.00    +0.000 A 
ATOM     10 CL   UNL     1       4.101   1.948  20.127  0.00  0.00    +0.000 Cl
ATOM     11  C   UNL     1       3.963   4.391  18.972  0.00  0.00    +0.000 A 
ATOM     12  C   UNL     1       3.475   5.699  18.810  0.00  0.00    +0.000 A 
ENDROOT
BRANCH   3  13
ATOM     13  C   UNL     1       1.549   9.576  18.137  0.00  0.00    +0.000 C 
ATOM     14  O   UNL     1       2.152  10.498  17.595  0.00  0.00    +0.000 OA
ATOM     15  N   UNL     1       0.219   9.643  18.492  0.00  0.00    +0.000 N 
ATOM     16  H   UNL     1      -0.222   8.772  18.791  0.00  0.00    +0.000 HD
BRANCH  15  17
ATOM     17  C   UNL     1      -0.648  10.780  18.173  0.00  0.00    +0.000 C 
ATOM     18  C   UNL     1      -1.941  10.255  17.540  0.00  0.00    +0.000 C 
BRANCH  17  19
ATOM     19  C   UNL     1      -0.859  11.733  19.406  0.00  0.00    +0.000 C 
ATOM     20  C   UNL     1      -2.368  12.097  19.531  0.00  0.00    +0.000 C 
ATOM     21  C   UNL     1      -2.632  12.987  20.758  0.00  0.00    +0.000 C 
ATOM     22  C   UNL     1      -2.195  12.248  22.031  0.00  0.00    +0.000 C 
ATOM     23  C   UNL     1      -0.698  11.918  21.954  0.00  0.00    +0.000 C 
ATOM     24  C   UNL     1       0.111  13.216  21.808  0.00  0.00    +0.000 C 
ATOM     25  C   UNL     1      -0.322  13.959  20.535  0.00  0.00    +0.000 C 
ATOM     26  C   UNL     1      -1.821  14.285  20.625  0.00  0.00    +0.000 C 
ATOM     27  C   UNL     1      -0.060  13.062  19.307  0.00  0.00    +0.000 C 
ATOM     28  C   UNL     1      -0.440  11.023  20.730  0.00  0.00    +0.000 C 
ENDBRANCH  17  19
ENDBRANCH  15  17
ENDBRANCH   3  13
BRANCH   1  29
ATOM     29  C   UNL     1       4.804   6.127  16.721  0.00  0.00    +0.000 C 
BRANCH  29  30
ATOM     30  C   UNL     1       6.096   6.955  16.711  0.00  0.00    +0.000 C 
BRANCH  30  31
ATOM     31  C   UNL     1       7.232   6.188  17.390  0.00  0.00    +0.000 C 
BRANCH  31  33
ATOM     32  C   UNL     1       8.126   8.484  17.890  0.00  0.00    +0.000 C 
ATOM     33  C   UNL     1       7.970   7.062  18.404  0.00  0.00    +0.000 C 
ENDBRANCH  31  33
ENDBRANCH  30  31
ENDBRANCH  29  30
ENDBRANCH   1  29
TORSDOF 7
ENDMDL
MODEL 9
REMARK VINA RESULT:      -8.3      1.635      2.171
REMARK  Name = 
REMARK  9 active torsions:
REMARK  status: ('A' for Active; 'I' for Inactive)
REMARK    1  A    between atoms: C_1  and  C_2
REMARK    2  A    between atoms: C_2  and  C_3
REMARK    3  A    between atoms: C_3  and  C_4
REMARK    4  A    between atoms: C_4  and  C_5
REMARK    5  A    between atoms: C_5  and  N_6
REMARK    6  A    between atoms: C_8  and  C_9
REMARK    7  A    between atoms: N_11  and  C_12
REMARK    8  A    between atoms: C_12  and  C_13
REMARK    9  A    between atoms: C_12  and  C_14
REMARK                            x       y       z     vdW  Elec       q    Type
REMARK                         _______ _______ _______ _____ _____    ______ ____
ROOT
ATOM      1  N   UNL     1       0.155  11.323  19.177  0.00  0.00    +0.000 N 
ATOM      2  C   UNL     1       0.987  10.388  18.552  0.00  0.00    +0.000 A 
ATOM      3  C   UNL     1       1.347   9.182  19.019  0.00  0.00    +0.000 A 
ATOM      4  C   UNL     1       0.809   8.813  20.344  0.00  0.00    +0.000 A 
ATOM      5  O   UNL     1       0.936   7.674  20.797  0.00  0.00    +0.000 OA
ATOM      6  C   UNL     1       0.133   9.864  21.134  0.00  0.00    +0.000 A 
ATOM      7  C   UNL     1      -0.138   9.596  22.486  0.00  0.00    +0.000 A 
ATOM      8  C   UNL     1      -0.753  10.556  23.276  0.00  0.00    +0.000 A 
ATOM      9  C   UNL     1      -1.116  11.768  22.704  0.00  0.00    +0.000 A 
ATOM     10 CL   UNL     1      -1.892  12.963  23.673  0.00  0.00    +0.000 Cl
ATOM     11  C   UNL     1      -0.853  12.036  21.353  0.00  0.00    +0.000 A 
ATOM     12  C   UNL     1      -0.197  11.102  20.533  0.00  0.00    +0.000 A 
ENDROOT
BRANCH   3  13
ATOM     13  C   UNL     1       2.249   8.302  18.215  0.00  0.00    +0.000 C 
ATOM     14  O   UNL     1       2.850   8.731  17.234  0.00  0.00    +0.000 OA
ATOM     15  N   UNL     1       2.345   6.998  18.655  0.00  0.00    +0.000 N 
ATOM     16  H   UNL     1       1.931   6.789  19.564  0.00  0.00    +0.000 HD
BRANCH  15  17
ATOM     17  C   UNL     1       3.250   6.009  18.065  0.00  0.00    +0.000 C 
ATOM     18  C   UNL     1       4.696   6.439  18.333  0.00  0.00    +0.000 C 
BRANCH  17  19
ATOM     19  C   UNL     1       2.905   4.543  18.516  0.00  0.00    +0.000 C 
ATOM     20  C   UNL     1       4.115   3.937  19.287  0.00  0.00    +0.000 C 
ATOM     21  C   UNL     1       3.804   2.518  19.795  0.00  0.00    +0.000 C 
ATOM     22  C   UNL     1       2.592   2.565  20.737  0.00  0.00    +0.000 C 
ATOM     23  C   UNL     1       1.371   3.116  19.988  0.00  0.00    +0.000 C 
ATOM     24  C   UNL     1       1.053   2.216  18.783  0.00  0.00    +0.000 C 
ATOM     25  C   UNL     1       2.263   2.166  17.837  0.00  0.00    +0.000 C 
ATOM     26  C   UNL     1       3.477   1.612  18.598  0.00  0.00    +0.000 C 
ATOM     27  C   UNL     1       2.575   3.591  17.333  0.00  0.00    +0.000 C 
ATOM     28  C   UNL     1       1.684   4.537  19.487  0.00  0.00    +0.000 C 
ENDBRANCH  17  19
ENDBRANCH  15  17
ENDBRANCH   3  13
BRANCH   1  29
ATOM     29  C   UNL     1      -0.124  12.633  18.542  0.00  0.00    +0.000 C 
BRANCH  29  30
ATOM     30  C   UNL     1       1.144  13.487  18.401  0.00  0.00    +0.000 C 
BRANCH  30  31
ATOM     31  C   UNL     1       0.868  14.933  18.817  0.00  0.00    +0.000 C 
BRANCH  31  33
ATOM     32  C   UNL     1      -0.589  16.247  20.390  0.00  0.00    +0.000 C 
ATOM     33  C   UNL     1      -0.533  15.088  19.407  0.00  0.00    +0.000 C 
ENDBRANCH  31  33
ENDBRANCH  30  31
ENDBRANCH  29  30
ENDBRANCH   1  29
TORSDOF 7
ENDMDL
