MODEL 1
REMARK VINA RESULT:      -8.4      0.000      0.000
REMARK  Name = 
REMARK  12 active torsions:
REMARK  status: ('A' for Active; 'I' for Inactive)
REMARK    1  A    between atoms: C_1  and  O_2
REMARK    2  A    between atoms: O_2  and  C_3
REMARK    3  A    between atoms: C_5  and  C_6
REMARK    4  A    between atoms: C_7  and  C_8
REMARK    5  A    between atoms: C_11  and  O_12
REMARK    6  A    between atoms: O_12  and  C_13
REMARK    7  A    between atoms: C_13  and  C_14
REMARK    8  A    between atoms: C_17  and  C_18
REMARK    9  A    between atoms: C_26  and  C_27
REMARK   10  A    between atoms: C_28  and  N_29
REMARK   11  A    between atoms: C_32  and  O_33
REMARK   12  A    between atoms: O_33  and  C_34
REMARK                            x       y       z     vdW  Elec       q    Type
REMARK                         _______ _______ _______ _____ _____    ______ ____
ROOT
ATOM      1  C   UNL     1       1.707   8.538  19.407  0.00  0.00    +0.000 A 
ATOM      2  C   UNL     1       1.766   9.601  18.505  0.00  0.00    +0.000 A 
ATOM      3  C   UNL     1       1.286  10.860  18.844  0.00  0.00    +0.000 A 
ATOM      4  C   UNL     1       0.689  11.076  20.083  0.00  0.00    +0.000 A 
ATOM      5  C   UNL     1       0.668  10.043  21.020  0.00  0.00    +0.000 A 
ATOM      6  C   UNL     1       1.174   8.778  20.683  0.00  0.00    +0.000 A 
ENDROOT
BRANCH   1   8
ATOM      7  C   UNL     1       2.839   6.916  17.902  0.00  0.00    +0.000 C 
ATOM      8  C   UNL     1       2.179   7.193  19.039  0.00  0.00    +0.000 C 
BRANCH   7  11
ATOM      9  C   UNL     1       2.764   3.205  17.506  0.00  0.00    +0.000 A 
ATOM     10  C   UNL     1       2.403   4.518  17.789  0.00  0.00    +0.000 A 
ATOM     11  C   UNL     1       3.305   5.567  17.589  0.00  0.00    +0.000 A 
ATOM     12  C   UNL     1       4.610   5.300  17.133  0.00  0.00    +0.000 A 
ATOM     13  C   UNL     1       4.949   3.984  16.768  0.00  0.00    +0.000 A 
ATOM     14  C   UNL     1       4.026   2.947  16.971  0.00  0.00    +0.000 A 
BRANCH   9  16
ATOM     15  C   UNL     1       0.901   2.584  18.845  0.00  0.00    +0.000 C 
ATOM     16  O   UNL     1       1.803   2.276  17.790  0.00  0.00    +0.000 OA
ENDBRANCH   9  16
BRANCH  12  17
ATOM     17  C   UNL     1       5.642   6.353  17.165  0.00  0.00    +0.000 C 
ATOM     18  C   UNL     1       6.705   6.334  17.975  0.00  0.00    +0.000 C 
BRANCH  18  19
ATOM     19  N   UNL     1       7.670   7.410  17.900  0.00  0.00    +0.000 N 
ATOM     20  O   UNL     1       8.532   7.509  18.782  0.00  0.00    +0.000 OA
ATOM     21  O   UNL     1       7.547   8.180  16.939  0.00  0.00    +0.000 OA
ENDBRANCH  18  19
ENDBRANCH  12  17
BRANCH  13  22
ATOM     22  O   UNL     1       6.202   3.807  16.233  0.00  0.00    +0.000 OA
ATOM     23  C   UNL     1       6.308   3.807  14.813  0.00  0.00    +0.000 C 
ENDBRANCH  13  22
ENDBRANCH   7  11
ENDBRANCH   1   8
BRANCH   4  24
ATOM     24  O   UNL     1       0.085  12.253  20.439  0.00  0.00    +0.000 OA
BRANCH  24  25
ATOM     25  C   UNL     1      -1.201  12.436  19.836  0.00  0.00    +0.000 C 
BRANCH  25  26
ATOM     26  C   UNL     1      -2.260  12.564  20.896  0.00  0.00    +0.000 A 
ATOM     27  C   UNL     1      -3.569  12.910  20.552  0.00  0.00    +0.000 A 
ATOM     28  C   UNL     1      -4.551  13.007  21.539  0.00  0.00    +0.000 A 
ATOM     29  C   UNL     1      -4.232  12.766  22.884  0.00  0.00    +0.000 A 
ATOM     30  C   UNL     1      -2.919  12.411  23.223  0.00  0.00    +0.000 A 
ATOM     31  C   UNL     1      -1.941  12.313  22.236  0.00  0.00    +0.000 A 
BRANCH  29  32
ATOM     32  C   UNL     1      -5.272  12.892  23.966  0.00  0.00    +0.000 C 
ATOM     33  F   UNL     1      -6.489  12.389  23.617  0.00  0.00    +0.000 F 
ATOM     34  F   UNL     1      -4.915  12.244  25.110  0.00  0.00    +0.000 F 
ATOM     35  F   UNL     1      -5.493  14.188  24.325  0.00  0.00    +0.000 F 
ENDBRANCH  29  32
ENDBRANCH  25  26
ENDBRANCH  24  25
ENDBRANCH   4  24
TORSDOF 10
ENDMDL
MODEL 2
REMARK VINA RESULT:      -8.2      1.262      1.747
REMARK  Name = 
REMARK  12 active torsions:
REMARK  status: ('A' for Active; 'I' for Inactive)
REMARK    1  A    between atoms: C_1  and  O_2
REMARK    2  A    between atoms: O_2  and  C_3
REMARK    3  A    between atoms: C_5  and  C_6
REMARK    4  A    between atoms: C_7  and  C_8
REMARK    5  A    between atoms: C_11  and  O_12
REMARK    6  A    between atoms: O_12  and  C_13
REMARK    7  A    between atoms: C_13  and  C_14
REMARK    8  A    between atoms: C_17  and  C_18
REMARK    9  A    between atoms: C_26  and  C_27
REMARK   10  A    between atoms: C_28  and  N_29
REMARK   11  A    between atoms: C_32  and  O_33
REMARK   12  A    between atoms: O_33  and  C_34
REMARK                            x       y       z     vdW  Elec       q    Type
REMARK                         _______ _______ _______ _____ _____    ______ ____
ROOT
ATOM      1  C   UNL     1       1.437   9.398  17.970  0.00  0.00    +0.000 A 
ATOM      2  C   UNL     1       0.103   9.674  18.274  0.00  0.00    +0.000 A 
ATOM      3  C   UNL     1      -0.290  10.933  18.712  0.00  0.00    +0.000 A 
ATOM      4  C   UNL     1       0.654  11.938  18.905  0.00  0.00    +0.000 A 
ATOM      5  C   UNL     1       1.983  11.702  18.556  0.00  0.00    +0.000 A 
ATOM      6  C   UNL     1       2.374  10.436  18.092  0.00  0.00    +0.000 A 
ENDROOT
BRANCH   1   8
ATOM      7  C   UNL     1       2.652   7.251  18.276  0.00  0.00    +0.000 C 
ATOM      8  C   UNL     1       1.864   8.056  17.543  0.00  0.00    +0.000 C 
BRANCH   7  11
ATOM      9  C   UNL     1       2.370   3.603  17.545  0.00  0.00    +0.000 A 
ATOM     10  C   UNL     1       2.089   4.898  17.965  0.00  0.00    +0.000 A 
ATOM     11  C   UNL     1       3.033   5.918  17.817  0.00  0.00    +0.000 A 
ATOM     12  C   UNL     1       4.300   5.636  17.272  0.00  0.00    +0.000 A 
ATOM     13  C   UNL     1       4.555   4.346  16.770  0.00  0.00    +0.000 A 
ATOM     14  C   UNL     1       3.591   3.337  16.924  0.00  0.00    +0.000 A 
BRANCH   9  16
ATOM     15  C   UNL     1       1.174   2.313  19.144  0.00  0.00    +0.000 C 
ATOM     16  O   UNL     1       1.376   2.696  17.790  0.00  0.00    +0.000 OA
ENDBRANCH   9  16
BRANCH  12  17
ATOM     17  C   UNL     1       5.385   6.632  17.348  0.00  0.00    +0.000 C 
ATOM     18  C   UNL     1       6.574   6.400  17.912  0.00  0.00    +0.000 C 
BRANCH  18  19
ATOM     19  N   UNL     1       7.575   7.446  17.905  0.00  0.00    +0.000 N 
ATOM     20  O   UNL     1       7.541   8.307  17.017  0.00  0.00    +0.000 OA
ATOM     21  O   UNL     1       8.422   7.390  18.806  0.00  0.00    +0.000 OA
ENDBRANCH  18  19
ENDBRANCH  12  17
BRANCH  13  22
ATOM     22  O   UNL     1       5.770   4.162  16.158  0.00  0.00    +0.000 OA
ATOM     23  C   UNL     1       5.773   4.053  14.738  0.00  0.00    +0.000 C 
ENDBRANCH  13  22
ENDBRANCH   7  11
ENDBRANCH   1   8
BRANCH   4  24
ATOM     24  O   UNL     1       0.360  13.160  19.449  0.00  0.00    +0.000 OA
BRANCH  24  25
ATOM     25  C   UNL     1       0.671  13.249  20.845  0.00  0.00    +0.000 C 
BRANCH  25  26
ATOM     26  C   UNL     1      -0.589  13.208  21.663  0.00  0.00    +0.000 A 
ATOM     27  C   UNL     1      -1.046  12.003  22.203  0.00  0.00    +0.000 A 
ATOM     28  C   UNL     1      -2.205  11.978  22.979  0.00  0.00    +0.000 A 
ATOM     29  C   UNL     1      -2.928  13.158  23.217  0.00  0.00    +0.000 A 
ATOM     30  C   UNL     1      -2.461  14.365  22.678  0.00  0.00    +0.000 A 
ATOM     31  C   UNL     1      -1.303  14.389  21.905  0.00  0.00    +0.000 A 
BRANCH  29  32
ATOM     32  C   UNL     1      -4.196  13.145  24.028  0.00  0.00    +0.000 C 
ATOM     33  F   UNL     1      -4.089  12.460  25.201  0.00  0.00    +0.000 F 
ATOM     34  F   UNL     1      -4.611  14.397  24.365  0.00  0.00    +0.000 F 
ATOM     35  F   UNL     1      -5.236  12.575  23.357  0.00  0.00    +0.000 F 
ENDBRANCH  29  32
ENDBRANCH  25  26
ENDBRANCH  24  25
ENDBRANCH   4  24
TORSDOF 10
ENDMDL
MODEL 3
REMARK VINA RESULT:      -8.1      1.424      1.720
REMARK  Name = 
REMARK  12 active torsions:
REMARK  status: ('A' for Active; 'I' for Inactive)
REMARK    1  A    between atoms: C_1  and  O_2
REMARK    2  A    between atoms: O_2  and  C_3
REMARK    3  A    between atoms: C_5  and  C_6
REMARK    4  A    between atoms: C_7  and  C_8
REMARK    5  A    between atoms: C_11  and  O_12
REMARK    6  A    between atoms: O_12  and  C_13
REMARK    7  A    between atoms: C_13  and  C_14
REMARK    8  A    between atoms: C_17  and  C_18
REMARK    9  A    between atoms: C_26  and  C_27
REMARK   10  A    between atoms: C_28  and  N_29
REMARK   11  A    between atoms: C_32  and  O_33
REMARK   12  A    between atoms: O_33  and  C_34
REMARK                            x       y       z     vdW  Elec       q    Type
REMARK                         _______ _______ _______ _____ _____    ______ ____
ROOT
ATOM      1  C   UNL     1       1.777   8.803  18.729  0.00  0.00    +0.000 A 
ATOM      2  C   UNL     1       1.924  10.009  18.041  0.00  0.00    +0.000 A 
ATOM      3  C   UNL     1       1.488  11.208  18.589  0.00  0.00    +0.000 A 
ATOM      4  C   UNL     1       0.847  11.226  19.825  0.00  0.00    +0.000 A 
ATOM      5  C   UNL     1       0.737  10.042  20.554  0.00  0.00    +0.000 A 
ATOM      6  C   UNL     1       1.199   8.834  20.007  0.00  0.00    +0.000 A 
ENDROOT
BRANCH   1   8
ATOM      7  C   UNL     1       3.031   6.657  18.740  0.00  0.00    +0.000 C 
ATOM      8  C   UNL     1       2.202   7.525  18.135  0.00  0.00    +0.000 C 
BRANCH   7  11
ATOM      9  C   UNL     1       2.846   3.059  17.764  0.00  0.00    +0.000 A 
ATOM     10  C   UNL     1       2.563   4.298  18.329  0.00  0.00    +0.000 A 
ATOM     11  C   UNL     1       3.409   5.390  18.117  0.00  0.00    +0.000 A 
ATOM     12  C   UNL     1       4.583   5.239  17.356  0.00  0.00    +0.000 A 
ATOM     13  C   UNL     1       4.827   4.010  16.715  0.00  0.00    +0.000 A 
ATOM     14  C   UNL     1       3.962   2.927  16.936  0.00  0.00    +0.000 A 
BRANCH   9  16
ATOM     15  C   UNL     1       0.800   2.456  18.812  0.00  0.00    +0.000 C 
ATOM     16  O   UNL     1       1.961   2.070  18.089  0.00  0.00    +0.000 OA
ENDBRANCH   9  16
BRANCH  12  17
ATOM     17  C   UNL     1       5.605   6.301  17.340  0.00  0.00    +0.000 C 
ATOM     18  C   UNL     1       6.742   6.256  18.041  0.00  0.00    +0.000 C 
BRANCH  18  19
ATOM     19  N   UNL     1       7.687   7.346  17.927  0.00  0.00    +0.000 N 
ATOM     20  O   UNL     1       8.560   7.481  18.794  0.00  0.00    +0.000 OA
ATOM     21  O   UNL     1       7.538   8.091  16.950  0.00  0.00    +0.000 OA
ENDBRANCH  18  19
ENDBRANCH  12  17
BRANCH  13  22
ATOM     22  O   UNL     1       5.934   3.957  15.904  0.00  0.00    +0.000 OA
ATOM     23  C   UNL     1       5.726   4.141  14.508  0.00  0.00    +0.000 C 
ENDBRANCH  13  22
ENDBRANCH   7  11
ENDBRANCH   1   8
BRANCH   4  24
ATOM     24  O   UNL     1       0.282  12.348  20.371  0.00  0.00    +0.000 OA
BRANCH  24  25
ATOM     25  C   UNL     1      -1.135  12.243  20.545  0.00  0.00    +0.000 C 
BRANCH  25  26
ATOM     26  C   UNL     1      -1.562  12.961  21.795  0.00  0.00    +0.000 A 
ATOM     27  C   UNL     1      -2.787  12.666  22.400  0.00  0.00    +0.000 A 
ATOM     28  C   UNL     1      -3.166  13.322  23.571  0.00  0.00    +0.000 A 
ATOM     29  C   UNL     1      -2.326  14.288  24.149  0.00  0.00    +0.000 A 
ATOM     30  C   UNL     1      -1.095  14.574  23.543  0.00  0.00    +0.000 A 
ATOM     31  C   UNL     1      -0.718  13.917  22.374  0.00  0.00    +0.000 A 
BRANCH  29  32
ATOM     32  C   UNL     1      -2.731  15.026  25.398  0.00  0.00    +0.000 C 
ATOM     33  F   UNL     1      -3.052  14.206  26.437  0.00  0.00    +0.000 F 
ATOM     34  F   UNL     1      -1.746  15.845  25.860  0.00  0.00    +0.000 F 
ATOM     35  F   UNL     1      -3.818  15.823  25.200  0.00  0.00    +0.000 F 
ENDBRANCH  29  32
ENDBRANCH  25  26
ENDBRANCH  24  25
ENDBRANCH   4  24
TORSDOF 10
ENDMDL
MODEL 4
REMARK VINA RESULT:      -8.1      1.395      2.048
REMARK  Name = 
REMARK  12 active torsions:
REMARK  status: ('A' for Active; 'I' for Inactive)
REMARK    1  A    between atoms: C_1  and  O_2
REMARK    2  A    between atoms: O_2  and  C_3
REMARK    3  A    between atoms: C_5  and  C_6
REMARK    4  A    between atoms: C_7  and  C_8
REMARK    5  A    between atoms: C_11  and  O_12
REMARK    6  A    between atoms: O_12  and  C_13
REMARK    7  A    between atoms: C_13  and  C_14
REMARK    8  A    between atoms: C_17  and  C_18
REMARK    9  A    between atoms: C_26  and  C_27
REMARK   10  A    between atoms: C_28  and  N_29
REMARK   11  A    between atoms: C_32  and  O_33
REMARK   12  A    between atoms: O_33  and  C_34
REMARK                            x       y       z     vdW  Elec       q    Type
REMARK                         _______ _______ _______ _____ _____    ______ ____
ROOT
ATOM      1  C   UNL     1       1.552   8.253  19.742  0.00  0.00    +0.000 A 
ATOM      2  C   UNL     1       1.139   8.422  21.065  0.00  0.00    +0.000 A 
ATOM      3  C   UNL     1       0.722   9.661  21.535  0.00  0.00    +0.000 A 
ATOM      4  C   UNL     1       0.754  10.777  20.704  0.00  0.00    +0.000 A 
ATOM      5  C   UNL     1       1.111  10.622  19.365  0.00  0.00    +0.000 A 
ATOM      6  C   UNL     1       1.511   9.364  18.886  0.00  0.00    +0.000 A 
ENDROOT
BRANCH   1   8
ATOM      7  C   UNL     1       2.850   6.804  18.194  0.00  0.00    +0.000 C 
ATOM      8  C   UNL     1       2.031   6.951  19.249  0.00  0.00    +0.000 C 
BRANCH   7  11
ATOM      9  C   UNL     1       2.804   3.132  17.531  0.00  0.00    +0.000 A 
ATOM     10  C   UNL     1       2.442   4.413  17.932  0.00  0.00    +0.000 A 
ATOM     11  C   UNL     1       3.314   5.490  17.754  0.00  0.00    +0.000 A 
ATOM     12  C   UNL     1       4.591   5.283  17.200  0.00  0.00    +0.000 A 
ATOM     13  C   UNL     1       4.926   4.003  16.718  0.00  0.00    +0.000 A 
ATOM     14  C   UNL     1       4.033   2.937  16.901  0.00  0.00    +0.000 A 
BRANCH   9  16
ATOM     15  C   UNL     1       0.898   2.474  18.790  0.00  0.00    +0.000 C 
ATOM     16  O   UNL     1       1.875   2.166  17.805  0.00  0.00    +0.000 OA
ENDBRANCH   9  16
BRANCH  12  17
ATOM     17  C   UNL     1       5.608   6.350  17.245  0.00  0.00    +0.000 C 
ATOM     18  C   UNL     1       6.721   6.291  17.982  0.00  0.00    +0.000 C 
BRANCH  18  19
ATOM     19  N   UNL     1       7.664   7.389  17.927  0.00  0.00    +0.000 N 
ATOM     20  O   UNL     1       8.518   7.495  18.815  0.00  0.00    +0.000 OA
ATOM     21  O   UNL     1       7.531   8.168  16.975  0.00  0.00    +0.000 OA
ENDBRANCH  18  19
ENDBRANCH  12  17
BRANCH  13  22
ATOM     22  O   UNL     1       6.145   3.890  16.094  0.00  0.00    +0.000 OA
ATOM     23  C   UNL     1       6.151   3.906  14.671  0.00  0.00    +0.000 C 
ENDBRANCH  13  22
ENDBRANCH   7  11
ENDBRANCH   1   8
BRANCH   4  24
ATOM     24  O   UNL     1       0.477  12.049  21.131  0.00  0.00    +0.000 OA
BRANCH  24  25
ATOM     25  C   UNL     1      -0.085  12.881  20.109  0.00  0.00    +0.000 C 
BRANCH  25  26
ATOM     26  C   UNL     1      -1.579  12.721  20.071  0.00  0.00    +0.000 A 
ATOM     27  C   UNL     1      -2.196  12.071  18.999  0.00  0.00    +0.000 A 
ATOM     28  C   UNL     1      -3.582  11.909  18.982  0.00  0.00    +0.000 A 
ATOM     29  C   UNL     1      -4.369  12.403  20.034  0.00  0.00    +0.000 A 
ATOM     30  C   UNL     1      -3.744  13.048  21.111  0.00  0.00    +0.000 A 
ATOM     31  C   UNL     1      -2.361  13.208  21.127  0.00  0.00    +0.000 A 
BRANCH  29  32
ATOM     32  C   UNL     1      -5.868  12.262  20.018  0.00  0.00    +0.000 C 
ATOM     33  F   UNL     1      -6.528  13.447  19.887  0.00  0.00    +0.000 F 
ATOM     34  F   UNL     1      -6.307  11.476  18.996  0.00  0.00    +0.000 F 
ATOM     35  F   UNL     1      -6.347  11.693  21.160  0.00  0.00    +0.000 F 
ENDBRANCH  29  32
ENDBRANCH  25  26
ENDBRANCH  24  25
ENDBRANCH   4  24
TORSDOF 10
ENDMDL
MODEL 5
REMARK VINA RESULT:      -8.1      0.649      1.514
REMARK  Name = 
REMARK  12 active torsions:
REMARK  status: ('A' for Active; 'I' for Inactive)
REMARK    1  A    between atoms: C_1  and  O_2
REMARK    2  A    between atoms: O_2  and  C_3
REMARK    3  A    between atoms: C_5  and  C_6
REMARK    4  A    between atoms: C_7  and  C_8
REMARK    5  A    between atoms: C_11  and  O_12
REMARK    6  A    between atoms: O_12  and  C_13
REMARK    7  A    between atoms: C_13  and  C_14
REMARK    8  A    between atoms: C_17  and  C_18
REMARK    9  A    between atoms: C_26  and  C_27
REMARK   10  A    between atoms: C_28  and  N_29
REMARK   11  A    between atoms: C_32  and  O_33
REMARK   12  A    between atoms: O_33  and  C_34
REMARK                            x       y       z     vdW  Elec       q    Type
REMARK                         _______ _______ _______ _____ _____    ______ ____
ROOT
ATOM      1  C   UNL     1       1.547   8.470  19.457  0.00  0.00    +0.000 A 
ATOM      2  C   UNL     1       1.258   8.491  20.823  0.00  0.00    +0.000 A 
ATOM      3  C   UNL     1       0.904   9.671  21.465  0.00  0.00    +0.000 A 
ATOM      4  C   UNL     1       0.876  10.874  20.764  0.00  0.00    +0.000 A 
ATOM      5  C   UNL     1       1.108  10.868  19.389  0.00  0.00    +0.000 A 
ATOM      6  C   UNL     1       1.444   9.670  18.738  0.00  0.00    +0.000 A 
ENDROOT
BRANCH   1   8
ATOM      7  C   UNL     1       3.121   6.596  19.021  0.00  0.00    +0.000 C 
ATOM      8  C   UNL     1       1.961   7.230  18.781  0.00  0.00    +0.000 C 
BRANCH   7  11
ATOM      9  C   UNL     1       2.925   3.030  17.939  0.00  0.00    +0.000 A 
ATOM     10  C   UNL     1       2.659   4.245  18.560  0.00  0.00    +0.000 A 
ATOM     11  C   UNL     1       3.479   5.355  18.338  0.00  0.00    +0.000 A 
ATOM     12  C   UNL     1       4.612   5.244  17.509  0.00  0.00    +0.000 A 
ATOM     13  C   UNL     1       4.833   4.040  16.815  0.00  0.00    +0.000 A 
ATOM     14  C   UNL     1       3.995   2.939  17.048  0.00  0.00    +0.000 A 
BRANCH   9  16
ATOM     15  C   UNL     1       0.811   2.393  18.820  0.00  0.00    +0.000 C 
ATOM     16  O   UNL     1       2.071   2.018  18.279  0.00  0.00    +0.000 OA
ENDBRANCH   9  16
BRANCH  12  17
ATOM     17  C   UNL     1       5.619   6.321  17.472  0.00  0.00    +0.000 C 
ATOM     18  C   UNL     1       6.838   6.222  18.011  0.00  0.00    +0.000 C 
BRANCH  18  19
ATOM     19  N   UNL     1       7.756   7.335  17.890  0.00  0.00    +0.000 N 
ATOM     20  O   UNL     1       7.740   8.020  16.860  0.00  0.00    +0.000 OA
ATOM     21  O   UNL     1       8.518   7.514  18.849  0.00  0.00    +0.000 OA
ENDBRANCH  18  19
ENDBRANCH  12  17
BRANCH  13  22
ATOM     22  O   UNL     1       5.895   4.029  15.943  0.00  0.00    +0.000 OA
ATOM     23  C   UNL     1       5.616   4.314  14.577  0.00  0.00    +0.000 C 
ENDBRANCH  13  22
ENDBRANCH   7  11
ENDBRANCH   1   8
BRANCH   4  24
ATOM     24  O   UNL     1       0.657  12.091  21.353  0.00  0.00    +0.000 OA
BRANCH  24  25
ATOM     25  C   UNL     1      -0.374  12.853  20.715  0.00  0.00    +0.000 C 
BRANCH  25  26
ATOM     26  C   UNL     1      -1.617  12.857  21.560  0.00  0.00    +0.000 A 
ATOM     27  C   UNL     1      -1.745  11.978  22.639  0.00  0.00    +0.000 A 
ATOM     28  C   UNL     1      -2.894  12.003  23.430  0.00  0.00    +0.000 A 
ATOM     29  C   UNL     1      -3.933  12.902  23.147  0.00  0.00    +0.000 A 
ATOM     30  C   UNL     1      -3.797  13.787  22.068  0.00  0.00    +0.000 A 
ATOM     31  C   UNL     1      -2.649  13.762  21.280  0.00  0.00    +0.000 A 
BRANCH  29  32
ATOM     32  C   UNL     1      -5.192  12.925  23.973  0.00  0.00    +0.000 C 
ATOM     33  F   UNL     1      -5.583  14.177  24.341  0.00  0.00    +0.000 F 
ATOM     34  F   UNL     1      -6.255  12.381  23.318  0.00  0.00    +0.000 F 
ATOM     35  F   UNL     1      -5.066  12.218  25.131  0.00  0.00    +0.000 F 
ENDBRANCH  29  32
ENDBRANCH  25  26
ENDBRANCH  24  25
ENDBRANCH   4  24
TORSDOF 10
ENDMDL
MODEL 6
REMARK VINA RESULT:      -8.1      0.968      1.336
REMARK  Name = 
REMARK  12 active torsions:
REMARK  status: ('A' for Active; 'I' for Inactive)
REMARK    1  A    between atoms: C_1  and  O_2
REMARK    2  A    between atoms: O_2  and  C_3
REMARK    3  A    between atoms: C_5  and  C_6
REMARK    4  A    between atoms: C_7  and  C_8
REMARK    5  A    between atoms: C_11  and  O_12
REMARK    6  A    between atoms: O_12  and  C_13
REMARK    7  A    between atoms: C_13  and  C_14
REMARK    8  A    between atoms: C_17  and  C_18
REMARK    9  A    between atoms: C_26  and  C_27
REMARK   10  A    between atoms: C_28  and  N_29
REMARK   11  A    between atoms: C_32  and  O_33
REMARK   12  A    between atoms: O_33  and  C_34
REMARK                            x       y       z     vdW  Elec       q    Type
REMARK                         _______ _______ _______ _____ _____    ______ ____
ROOT
ATOM      1  C   UNL     1       1.674   9.363  18.702  0.00  0.00    +0.000 A 
ATOM      2  C   UNL     1       2.106  10.480  17.985  0.00  0.00    +0.000 A 
ATOM      3  C   UNL     1       1.811  11.768  18.414  0.00  0.00    +0.000 A 
ATOM      4  C   UNL     1       1.031  11.971  19.550  0.00  0.00    +0.000 A 
ATOM      5  C   UNL     1       0.634  10.872  20.311  0.00  0.00    +0.000 A 
ATOM      6  C   UNL     1       0.953   9.572  19.887  0.00  0.00    +0.000 A 
ENDROOT
BRANCH   1   8
ATOM      7  C   UNL     1       3.014   7.271  18.616  0.00  0.00    +0.000 C 
ATOM      8  C   UNL     1       1.951   7.996  18.230  0.00  0.00    +0.000 C 
BRANCH   7  11
ATOM      9  C   UNL     1       2.243   3.766  17.592  0.00  0.00    +0.000 A 
ATOM     10  C   UNL     1       2.119   5.073  18.050  0.00  0.00    +0.000 A 
ATOM     11  C   UNL     1       3.236   5.909  18.135  0.00  0.00    +0.000 A 
ATOM     12  C   UNL     1       4.512   5.423  17.792  0.00  0.00    +0.000 A 
ATOM     13  C   UNL     1       4.626   4.129  17.250  0.00  0.00    +0.000 A 
ATOM     14  C   UNL     1       3.491   3.308  17.168  0.00  0.00    +0.000 A 
BRANCH   9  16
ATOM     15  C   UNL     1       0.792   2.306  18.782  0.00  0.00    +0.000 C 
ATOM     16  O   UNL     1       1.081   3.046  17.603  0.00  0.00    +0.000 OA
ENDBRANCH   9  16
BRANCH  12  17
ATOM     17  C   UNL     1       5.720   6.202  18.120  0.00  0.00    +0.000 C 
ATOM     18  C   UNL     1       6.387   6.953  17.238  0.00  0.00    +0.000 C 
BRANCH  18  19
ATOM     19  N   UNL     1       7.548   7.698  17.679  0.00  0.00    +0.000 N 
ATOM     20  O   UNL     1       7.779   8.805  17.178  0.00  0.00    +0.000 OA
ATOM     21  O   UNL     1       8.248   7.148  18.539  0.00  0.00    +0.000 OA
ENDBRANCH  18  19
ENDBRANCH  12  17
BRANCH  13  22
ATOM     22  O   UNL     1       5.881   3.752  16.839  0.00  0.00    +0.000 OA
ATOM     23  C   UNL     1       6.127   3.732  15.438  0.00  0.00    +0.000 C 
ENDBRANCH  13  22
ENDBRANCH   7  11
ENDBRANCH   1   8
BRANCH   4  24
ATOM     24  O   UNL     1       0.598  13.203  19.962  0.00  0.00    +0.000 OA
BRANCH  24  25
ATOM     25  C   UNL     1      -0.767  13.470  19.618  0.00  0.00    +0.000 C 
BRANCH  25  26
ATOM     26  C   UNL     1      -1.639  13.385  20.839  0.00  0.00    +0.000 A 
ATOM     27  C   UNL     1      -2.949  12.910  20.744  0.00  0.00    +0.000 A 
ATOM     28  C   UNL     1      -3.745  12.815  21.886  0.00  0.00    +0.000 A 
ATOM     29  C   UNL     1      -3.242  13.203  23.137  0.00  0.00    +0.000 A 
ATOM     30  C   UNL     1      -1.923  13.672  23.229  0.00  0.00    +0.000 A 
ATOM     31  C   UNL     1      -1.130  13.765  22.088  0.00  0.00    +0.000 A 
BRANCH  29  32
ATOM     32  C   UNL     1      -4.095  13.134  24.376  0.00  0.00    +0.000 C 
ATOM     33  F   UNL     1      -3.562  13.790  25.445  0.00  0.00    +0.000 F 
ATOM     34  F   UNL     1      -5.332  13.672  24.188  0.00  0.00    +0.000 F 
ATOM     35  F   UNL     1      -4.304  11.853  24.792  0.00  0.00    +0.000 F 
ENDBRANCH  29  32
ENDBRANCH  25  26
ENDBRANCH  24  25
ENDBRANCH   4  24
TORSDOF 10
ENDMDL
MODEL 7
REMARK VINA RESULT:      -8.0      1.187      1.693
REMARK  Name = 
REMARK  12 active torsions:
REMARK  status: ('A' for Active; 'I' for Inactive)
REMARK    1  A    between atoms: C_1  and  O_2
REMARK    2  A    between atoms: O_2  and  C_3
REMARK    3  A    between atoms: C_5  and  C_6
REMARK    4  A    between atoms: C_7  and  C_8
REMARK    5  A    between atoms: C_11  and  O_12
REMARK    6  A    between atoms: O_12  and  C_13
REMARK    7  A    between atoms: C_13  and  C_14
REMARK    8  A    between atoms: C_17  and  C_18
REMARK    9  A    between atoms: C_26  and  C_27
REMARK   10  A    between atoms: C_28  and  N_29
REMARK   11  A    between atoms: C_32  and  O_33
REMARK   12  A    between atoms: O_33  and  C_34
REMARK                            x       y       z     vdW  Elec       q    Type
REMARK                         _______ _______ _______ _____ _____    ______ ____
ROOT
ATOM      1  C   UNL     1       1.481   8.186  20.160  0.00  0.00    +0.000 A 
ATOM      2  C   UNL     1       1.302   9.360  19.425  0.00  0.00    +0.000 A 
ATOM      3  C   UNL     1       0.894  10.537  20.039  0.00  0.00    +0.000 A 
ATOM      4  C   UNL     1       0.607  10.558  21.401  0.00  0.00    +0.000 A 
ATOM      5  C   UNL     1       0.830   9.413  22.164  0.00  0.00    +0.000 A 
ATOM      6  C   UNL     1       1.265   8.230  21.546  0.00  0.00    +0.000 A 
ENDROOT
BRANCH   1   8
ATOM      7  C   UNL     1       3.068   6.728  18.920  0.00  0.00    +0.000 C 
ATOM      8  C   UNL     1       1.876   6.927  19.508  0.00  0.00    +0.000 C 
BRANCH   7  11
ATOM      9  C   UNL     1       2.840   3.119  18.000  0.00  0.00    +0.000 A 
ATOM     10  C   UNL     1       2.580   4.365  18.558  0.00  0.00    +0.000 A 
ATOM     11  C   UNL     1       3.421   5.452  18.302  0.00  0.00    +0.000 A 
ATOM     12  C   UNL     1       4.568   5.287  17.504  0.00  0.00    +0.000 A 
ATOM     13  C   UNL     1       4.787   4.048  16.872  0.00  0.00    +0.000 A 
ATOM     14  C   UNL     1       3.926   2.971  17.137  0.00  0.00    +0.000 A 
BRANCH   9  16
ATOM     15  C   UNL     1       0.669   2.551  18.783  0.00  0.00    +0.000 C 
ATOM     16  O   UNL     1       1.964   2.136  18.368  0.00  0.00    +0.000 OA
ENDBRANCH   9  16
BRANCH  12  17
ATOM     17  C   UNL     1       5.592   6.346  17.439  0.00  0.00    +0.000 C 
ATOM     18  C   UNL     1       6.772   6.284  18.065  0.00  0.00    +0.000 C 
BRANCH  18  19
ATOM     19  N   UNL     1       7.713   7.373  17.907  0.00  0.00    +0.000 N 
ATOM     20  O   UNL     1       8.518   7.610  18.815  0.00  0.00    +0.000 OA
ATOM     21  O   UNL     1       7.628   8.012  16.850  0.00  0.00    +0.000 OA
ENDBRANCH  18  19
ENDBRANCH  12  17
BRANCH  13  22
ATOM     22  O   UNL     1       5.865   3.982  16.024  0.00  0.00    +0.000 OA
ATOM     23  C   UNL     1       5.617   4.192  14.638  0.00  0.00    +0.000 C 
ENDBRANCH  13  22
ENDBRANCH   7  11
ENDBRANCH   1   8
BRANCH   4  24
ATOM     24  O   UNL     1       0.084  11.646  22.049  0.00  0.00    +0.000 OA
BRANCH  24  25
ATOM     25  C   UNL     1      -0.402  12.657  21.159  0.00  0.00    +0.000 C 
BRANCH  25  26
ATOM     26  C   UNL     1      -1.905  12.644  21.126  0.00  0.00    +0.000 A 
ATOM     27  C   UNL     1      -2.642  12.823  22.300  0.00  0.00    +0.000 A 
ATOM     28  C   UNL     1      -4.037  12.830  22.257  0.00  0.00    +0.000 A 
ATOM     29  C   UNL     1      -4.712  12.650  21.040  0.00  0.00    +0.000 A 
ATOM     30  C   UNL     1      -3.967  12.479  19.864  0.00  0.00    +0.000 A 
ATOM     31  C   UNL     1      -2.575  12.473  19.908  0.00  0.00    +0.000 A 
BRANCH  29  32
ATOM     32  C   UNL     1      -6.216  12.627  20.978  0.00  0.00    +0.000 C 
ATOM     33  F   UNL     1      -6.750  11.382  21.123  0.00  0.00    +0.000 F 
ATOM     34  F   UNL     1      -6.789  13.393  21.948  0.00  0.00    +0.000 F 
ATOM     35  F   UNL     1      -6.695  13.103  19.795  0.00  0.00    +0.000 F 
ENDBRANCH  29  32
ENDBRANCH  25  26
ENDBRANCH  24  25
ENDBRANCH   4  24
TORSDOF 10
ENDMDL
MODEL 8
REMARK VINA RESULT:      -8.0      0.879      1.250
REMARK  Name = 
REMARK  12 active torsions:
REMARK  status: ('A' for Active; 'I' for Inactive)
REMARK    1  A    between atoms: C_1  and  O_2
REMARK    2  A    between atoms: O_2  and  C_3
REMARK    3  A    between atoms: C_5  and  C_6
REMARK    4  A    between atoms: C_7  and  C_8
REMARK    5  A    between atoms: C_11  and  O_12
REMARK    6  A    between atoms: O_12  and  C_13
REMARK    7  A    between atoms: C_13  and  C_14
REMARK    8  A    between atoms: C_17  and  C_18
REMARK    9  A    between atoms: C_26  and  C_27
REMARK   10  A    between atoms: C_28  and  N_29
REMARK   11  A    between atoms: C_32  and  O_33
REMARK   12  A    between atoms: O_33  and  C_34
REMARK                            x       y       z     vdW  Elec       q    Type
REMARK                         _______ _______ _______ _____ _____    ______ ____
ROOT
ATOM      1  C   UNL     1       1.355   9.299  18.874  0.00  0.00    +0.000 A 
ATOM      2  C   UNL     1       1.845  10.409  18.182  0.00  0.00    +0.000 A 
ATOM      3  C   UNL     1       1.527  11.701  18.579  0.00  0.00    +0.000 A 
ATOM      4  C   UNL     1       0.668  11.918  19.653  0.00  0.00    +0.000 A 
ATOM      5  C   UNL     1       0.211  10.827  20.392  0.00  0.00    +0.000 A 
ATOM      6  C   UNL     1       0.552   9.522  20.003  0.00  0.00    +0.000 A 
ENDROOT
BRANCH   1   8
ATOM      7  C   UNL     1       2.902   7.460  18.237  0.00  0.00    +0.000 C 
ATOM      8  C   UNL     1       1.658   7.927  18.435  0.00  0.00    +0.000 C 
BRANCH   7  11
ATOM      9  C   UNL     1       2.288   3.825  17.663  0.00  0.00    +0.000 A 
ATOM     10  C   UNL     1       2.132   5.154  18.041  0.00  0.00    +0.000 A 
ATOM     11  C   UNL     1       3.153   6.083  17.819  0.00  0.00    +0.000 A 
ATOM     12  C   UNL     1       4.370   5.674  17.243  0.00  0.00    +0.000 A 
ATOM     13  C   UNL     1       4.496   4.349  16.784  0.00  0.00    +0.000 A 
ATOM     14  C   UNL     1       3.457   3.433  17.011  0.00  0.00    +0.000 A 
BRANCH   9  16
ATOM     15  C   UNL     1       1.477   1.970  18.910  0.00  0.00    +0.000 C 
ATOM     16  O   UNL     1       1.231   3.016  17.979  0.00  0.00    +0.000 OA
ENDBRANCH   9  16
BRANCH  12  17
ATOM     17  C   UNL     1       5.536   6.576  17.241  0.00  0.00    +0.000 C 
ATOM     18  C   UNL     1       6.625   6.391  17.993  0.00  0.00    +0.000 C 
BRANCH  18  19
ATOM     19  N   UNL     1       7.724   7.329  17.889  0.00  0.00    +0.000 N 
ATOM     20  O   UNL     1       7.841   8.007  16.861  0.00  0.00    +0.000 OA
ATOM     21  O   UNL     1       8.492   7.371  18.858  0.00  0.00    +0.000 OA
ENDBRANCH  18  19
ENDBRANCH  12  17
BRANCH  13  22
ATOM     22  O   UNL     1       5.668   4.040  16.138  0.00  0.00    +0.000 OA
ATOM     23  C   UNL     1       5.642   4.029  14.715  0.00  0.00    +0.000 C 
ENDBRANCH  13  22
ENDBRANCH   7  11
ENDBRANCH   1   8
BRANCH   4  24
ATOM     24  O   UNL     1       0.214  13.156  20.023  0.00  0.00    +0.000 OA
BRANCH  24  25
ATOM     25  C   UNL     1       0.224  13.363  21.440  0.00  0.00    +0.000 C 
BRANCH  25  26
ATOM     26  C   UNL     1      -1.174  13.285  21.988  0.00  0.00    +0.000 A 
ATOM     27  C   UNL     1      -2.217  13.983  21.373  0.00  0.00    +0.000 A 
ATOM     28  C   UNL     1      -3.515  13.888  21.876  0.00  0.00    +0.000 A 
ATOM     29  C   UNL     1      -3.785  13.099  23.006  0.00  0.00    +0.000 A 
ATOM     30  C   UNL     1      -2.736  12.395  23.614  0.00  0.00    +0.000 A 
ATOM     31  C   UNL     1      -1.441  12.490  23.110  0.00  0.00    +0.000 A 
BRANCH  29  32
ATOM     32  C   UNL     1      -5.174  13.007  23.579  0.00  0.00    +0.000 C 
ATOM     33  F   UNL     1      -5.687  14.208  23.966  0.00  0.00    +0.000 F 
ATOM     34  F   UNL     1      -6.069  12.488  22.693  0.00  0.00    +0.000 F 
ATOM     35  F   UNL     1      -5.230  12.205  24.679  0.00  0.00    +0.000 F 
ENDBRANCH  29  32
ENDBRANCH  25  26
ENDBRANCH  24  25
ENDBRANCH   4  24
TORSDOF 10
ENDMDL
MODEL 9
REMARK VINA RESULT:      -8.0      6.313     11.464
REMARK  Name = 
REMARK  12 active torsions:
REMARK  status: ('A' for Active; 'I' for Inactive)
REMARK    1  A    between atoms: C_1  and  O_2
REMARK    2  A    between atoms: O_2  and  C_3
REMARK    3  A    between atoms: C_5  and  C_6
REMARK    4  A    between atoms: C_7  and  C_8
REMARK    5  A    between atoms: C_11  and  O_12
REMARK    6  A    between atoms: O_12  and  C_13
REMARK    7  A    between atoms: C_13  and  C_14
REMARK    8  A    between atoms: C_17  and  C_18
REMARK    9  A    between atoms: C_26  and  C_27
REMARK   10  A    between atoms: C_28  and  N_29
REMARK   11  A    between atoms: C_32  and  O_33
REMARK   12  A    between atoms: O_33  and  C_34
REMARK                            x       y       z     vdW  Elec       q    Type
REMARK                         _______ _______ _______ _____ _____    ______ ____
ROOT
ATOM      1  C   UNL     1       2.445   7.886  18.178  0.00  0.00    +0.000 A 
ATOM      2  C   UNL     1       3.545   7.886  17.318  0.00  0.00    +0.000 A 
ATOM      3  C   UNL     1       4.498   6.876  17.368  0.00  0.00    +0.000 A 
ATOM      4  C   UNL     1       4.399   5.861  18.316  0.00  0.00    +0.000 A 
ATOM      5  C   UNL     1       3.282   5.810  19.149  0.00  0.00    +0.000 A 
ATOM      6  C   UNL     1       2.309   6.820  19.081  0.00  0.00    +0.000 A 
ENDROOT
BRANCH   1   8
ATOM      7  C   UNL     1       0.150   8.806  18.432  0.00  0.00    +0.000 C 
ATOM      8  C   UNL     1       1.455   8.974  18.156  0.00  0.00    +0.000 C 
BRANCH   7  11
ATOM      9  C   UNL     1      -2.359  11.232  17.110  0.00  0.00    +0.000 A 
ATOM     10  C   UNL     1      -1.440  10.193  17.207  0.00  0.00    +0.000 A 
ATOM     11  C   UNL     1      -0.792   9.922  18.416  0.00  0.00    +0.000 A 
ATOM     12  C   UNL     1      -1.035  10.727  19.545  0.00  0.00    +0.000 A 
ATOM     13  C   UNL     1      -2.026  11.725  19.471  0.00  0.00    +0.000 A 
ATOM     14  C   UNL     1      -2.669  11.976  18.249  0.00  0.00    +0.000 A 
BRANCH   9  16
ATOM     15  C   UNL     1      -2.945  10.271  15.016  0.00  0.00    +0.000 C 
ATOM     16  O   UNL     1      -2.883  11.413  15.861  0.00  0.00    +0.000 OA
ENDBRANCH   9  16
BRANCH  12  17
ATOM     17  C   UNL     1      -0.177  10.619  20.739  0.00  0.00    +0.000 C 
ATOM     18  C   UNL     1      -0.302   9.663  21.665  0.00  0.00    +0.000 C 
BRANCH  18  19
ATOM     19  N   UNL     1       0.616   9.638  22.783  0.00  0.00    +0.000 N 
ATOM     20  O   UNL     1       1.821   9.453  22.570  0.00  0.00    +0.000 OA
ATOM     21  O   UNL     1       0.110   9.795  23.902  0.00  0.00    +0.000 OA
ENDBRANCH  18  19
ENDBRANCH  12  17
BRANCH  13  22
ATOM     22  O   UNL     1      -2.289  12.406  20.634  0.00  0.00    +0.000 OA
ATOM     23  C   UNL     1      -3.650  12.712  20.914  0.00  0.00    +0.000 C 
ENDBRANCH  13  22
ENDBRANCH   7  11
ENDBRANCH   1   8
BRANCH   4  24
ATOM     24  O   UNL     1       5.361   4.904  18.506  0.00  0.00    +0.000 OA
BRANCH  24  25
ATOM     25  C   UNL     1       6.574   5.170  17.791  0.00  0.00    +0.000 C 
BRANCH  25  26
ATOM     26  C   UNL     1       6.442   4.730  16.360  0.00  0.00    +0.000 A 
ATOM     27  C   UNL     1       7.155   5.381  15.349  0.00  0.00    +0.000 A 
ATOM     28  C   UNL     1       7.043   4.953  14.026  0.00  0.00    +0.000 A 
ATOM     29  C   UNL     1       6.210   3.873  13.696  0.00  0.00    +0.000 A 
ATOM     30  C   UNL     1       5.503   3.218  14.715  0.00  0.00    +0.000 A 
ATOM     31  C   UNL     1       5.617   3.646  16.036  0.00  0.00    +0.000 A 
BRANCH  29  32
ATOM     32  C   UNL     1       6.055   3.414  12.270  0.00  0.00    +0.000 C 
ATOM     33  F   UNL     1       4.875   3.787  11.701  0.00  0.00    +0.000 F 
ATOM     34  F   UNL     1       7.032   3.904  11.457  0.00  0.00    +0.000 F 
ATOM     35  F   UNL     1       6.115   2.059  12.151  0.00  0.00    +0.000 F 
ENDBRANCH  29  32
ENDBRANCH  25  26
ENDBRANCH  24  25
ENDBRANCH   4  24
TORSDOF 10
ENDMDL
