MODEL 1
REMARK VINA RESULT:      -7.4      0.000      0.000
REMARK  Name = 
REMARK  13 active torsions:
REMARK  status: ('A' for Active; 'I' for Inactive)
REMARK    1  A    between atoms: C_1  and  O_2
REMARK    2  A    between atoms: O_2  and  C_3
REMARK    3  A    between atoms: C_3  and  C_4
REMARK    4  A    between atoms: C_4  and  C_5
REMARK    5  A    between atoms: C_5  and  N_6
REMARK    6  A    between atoms: N_16  and  C_17
REMARK    7  A    between atoms: N_18  and  C_19
REMARK    8  A    between atoms: C_19  and  C_20
REMARK    9  A    between atoms: C_20  and  O_21
REMARK   10  A    between atoms: C_20  and  C_22
REMARK   11  A    between atoms: C_22  and  O_23
REMARK   12  A    between atoms: O_23  and  C_24
REMARK   13  A    between atoms: C_29  and  C_30
REMARK                            x       y       z     vdW  Elec       q    Type
REMARK                         _______ _______ _______ _____ _____    ______ ____
ROOT
ATOM      1  N   UNL     1       2.619   3.656  18.019  0.00  0.00    +0.000 N 
ATOM      2  C   UNL     1       3.709   4.184  17.422  0.00  0.00    +0.000 A 
ATOM      3  N   UNL     1       4.241   3.790  16.284  0.00  0.00    +0.000 NA
ATOM      4  C   UNL     1       5.334   4.568  16.111  0.00  0.00    +0.000 A 
ATOM      5  C   UNL     1       5.499   5.448  17.137  0.00  0.00    +0.000 A 
ATOM      6  C   UNL     1       6.622   6.325  17.218  0.00  0.00    +0.000 A 
ATOM      7  O   UNL     1       6.901   7.027  18.182  0.00  0.00    +0.000 OA
ATOM      8  N   UNL     1       7.404   6.270  16.081  0.00  0.00    +0.000 N 
ATOM      9  C   UNL     1       7.290   5.382  15.025  0.00  0.00    +0.000 A 
ATOM     10  O   UNL     1       8.137   5.412  14.132  0.00  0.00    +0.000 OA
ATOM     11  N   UNL     1       6.220   4.497  15.057  0.00  0.00    +0.000 N 
ATOM     12  C   UNL     1       6.038   3.514  14.013  0.00  0.00    +0.000 C 
ATOM     13  N   UNL     1       4.412   5.256  17.960  0.00  0.00    +0.000 N 
ATOM     14  H   UNL     1       2.510   3.844  19.021  0.00  0.00    +0.000 HD
ATOM     15  H   UNL     1       8.218   6.863  16.063  0.00  0.00    +0.000 HD
ENDROOT
BRANCH   1  16
ATOM     16  C   UNL     1       2.333   2.243  17.829  0.00  0.00    +0.000 C 
BRANCH  16  17
ATOM     17  C   UNL     1       1.235   1.830  18.810  0.00  0.00    +0.000 C 
BRANCH  17  18
ATOM     18  C   UNL     1       0.798   3.016  19.654  0.00  0.00    +0.000 C 
BRANCH  18  20
ATOM     19  C   UNL     1       1.592   2.482  21.808  0.00  0.00    +0.000 C 
ATOM     20  O   UNL     1       1.796   3.266  20.644  0.00  0.00    +0.000 OA
ENDBRANCH  18  20
ENDBRANCH  17  18
ENDBRANCH  16  17
ENDBRANCH   1  16
BRANCH  13  21
ATOM     21  C   UNL     1       4.143   6.081  19.135  0.00  0.00    +0.000 C 
BRANCH  21  22
ATOM     22  C   UNL     1       2.677   6.384  19.466  0.00  0.00    +0.000 C 
BRANCH  22  23
ATOM     23  O   UNL     1       2.436   6.094  20.856  0.00  0.00    +0.000 OA
ATOM     24  H   UNL     1       2.310   6.934  21.333  0.00  0.00    +0.000 HD
ENDBRANCH  22  23
BRANCH  22  25
ATOM     25  C   UNL     1       2.277   7.827  19.174  0.00  0.00    +0.000 C 
BRANCH  25  26
ATOM     26  O   UNL     1       1.627   8.342  20.349  0.00  0.00    +0.000 OA
BRANCH  26  27
ATOM     27  C   UNL     1       0.773   9.390  20.125  0.00  0.00    +0.000 A 
ATOM     28  C   UNL     1       0.516   9.876  18.840  0.00  0.00    +0.000 A 
ATOM     29  C   UNL     1      -0.360  10.940  18.643  0.00  0.00    +0.000 A 
ATOM     30  C   UNL     1      -1.009  11.511  19.733  0.00  0.00    +0.000 A 
ATOM     31  C   UNL     1      -0.792  11.007  21.015  0.00  0.00    +0.000 A 
ATOM     32  C   UNL     1       0.102   9.943  21.229  0.00  0.00    +0.000 A 
ATOM     33  C   UNL     1       0.278   9.410  22.626  0.00  0.00    +0.000 C 
ENDBRANCH  26  27
ENDBRANCH  25  26
ENDBRANCH  22  25
ENDBRANCH  21  22
ENDBRANCH  13  21
TORSDOF 10
ENDMDL
MODEL 2
REMARK VINA RESULT:      -7.1      1.082      1.209
REMARK  Name = 
REMARK  13 active torsions:
REMARK  status: ('A' for Active; 'I' for Inactive)
REMARK    1  A    between atoms: C_1  and  O_2
REMARK    2  A    between atoms: O_2  and  C_3
REMARK    3  A    between atoms: C_3  and  C_4
REMARK    4  A    between atoms: C_4  and  C_5
REMARK    5  A    between atoms: C_5  and  N_6
REMARK    6  A    between atoms: N_16  and  C_17
REMARK    7  A    between atoms: N_18  and  C_19
REMARK    8  A    between atoms: C_19  and  C_20
REMARK    9  A    between atoms: C_20  and  O_21
REMARK   10  A    between atoms: C_20  and  C_22
REMARK   11  A    between atoms: C_22  and  O_23
REMARK   12  A    between atoms: O_23  and  C_24
REMARK   13  A    between atoms: C_29  and  C_30
REMARK                            x       y       z     vdW  Elec       q    Type
REMARK                         _______ _______ _______ _____ _____    ______ ____
ROOT
ATOM      1  N   UNL     1       2.560   3.699  17.853  0.00  0.00    +0.000 N 
ATOM      2  C   UNL     1       3.665   4.219  17.275  0.00  0.00    +0.000 A 
ATOM      3  N   UNL     1       4.221   3.815  16.153  0.00  0.00    +0.000 NA
ATOM      4  C   UNL     1       5.320   4.588  15.998  0.00  0.00    +0.000 A 
ATOM      5  C   UNL     1       5.465   5.475  17.021  0.00  0.00    +0.000 A 
ATOM      6  C   UNL     1       6.589   6.349  17.121  0.00  0.00    +0.000 A 
ATOM      7  O   UNL     1       6.850   7.057  18.085  0.00  0.00    +0.000 OA
ATOM      8  N   UNL     1       7.396   6.282  16.001  0.00  0.00    +0.000 N 
ATOM      9  C   UNL     1       7.302   5.387  14.949  0.00  0.00    +0.000 A 
ATOM     10  O   UNL     1       8.169   5.407  14.075  0.00  0.00    +0.000 OA
ATOM     11  N   UNL     1       6.228   4.506  14.964  0.00  0.00    +0.000 N 
ATOM     12  C   UNL     1       6.066   3.515  13.924  0.00  0.00    +0.000 C 
ATOM     13  N   UNL     1       4.360   5.293  17.821  0.00  0.00    +0.000 N 
ATOM     14  H   UNL     1       2.430   3.895  18.850  0.00  0.00    +0.000 HD
ATOM     15  H   UNL     1       8.213   6.872  15.997  0.00  0.00    +0.000 HD
ENDROOT
BRANCH   1  16
ATOM     16  C   UNL     1       2.273   2.286  17.667  0.00  0.00    +0.000 C 
BRANCH  16  17
ATOM     17  C   UNL     1       1.210   1.866  18.681  0.00  0.00    +0.000 C 
BRANCH  17  18
ATOM     18  C   UNL     1       0.888   3.012  19.625  0.00  0.00    +0.000 C 
BRANCH  18  20
ATOM     19  C   UNL     1       1.667   2.584  21.808  0.00  0.00    +0.000 C 
ATOM     20  O   UNL     1       1.965   3.163  20.548  0.00  0.00    +0.000 OA
ENDBRANCH  18  20
ENDBRANCH  17  18
ENDBRANCH  16  17
ENDBRANCH   1  16
BRANCH  13  21
ATOM     21  C   UNL     1       4.068   6.128  18.983  0.00  0.00    +0.000 C 
BRANCH  21  22
ATOM     22  C   UNL     1       2.714   6.847  19.016  0.00  0.00    +0.000 C 
BRANCH  22  23
ATOM     23  O   UNL     1       2.377   7.159  20.381  0.00  0.00    +0.000 OA
ATOM     24  H   UNL     1       2.818   7.991  20.629  0.00  0.00    +0.000 HD
ENDBRANCH  22  23
BRANCH  22  25
ATOM     25  C   UNL     1       2.689   8.125  18.184  0.00  0.00    +0.000 C 
BRANCH  25  26
ATOM     26  O   UNL     1       1.412   8.754  18.395  0.00  0.00    +0.000 OA
BRANCH  26  27
ATOM     27  C   UNL     1       1.469  10.088  18.702  0.00  0.00    +0.000 A 
ATOM     28  C   UNL     1       2.227  10.990  17.951  0.00  0.00    +0.000 A 
ATOM     29  C   UNL     1       2.264  12.342  18.283  0.00  0.00    +0.000 A 
ATOM     30  C   UNL     1       1.514  12.808  19.359  0.00  0.00    +0.000 A 
ATOM     31  C   UNL     1       0.721  11.924  20.090  0.00  0.00    +0.000 A 
ATOM     32  C   UNL     1       0.689  10.555  19.773  0.00  0.00    +0.000 A 
ATOM     33  C   UNL     1      -0.209   9.644  20.568  0.00  0.00    +0.000 C 
ENDBRANCH  26  27
ENDBRANCH  25  26
ENDBRANCH  22  25
ENDBRANCH  21  22
ENDBRANCH  13  21
TORSDOF 10
ENDMDL
MODEL 3
REMARK VINA RESULT:      -6.9      0.734      1.532
REMARK  Name = 
REMARK  13 active torsions:
REMARK  status: ('A' for Active; 'I' for Inactive)
REMARK    1  A    between atoms: C_1  and  O_2
REMARK    2  A    between atoms: O_2  and  C_3
REMARK    3  A    between atoms: C_3  and  C_4
REMARK    4  A    between atoms: C_4  and  C_5
REMARK    5  A    between atoms: C_5  and  N_6
REMARK    6  A    between atoms: N_16  and  C_17
REMARK    7  A    between atoms: N_18  and  C_19
REMARK    8  A    between atoms: C_19  and  C_20
REMARK    9  A    between atoms: C_20  and  O_21
REMARK   10  A    between atoms: C_20  and  C_22
REMARK   11  A    between atoms: C_22  and  O_23
REMARK   12  A    between atoms: O_23  and  C_24
REMARK   13  A    between atoms: C_29  and  C_30
REMARK                            x       y       z     vdW  Elec       q    Type
REMARK                         _______ _______ _______ _____ _____    ______ ____
ROOT
ATOM      1  N   UNL     1       2.397   3.921  18.071  0.00  0.00    +0.000 N 
ATOM      2  C   UNL     1       3.510   4.404  17.479  0.00  0.00    +0.000 A 
ATOM      3  N   UNL     1       4.038   3.980  16.349  0.00  0.00    +0.000 NA
ATOM      4  C   UNL     1       5.160   4.717  16.179  0.00  0.00    +0.000 A 
ATOM      5  C   UNL     1       5.347   5.600  17.198  0.00  0.00    +0.000 A 
ATOM      6  C   UNL     1       6.500   6.437  17.282  0.00  0.00    +0.000 A 
ATOM      7  O   UNL     1       6.797   7.137  18.241  0.00  0.00    +0.000 OA
ATOM      8  N   UNL     1       7.290   6.342  16.152  0.00  0.00    +0.000 N 
ATOM      9  C   UNL     1       7.153   5.450  15.103  0.00  0.00    +0.000 A 
ATOM     10  O   UNL     1       8.008   5.440  14.217  0.00  0.00    +0.000 OA
ATOM     11  N   UNL     1       6.051   4.604  15.133  0.00  0.00    +0.000 N 
ATOM     12  C   UNL     1       5.843   3.618  14.096  0.00  0.00    +0.000 C 
ATOM     13  N   UNL     1       4.248   5.455  18.013  0.00  0.00    +0.000 N 
ATOM     14  H   UNL     1       2.286   4.122  19.070  0.00  0.00    +0.000 HD
ATOM     15  H   UNL     1       8.125   6.905  16.136  0.00  0.00    +0.000 HD
ENDROOT
BRANCH   1  16
ATOM     16  C   UNL     1       2.061   2.518  17.891  0.00  0.00    +0.000 C 
BRANCH  16  17
ATOM     17  C   UNL     1       2.050   1.839  19.260  0.00  0.00    +0.000 C 
BRANCH  17  18
ATOM     18  C   UNL     1       3.201   2.341  20.116  0.00  0.00    +0.000 C 
BRANCH  18  20
ATOM     19  C   UNL     1       1.477   2.722  21.677  0.00  0.00    +0.000 C 
ATOM     20  O   UNL     1       2.682   3.217  21.115  0.00  0.00    +0.000 OA
ENDBRANCH  18  20
ENDBRANCH  17  18
ENDBRANCH  16  17
ENDBRANCH   1  16
BRANCH  13  21
ATOM     21  C   UNL     1       3.998   6.301  19.178  0.00  0.00    +0.000 C 
BRANCH  21  22
ATOM     22  C   UNL     1       2.542   6.669  19.486  0.00  0.00    +0.000 C 
BRANCH  22  23
ATOM     23  O   UNL     1       2.100   5.927  20.639  0.00  0.00    +0.000 OA
ATOM     24  H   UNL     1       2.797   5.294  20.889  0.00  0.00    +0.000 HD
ENDBRANCH  22  23
BRANCH  22  25
ATOM     25  C   UNL     1       2.336   8.160  19.735  0.00  0.00    +0.000 C 
BRANCH  25  26
ATOM     26  O   UNL     1       0.924   8.422  19.643  0.00  0.00    +0.000 OA
BRANCH  26  27
ATOM     27  C   UNL     1       0.413   9.195  20.652  0.00  0.00    +0.000 A 
ATOM     28  C   UNL     1       0.385   8.759  21.979  0.00  0.00    +0.000 A 
ATOM     29  C   UNL     1      -0.138   9.568  22.985  0.00  0.00    +0.000 A 
ATOM     30  C   UNL     1      -0.614  10.837  22.672  0.00  0.00    +0.000 A 
ATOM     31  C   UNL     1      -0.553  11.299  21.357  0.00  0.00    +0.000 A 
ATOM     32  C   UNL     1      -0.041  10.486  20.331  0.00  0.00    +0.000 A 
ATOM     33  C   UNL     1       0.037  11.040  18.933  0.00  0.00    +0.000 C 
ENDBRANCH  26  27
ENDBRANCH  25  26
ENDBRANCH  22  25
ENDBRANCH  21  22
ENDBRANCH  13  21
TORSDOF 10
ENDMDL
MODEL 4
REMARK VINA RESULT:      -6.9      2.290      7.655
REMARK  Name = 
REMARK  13 active torsions:
REMARK  status: ('A' for Active; 'I' for Inactive)
REMARK    1  A    between atoms: C_1  and  O_2
REMARK    2  A    between atoms: O_2  and  C_3
REMARK    3  A    between atoms: C_3  and  C_4
REMARK    4  A    between atoms: C_4  and  C_5
REMARK    5  A    between atoms: C_5  and  N_6
REMARK    6  A    between atoms: N_16  and  C_17
REMARK    7  A    between atoms: N_18  and  C_19
REMARK    8  A    between atoms: C_19  and  C_20
REMARK    9  A    between atoms: C_20  and  O_21
REMARK   10  A    between atoms: C_20  and  C_22
REMARK   11  A    between atoms: C_22  and  O_23
REMARK   12  A    between atoms: O_23  and  C_24
REMARK   13  A    between atoms: C_29  and  C_30
REMARK                            x       y       z     vdW  Elec       q    Type
REMARK                         _______ _______ _______ _____ _____    ______ ____
ROOT
ATOM      1  N   UNL     1       2.837   8.163  17.751  0.00  0.00    +0.000 N 
ATOM      2  C   UNL     1       3.182   6.875  17.967  0.00  0.00    +0.000 A 
ATOM      3  N   UNL     1       2.368   5.841  17.972  0.00  0.00    +0.000 NA
ATOM      4  C   UNL     1       3.143   4.776  18.280  0.00  0.00    +0.000 A 
ATOM      5  C   UNL     1       4.442   5.132  18.474  0.00  0.00    +0.000 A 
ATOM      6  C   UNL     1       5.439   4.196  18.880  0.00  0.00    +0.000 A 
ATOM      7  O   UNL     1       6.583   4.480  19.213  0.00  0.00    +0.000 OA
ATOM      8  N   UNL     1       4.956   2.901  18.896  0.00  0.00    +0.000 N 
ATOM      9  C   UNL     1       3.645   2.492  18.726  0.00  0.00    +0.000 A 
ATOM     10  O   UNL     1       3.373   1.299  18.868  0.00  0.00    +0.000 OA
ATOM     11  N   UNL     1       2.711   3.474  18.418  0.00  0.00    +0.000 N 
ATOM     12  C   UNL     1       1.313   3.144  18.254  0.00  0.00    +0.000 C 
ATOM     13  N   UNL     1       4.494   6.482  18.207  0.00  0.00    +0.000 N 
ATOM     14  H   UNL     1       3.496   8.875  18.080  0.00  0.00    +0.000 HD
ATOM     15  H   UNL     1       5.603   2.181  19.174  0.00  0.00    +0.000 HD
ENDROOT
BRANCH   1  16
ATOM     16  C   UNL     1       1.512   8.609  18.150  0.00  0.00    +0.000 C 
BRANCH  16  17
ATOM     17  C   UNL     1       1.498  10.137  18.179  0.00  0.00    +0.000 C 
BRANCH  17  18
ATOM     18  C   UNL     1       0.551  10.644  19.254  0.00  0.00    +0.000 C 
BRANCH  18  20
ATOM     19  C   UNL     1      -1.543  10.593  18.173  0.00  0.00    +0.000 C 
ATOM     20  O   UNL     1      -0.479  11.411  18.632  0.00  0.00    +0.000 OA
ENDBRANCH  18  20
ENDBRANCH  17  18
ENDBRANCH  16  17
ENDBRANCH   1  16
BRANCH  13  21
ATOM     21  C   UNL     1       5.738   7.248  18.193  0.00  0.00    +0.000 C 
BRANCH  21  22
ATOM     22  C   UNL     1       6.648   7.098  16.969  0.00  0.00    +0.000 C 
BRANCH  22  23
ATOM     23  O   UNL     1       7.919   6.564  17.387  0.00  0.00    +0.000 OA
ATOM     24  H   UNL     1       8.527   7.305  17.564  0.00  0.00    +0.000 HD
ENDBRANCH  22  23
BRANCH  22  25
ATOM     25  C   UNL     1       6.058   6.205  15.882  0.00  0.00    +0.000 C 
BRANCH  25  26
ATOM     26  O   UNL     1       7.155   5.603  15.173  0.00  0.00    +0.000 OA
BRANCH  26  27
ATOM     27  C   UNL     1       6.796   4.845  14.090  0.00  0.00    +0.000 A 
ATOM     28  C   UNL     1       5.664   4.026  14.100  0.00  0.00    +0.000 A 
ATOM     29  C   UNL     1       5.322   3.268  12.983  0.00  0.00    +0.000 A 
ATOM     30  C   UNL     1       6.100   3.346  11.832  0.00  0.00    +0.000 A 
ATOM     31  C   UNL     1       7.209   4.191  11.797  0.00  0.00    +0.000 A 
ATOM     32  C   UNL     1       7.573   4.949  12.924  0.00  0.00    +0.000 A 
ATOM     33  C   UNL     1       8.757   5.874  12.827  0.00  0.00    +0.000 C 
ENDBRANCH  26  27
ENDBRANCH  25  26
ENDBRANCH  22  25
ENDBRANCH  21  22
ENDBRANCH  13  21
TORSDOF 10
ENDMDL
MODEL 5
REMARK VINA RESULT:      -6.9      2.264      7.407
REMARK  Name = 
REMARK  13 active torsions:
REMARK  status: ('A' for Active; 'I' for Inactive)
REMARK    1  A    between atoms: C_1  and  O_2
REMARK    2  A    between atoms: O_2  and  C_3
REMARK    3  A    between atoms: C_3  and  C_4
REMARK    4  A    between atoms: C_4  and  C_5
REMARK    5  A    between atoms: C_5  and  N_6
REMARK    6  A    between atoms: N_16  and  C_17
REMARK    7  A    between atoms: N_18  and  C_19
REMARK    8  A    between atoms: C_19  and  C_20
REMARK    9  A    between atoms: C_20  and  O_21
REMARK   10  A    between atoms: C_20  and  C_22
REMARK   11  A    between atoms: C_22  and  O_23
REMARK   12  A    between atoms: O_23  and  C_24
REMARK   13  A    between atoms: C_29  and  C_30
REMARK                            x       y       z     vdW  Elec       q    Type
REMARK                         _______ _______ _______ _____ _____    ______ ____
ROOT
ATOM      1  N   UNL     1       3.849   3.908  19.828  0.00  0.00    +0.000 N 
ATOM      2  C   UNL     1       3.395   5.159  19.593  0.00  0.00    +0.000 A 
ATOM      3  N   UNL     1       2.619   5.868  20.384  0.00  0.00    +0.000 NA
ATOM      4  C   UNL     1       2.388   7.023  19.719  0.00  0.00    +0.000 A 
ATOM      5  C   UNL     1       3.009   7.046  18.509  0.00  0.00    +0.000 A 
ATOM      6  C   UNL     1       2.856   8.127  17.590  0.00  0.00    +0.000 A 
ATOM      7  O   UNL     1       3.265   8.138  16.436  0.00  0.00    +0.000 OA
ATOM      8  N   UNL     1       2.145   9.176  18.142  0.00  0.00    +0.000 N 
ATOM      9  C   UNL     1       1.479   9.194  19.355  0.00  0.00    +0.000 A 
ATOM     10  O   UNL     1       0.810  10.184  19.650  0.00  0.00    +0.000 OA
ATOM     11  N   UNL     1       1.603   8.068  20.160  0.00  0.00    +0.000 N 
ATOM     12  C   UNL     1       0.918   7.984  21.431  0.00  0.00    +0.000 C 
ATOM     13  N   UNL     1       3.723   5.870  18.443  0.00  0.00    +0.000 N 
ATOM     14  H   UNL     1       4.169   3.377  19.013  0.00  0.00    +0.000 HD
ATOM     15  H   UNL     1       1.994   9.979  17.552  0.00  0.00    +0.000 HD
ENDROOT
BRANCH   1  16
ATOM     16  C   UNL     1       3.027   3.004  20.617  0.00  0.00    +0.000 C 
BRANCH  16  17
ATOM     17  C   UNL     1       1.807   2.604  19.788  0.00  0.00    +0.000 C 
BRANCH  17  18
ATOM     18  C   UNL     1       2.235   1.908  18.507  0.00  0.00    +0.000 C 
BRANCH  18  20
ATOM     19  C   UNL     1       1.077   3.755  17.612  0.00  0.00    +0.000 C 
ATOM     20  O   UNL     1       2.141   2.836  17.427  0.00  0.00    +0.000 OA
ENDBRANCH  18  20
ENDBRANCH  17  18
ENDBRANCH  16  17
ENDBRANCH   1  16
BRANCH  13  21
ATOM     21  C   UNL     1       4.626   5.542  17.342  0.00  0.00    +0.000 C 
BRANCH  21  22
ATOM     22  C   UNL     1       6.117   5.837  17.538  0.00  0.00    +0.000 C 
BRANCH  22  23
ATOM     23  O   UNL     1       6.456   5.659  18.927  0.00  0.00    +0.000 OA
ATOM     24  H   UNL     1       5.746   5.152  19.360  0.00  0.00    +0.000 HD
ENDBRANCH  22  23
BRANCH  22  25
ATOM     25  C   UNL     1       7.024   4.961  16.680  0.00  0.00    +0.000 C 
BRANCH  25  26
ATOM     26  O   UNL     1       7.202   5.627  15.418  0.00  0.00    +0.000 OA
BRANCH  26  27
ATOM     27  C   UNL     1       6.823   4.900  14.321  0.00  0.00    +0.000 A 
ATOM     28  C   UNL     1       5.669   4.112  14.316  0.00  0.00    +0.000 A 
ATOM     29  C   UNL     1       5.306   3.385  13.185  0.00  0.00    +0.000 A 
ATOM     30  C   UNL     1       6.086   3.463  12.036  0.00  0.00    +0.000 A 
ATOM     31  C   UNL     1       7.218   4.278  12.016  0.00  0.00    +0.000 A 
ATOM     32  C   UNL     1       7.602   5.004  13.157  0.00  0.00    +0.000 A 
ATOM     33  C   UNL     1       8.812   5.898  13.077  0.00  0.00    +0.000 C 
ENDBRANCH  26  27
ENDBRANCH  25  26
ENDBRANCH  22  25
ENDBRANCH  21  22
ENDBRANCH  13  21
TORSDOF 10
ENDMDL
MODEL 6
REMARK VINA RESULT:      -6.8      1.226      1.340
REMARK  Name = 
REMARK  13 active torsions:
REMARK  status: ('A' for Active; 'I' for Inactive)
REMARK    1  A    between atoms: C_1  and  O_2
REMARK    2  A    between atoms: O_2  and  C_3
REMARK    3  A    between atoms: C_3  and  C_4
REMARK    4  A    between atoms: C_4  and  C_5
REMARK    5  A    between atoms: C_5  and  N_6
REMARK    6  A    between atoms: N_16  and  C_17
REMARK    7  A    between atoms: N_18  and  C_19
REMARK    8  A    between atoms: C_19  and  C_20
REMARK    9  A    between atoms: C_20  and  O_21
REMARK   10  A    between atoms: C_20  and  C_22
REMARK   11  A    between atoms: C_22  and  O_23
REMARK   12  A    between atoms: O_23  and  C_24
REMARK   13  A    between atoms: C_29  and  C_30
REMARK                            x       y       z     vdW  Elec       q    Type
REMARK                         _______ _______ _______ _____ _____    ______ ____
ROOT
ATOM      1  N   UNL     1       1.575   4.275  18.095  0.00  0.00    +0.000 N 
ATOM      2  C   UNL     1       2.747   4.702  17.575  0.00  0.00    +0.000 A 
ATOM      3  N   UNL     1       3.566   4.001  16.820  0.00  0.00    +0.000 NA
ATOM      4  C   UNL     1       4.620   4.814  16.583  0.00  0.00    +0.000 A 
ATOM      5  C   UNL     1       4.475   6.024  17.190  0.00  0.00    +0.000 A 
ATOM      6  C   UNL     1       5.490   7.026  17.148  0.00  0.00    +0.000 A 
ATOM      7  O   UNL     1       5.481   8.067  17.793  0.00  0.00    +0.000 OA
ATOM      8  N   UNL     1       6.531   6.673  16.311  0.00  0.00    +0.000 N 
ATOM      9  C   UNL     1       6.733   5.452  15.691  0.00  0.00    +0.000 A 
ATOM     10  O   UNL     1       7.771   5.276  15.052  0.00  0.00    +0.000 OA
ATOM     11  N   UNL     1       5.741   4.492  15.848  0.00  0.00    +0.000 N 
ATOM     12  C   UNL     1       5.881   3.178  15.262  0.00  0.00    +0.000 C 
ATOM     13  N   UNL     1       3.232   5.989  17.780  0.00  0.00    +0.000 N 
ATOM     14  H   UNL     1       1.212   4.801  18.896  0.00  0.00    +0.000 HD
ATOM     15  H   UNL     1       7.289   7.332  16.230  0.00  0.00    +0.000 HD
ENDROOT
BRANCH   1  16
ATOM     16  C   UNL     1       1.427   2.866  18.421  0.00  0.00    +0.000 C 
BRANCH  16  17
ATOM     17  C   UNL     1       0.927   2.748  19.861  0.00  0.00    +0.000 C 
BRANCH  17  18
ATOM     18  C   UNL     1       2.084   2.483  20.810  0.00  0.00    +0.000 C 
BRANCH  18  20
ATOM     19  C   UNL     1       4.370   2.241  20.288  0.00  0.00    +0.000 C 
ATOM     20  O   UNL     1       3.254   3.117  20.294  0.00  0.00    +0.000 OA
ENDBRANCH  18  20
ENDBRANCH  17  18
ENDBRANCH  16  17
ENDBRANCH   1  16
BRANCH  13  21
ATOM     21  C   UNL     1       2.633   7.139  18.453  0.00  0.00    +0.000 C 
BRANCH  21  22
ATOM     22  C   UNL     1       2.022   6.910  19.840  0.00  0.00    +0.000 C 
BRANCH  22  23
ATOM     23  O   UNL     1       2.838   5.971  20.567  0.00  0.00    +0.000 OA
ATOM     24  H   UNL     1       3.254   5.361  19.931  0.00  0.00    +0.000 HD
ENDBRANCH  22  23
BRANCH  22  25
ATOM     25  C   UNL     1       1.876   8.190  20.655  0.00  0.00    +0.000 C 
BRANCH  25  26
ATOM     26  O   UNL     1       0.495   8.299  21.045  0.00  0.00    +0.000 OA
BRANCH  26  27
ATOM     27  C   UNL     1      -0.064   9.535  20.854  0.00  0.00    +0.000 A 
ATOM     28  C   UNL     1      -0.303  10.052  19.578  0.00  0.00    +0.000 A 
ATOM     29  C   UNL     1      -0.875  11.310  19.413  0.00  0.00    +0.000 A 
ATOM     30  C   UNL     1      -1.241  12.053  20.531  0.00  0.00    +0.000 A 
ATOM     31  C   UNL     1      -1.045  11.530  21.810  0.00  0.00    +0.000 A 
ATOM     32  C   UNL     1      -0.453  10.268  21.988  0.00  0.00    +0.000 A 
ATOM     33  C   UNL     1      -0.294   9.729  23.385  0.00  0.00    +0.000 C 
ENDBRANCH  26  27
ENDBRANCH  25  26
ENDBRANCH  22  25
ENDBRANCH  21  22
ENDBRANCH  13  21
TORSDOF 10
ENDMDL
MODEL 7
REMARK VINA RESULT:      -6.8      2.782      5.766
REMARK  Name = 
REMARK  13 active torsions:
REMARK  status: ('A' for Active; 'I' for Inactive)
REMARK    1  A    between atoms: C_1  and  O_2
REMARK    2  A    between atoms: O_2  and  C_3
REMARK    3  A    between atoms: C_3  and  C_4
REMARK    4  A    between atoms: C_4  and  C_5
REMARK    5  A    between atoms: C_5  and  N_6
REMARK    6  A    between atoms: N_16  and  C_17
REMARK    7  A    between atoms: N_18  and  C_19
REMARK    8  A    between atoms: C_19  and  C_20
REMARK    9  A    between atoms: C_20  and  O_21
REMARK   10  A    between atoms: C_20  and  C_22
REMARK   11  A    between atoms: C_22  and  O_23
REMARK   12  A    between atoms: O_23  and  C_24
REMARK   13  A    between atoms: C_29  and  C_30
REMARK                            x       y       z     vdW  Elec       q    Type
REMARK                         _______ _______ _______ _____ _____    ______ ____
ROOT
ATOM      1  N   UNL     1       0.917   8.588  20.580  0.00  0.00    +0.000 N 
ATOM      2  C   UNL     1       1.593   7.482  20.201  0.00  0.00    +0.000 A 
ATOM      3  N   UNL     1       1.607   6.324  20.827  0.00  0.00    +0.000 NA
ATOM      4  C   UNL     1       2.451   5.542  20.116  0.00  0.00    +0.000 A 
ATOM      5  C   UNL     1       2.976   6.202  19.046  0.00  0.00    +0.000 A 
ATOM      6  C   UNL     1       3.949   5.611  18.186  0.00  0.00    +0.000 A 
ATOM      7  O   UNL     1       4.563   6.199  17.305  0.00  0.00    +0.000 OA
ATOM      8  N   UNL     1       4.161   4.279  18.484  0.00  0.00    +0.000 N 
ATOM      9  C   UNL     1       3.669   3.571  19.568  0.00  0.00    +0.000 A 
ATOM     10  O   UNL     1       4.038   2.408  19.733  0.00  0.00    +0.000 OA
ATOM     11  N   UNL     1       2.792   4.240  20.413  0.00  0.00    +0.000 N 
ATOM     12  C   UNL     1       2.253   3.592  21.587  0.00  0.00    +0.000 C 
ATOM     13  N   UNL     1       2.374   7.440  19.051  0.00  0.00    +0.000 N 
ATOM     14  H   UNL     1       1.240   9.478  20.189  0.00  0.00    +0.000 HD
ATOM     15  H   UNL     1       4.837   3.791  17.918  0.00  0.00    +0.000 HD
ENDROOT
BRANCH   1  16
ATOM     16  C   UNL     1       0.689   8.816  21.998  0.00  0.00    +0.000 C 
BRANCH  16  17
ATOM     17  C   UNL     1       0.241  10.264  22.194  0.00  0.00    +0.000 C 
BRANCH  17  18
ATOM     18  C   UNL     1      -0.937  10.335  23.151  0.00  0.00    +0.000 C 
BRANCH  18  20
ATOM     19  C   UNL     1      -2.574  12.025  23.296  0.00  0.00    +0.000 C 
ATOM     20  O   UNL     1      -1.201  11.705  23.452  0.00  0.00    +0.000 OA
ENDBRANCH  18  20
ENDBRANCH  17  18
ENDBRANCH  16  17
ENDBRANCH   1  16
BRANCH  13  21
ATOM     21  C   UNL     1       2.578   8.432  17.998  0.00  0.00    +0.000 C 
BRANCH  21  22
ATOM     22  C   UNL     1       1.717   9.700  18.044  0.00  0.00    +0.000 C 
BRANCH  22  23
ATOM     23  O   UNL     1       2.355  10.733  17.269  0.00  0.00    +0.000 OA
ATOM     24  H   UNL     1       3.250  10.435  17.026  0.00  0.00    +0.000 HD
ENDBRANCH  22  23
BRANCH  22  25
ATOM     25  C   UNL     1       0.297   9.486  17.531  0.00  0.00    +0.000 C 
BRANCH  25  26
ATOM     26  O   UNL     1      -0.578  10.309  18.322  0.00  0.00    +0.000 OA
BRANCH  26  27
ATOM     27  C   UNL     1      -1.795  10.574  17.752  0.00  0.00    +0.000 A 
ATOM     28  C   UNL     1      -2.213   9.952  16.573  0.00  0.00    +0.000 A 
ATOM     29  C   UNL     1      -3.457  10.238  16.018  0.00  0.00    +0.000 A 
ATOM     30  C   UNL     1      -4.309  11.133  16.658  0.00  0.00    +0.000 A 
ATOM     31  C   UNL     1      -3.920  11.728  17.857  0.00  0.00    +0.000 A 
ATOM     32  C   UNL     1      -2.659  11.459  18.419  0.00  0.00    +0.000 A 
ATOM     33  C   UNL     1      -2.296  12.098  19.733  0.00  0.00    +0.000 C 
ENDBRANCH  26  27
ENDBRANCH  25  26
ENDBRANCH  22  25
ENDBRANCH  21  22
ENDBRANCH  13  21
TORSDOF 10
ENDMDL
MODEL 8
REMARK VINA RESULT:      -6.7      3.058      6.201
REMARK  Name = 
REMARK  13 active torsions:
REMARK  status: ('A' for Active; 'I' for Inactive)
REMARK    1  A    between atoms: C_1  and  O_2
REMARK    2  A    between atoms: O_2  and  C_3
REMARK    3  A    between atoms: C_3  and  C_4
REMARK    4  A    between atoms: C_4  and  C_5
REMARK    5  A    between atoms: C_5  and  N_6
REMARK    6  A    between atoms: N_16  and  C_17
REMARK    7  A    between atoms: N_18  and  C_19
REMARK    8  A    between atoms: C_19  and  C_20
REMARK    9  A    between atoms: C_20  and  O_21
REMARK   10  A    between atoms: C_20  and  C_22
REMARK   11  A    between atoms: C_22  and  O_23
REMARK   12  A    between atoms: O_23  and  C_24
REMARK   13  A    between atoms: C_29  and  C_30
REMARK                            x       y       z     vdW  Elec       q    Type
REMARK                         _______ _______ _______ _____ _____    ______ ____
ROOT
ATOM      1  N   UNL     1       0.421   9.417  21.212  0.00  0.00    +0.000 N 
ATOM      2  C   UNL     1       1.101   8.470  20.531  0.00  0.00    +0.000 A 
ATOM      3  N   UNL     1       1.367   7.250  20.948  0.00  0.00    +0.000 NA
ATOM      4  C   UNL     1       2.105   6.687  19.964  0.00  0.00    +0.000 A 
ATOM      5  C   UNL     1       2.312   7.547  18.929  0.00  0.00    +0.000 A 
ATOM      6  C   UNL     1       3.123   7.209  17.804  0.00  0.00    +0.000 A 
ATOM      7  O   UNL     1       3.466   7.985  16.922  0.00  0.00    +0.000 OA
ATOM      8  N   UNL     1       3.525   5.888  17.836  0.00  0.00    +0.000 N 
ATOM      9  C   UNL     1       3.358   4.983  18.871  0.00  0.00    +0.000 A 
ATOM     10  O   UNL     1       3.866   3.866  18.770  0.00  0.00    +0.000 OA
ATOM     11  N   UNL     1       2.629   5.412  19.974  0.00  0.00    +0.000 N 
ATOM     12  C   UNL     1       2.430   4.547  21.115  0.00  0.00    +0.000 C 
ATOM     13  N   UNL     1       1.608   8.685  19.253  0.00  0.00    +0.000 N 
ATOM     14  H   UNL     1       0.560  10.386  20.910  0.00  0.00    +0.000 HD
ATOM     15  H   UNL     1       4.103   5.572  17.074  0.00  0.00    +0.000 HD
ENDROOT
BRANCH   1  16
ATOM     16  C   UNL     1       0.492   9.421  22.664  0.00  0.00    +0.000 C 
BRANCH  16  17
ATOM     17  C   UNL     1      -0.674  10.246  23.208  0.00  0.00    +0.000 C 
BRANCH  17  18
ATOM     18  C   UNL     1      -1.084  11.316  22.211  0.00  0.00    +0.000 C 
BRANCH  18  20
ATOM     19  C   UNL     1      -0.664  13.591  22.662  0.00  0.00    +0.000 C 
ATOM     20  O   UNL     1      -0.110  12.358  22.230  0.00  0.00    +0.000 OA
ENDBRANCH  18  20
ENDBRANCH  17  18
ENDBRANCH  16  17
ENDBRANCH   1  16
BRANCH  13  21
ATOM     21  C   UNL     1       1.474   9.828  18.353  0.00  0.00    +0.000 C 
BRANCH  21  22
ATOM     22  C   UNL     1       1.323  11.215  18.988  0.00  0.00    +0.000 C 
BRANCH  22  23
ATOM     23  O   UNL     1       2.364  12.078  18.492  0.00  0.00    +0.000 OA
ATOM     24  H   UNL     1       2.456  11.938  17.532  0.00  0.00    +0.000 HD
ENDBRANCH  22  23
BRANCH  22  25
ATOM     25  C   UNL     1      -0.035  11.857  18.723  0.00  0.00    +0.000 C 
BRANCH  25  26
ATOM     26  O   UNL     1      -1.037  10.842  18.912  0.00  0.00    +0.000 OA
BRANCH  26  27
ATOM     27  C   UNL     1      -2.013  10.808  17.952  0.00  0.00    +0.000 A 
ATOM     28  C   UNL     1      -1.874  10.062  16.778  0.00  0.00    +0.000 A 
ATOM     29  C   UNL     1      -2.884  10.043  15.820  0.00  0.00    +0.000 A 
ATOM     30  C   UNL     1      -4.060  10.752  16.044  0.00  0.00    +0.000 A 
ATOM     31  C   UNL     1      -4.228  11.466  17.230  0.00  0.00    +0.000 A 
ATOM     32  C   UNL     1      -3.208  11.505  18.198  0.00  0.00    +0.000 A 
ATOM     33  C   UNL     1      -3.448  12.260  19.478  0.00  0.00    +0.000 C 
ENDBRANCH  26  27
ENDBRANCH  25  26
ENDBRANCH  22  25
ENDBRANCH  21  22
ENDBRANCH  13  21
TORSDOF 10
ENDMDL
MODEL 9
REMARK VINA RESULT:      -6.7      2.446      7.389
REMARK  Name = 
REMARK  13 active torsions:
REMARK  status: ('A' for Active; 'I' for Inactive)
REMARK    1  A    between atoms: C_1  and  O_2
REMARK    2  A    between atoms: O_2  and  C_3
REMARK    3  A    between atoms: C_3  and  C_4
REMARK    4  A    between atoms: C_4  and  C_5
REMARK    5  A    between atoms: C_5  and  N_6
REMARK    6  A    between atoms: N_16  and  C_17
REMARK    7  A    between atoms: N_18  and  C_19
REMARK    8  A    between atoms: C_19  and  C_20
REMARK    9  A    between atoms: C_20  and  O_21
REMARK   10  A    between atoms: C_20  and  C_22
REMARK   11  A    between atoms: C_22  and  O_23
REMARK   12  A    between atoms: O_23  and  C_24
REMARK   13  A    between atoms: C_29  and  C_30
REMARK                            x       y       z     vdW  Elec       q    Type
REMARK                         _______ _______ _______ _____ _____    ______ ____
ROOT
ATOM      1  N   UNL     1       2.852   4.932  20.518  0.00  0.00    +0.000 N 
ATOM      2  C   UNL     1       2.409   6.183  20.265  0.00  0.00    +0.000 A 
ATOM      3  N   UNL     1       1.653   6.916  21.055  0.00  0.00    +0.000 NA
ATOM      4  C   UNL     1       1.423   8.060  20.371  0.00  0.00    +0.000 A 
ATOM      5  C   UNL     1       2.026   8.052  19.150  0.00  0.00    +0.000 A 
ATOM      6  C   UNL     1       1.871   9.117  18.214  0.00  0.00    +0.000 A 
ATOM      7  O   UNL     1       2.262   9.101  17.053  0.00  0.00    +0.000 OA
ATOM      8  N   UNL     1       1.179  10.184  18.755  0.00  0.00    +0.000 N 
ATOM      9  C   UNL     1       0.532  10.233  19.978  0.00  0.00    +0.000 A 
ATOM     10  O   UNL     1      -0.122  11.236  20.263  0.00  0.00    +0.000 OA
ATOM     11  N   UNL     1       0.656   9.121  20.803  0.00  0.00    +0.000 N 
ATOM     12  C   UNL     1      -0.010   9.070  22.085  0.00  0.00    +0.000 C 
ATOM     13  N   UNL     1       2.726   6.868  19.097  0.00  0.00    +0.000 N 
ATOM     14  H   UNL     1       3.154   4.382  19.709  0.00  0.00    +0.000 HD
ATOM     15  H   UNL     1       1.028  10.977  18.152  0.00  0.00    +0.000 HD
ENDROOT
BRANCH   1  16
ATOM     16  C   UNL     1       2.034   4.052  21.337  0.00  0.00    +0.000 C 
BRANCH  16  17
ATOM     17  C   UNL     1       1.691   2.806  20.522  0.00  0.00    +0.000 C 
BRANCH  17  18
ATOM     18  C   UNL     1       2.747   2.554  19.459  0.00  0.00    +0.000 C 
BRANCH  18  20
ATOM     19  C   UNL     1       1.317   3.511  17.849  0.00  0.00    +0.000 C 
ATOM     20  O   UNL     1       2.099   2.381  18.200  0.00  0.00    +0.000 OA
ENDBRANCH  18  20
ENDBRANCH  17  18
ENDBRANCH  16  17
ENDBRANCH   1  16
BRANCH  13  21
ATOM     21  C   UNL     1       3.609   6.508  17.990  0.00  0.00    +0.000 C 
BRANCH  21  22
ATOM     22  C   UNL     1       5.120   6.587  18.235  0.00  0.00    +0.000 C 
BRANCH  22  23
ATOM     23  O   UNL     1       5.549   5.400  18.929  0.00  0.00    +0.000 OA
ATOM     24  H   UNL     1       4.983   5.273  19.711  0.00  0.00    +0.000 HD
ENDBRANCH  22  23
BRANCH  22  25
ATOM     25  C   UNL     1       5.932   6.744  16.953  0.00  0.00    +0.000 C 
BRANCH  25  26
ATOM     26  O   UNL     1       6.648   5.515  16.740  0.00  0.00    +0.000 OA
BRANCH  26  27
ATOM     27  C   UNL     1       6.605   5.036  15.457  0.00  0.00    +0.000 A 
ATOM     28  C   UNL     1       7.535   5.427  14.489  0.00  0.00    +0.000 A 
ATOM     29  C   UNL     1       7.469   4.921  13.193  0.00  0.00    +0.000 A 
ATOM     30  C   UNL     1       6.485   3.995  12.863  0.00  0.00    +0.000 A 
ATOM     31  C   UNL     1       5.578   3.566  13.832  0.00  0.00    +0.000 A 
ATOM     32  C   UNL     1       5.625   4.082  15.139  0.00  0.00    +0.000 A 
ATOM     33  C   UNL     1       4.648   3.563  16.161  0.00  0.00    +0.000 C 
ENDBRANCH  26  27
ENDBRANCH  25  26
ENDBRANCH  22  25
ENDBRANCH  21  22
ENDBRANCH  13  21
TORSDOF 10
ENDMDL
