MODEL 1
REMARK VINA RESULT:      -6.9      0.000      0.000
REMARK  Name = 
REMARK  10 active torsions:
REMARK  status: ('A' for Active; 'I' for Inactive)
REMARK    1  A    between atoms: S_2  and  C_4
REMARK    2  A    between atoms: S_2  and  C_10
REMARK    3  A    between atoms: C_11  and  O_12
REMARK    4  A    between atoms: O_12  and  C_13
REMARK    5  A    between atoms: C_13  and  C_14
REMARK    6  A    between atoms: C_14  and  C_15
REMARK    7  A    between atoms: C_15  and  C_16
REMARK    8  A    between atoms: C_16  and  C_17
REMARK    9  A    between atoms: C_17  and  C_18
REMARK   10  A    between atoms: C_18  and  O_19
REMARK                            x       y       z     vdW  Elec       q    Type
REMARK                         _______ _______ _______ _____ _____    ______ ____
ROOT
ATOM      1  C   UNL     1       5.665   5.604  17.096  0.00  0.00    +0.000 A 
ATOM      2  C   UNL     1       5.001   4.950  18.132  0.00  0.00    +0.000 A 
ATOM      3  N   UNL     1       3.783   5.473  18.322  0.00  0.00    +0.000 NA
ATOM      4  O   UNL     1       3.607   6.426  17.339  0.00  0.00    +0.000 OA
ATOM      5  N   UNL     1       4.803   6.448  16.557  0.00  0.00    +0.000 N 
ATOM      6  O   UNL     1       4.796   7.251  15.597  0.00  0.00    +0.000 OA
ENDROOT
BRANCH   1   8
ATOM      7  O   UNL     1       7.773   4.317  17.185  0.00  0.00    +0.000 OA
ATOM      8  S   UNL     1       7.183   5.395  16.419  0.00  0.00    +0.000 S 
ATOM      9  O   UNL     1       7.772   6.716  16.395  0.00  0.00    +0.000 OA
BRANCH   8  10
ATOM     10  C   UNL     1       6.965   4.857  14.735  0.00  0.00    +0.000 A 
ATOM     11  C   UNL     1       6.032   3.863  14.416  0.00  0.00    +0.000 A 
ATOM     12  C   UNL     1       5.900   3.428  13.093  0.00  0.00    +0.000 A 
ATOM     13  C   UNL     1       6.723   3.956  12.099  0.00  0.00    +0.000 A 
ATOM     14  C   UNL     1       7.676   4.921  12.422  0.00  0.00    +0.000 A 
ATOM     15  C   UNL     1       7.800   5.375  13.739  0.00  0.00    +0.000 A 
ENDBRANCH   8  10
ENDBRANCH   1   8
BRANCH   2  16
ATOM     16  O   UNL     1       5.399   3.930  18.945  0.00  0.00    +0.000 OA
BRANCH  16  17
ATOM     17  C   UNL     1       4.350   2.961  19.138  0.00  0.00    +0.000 C 
BRANCH  17  18
ATOM     18  C   UNL     1       4.380   2.253  20.496  0.00  0.00    +0.000 C 
BRANCH  18  19
ATOM     19  C   UNL     1       3.071   2.580  21.237  0.00  0.00    +0.000 C 
BRANCH  19  20
ATOM     20  C   UNL     1       2.210   3.629  20.536  0.00  0.00    +0.000 C 
BRANCH  20  21
ATOM     21  C   UNL     1       0.845   3.052  20.144  0.00  0.00    +0.000 C 
BRANCH  21  22
ATOM     22  C   UNL     1       0.849   2.536  18.710  0.00  0.00    +0.000 C 
BRANCH  22  23
ATOM     23  O   UNL     1       1.207   3.581  17.817  0.00  0.00    +0.000 OA
ATOM     24  H   UNL     1       0.532   4.277  17.891  0.00  0.00    +0.000 HD
ENDBRANCH  22  23
ENDBRANCH  21  22
ENDBRANCH  20  21
ENDBRANCH  19  20
ENDBRANCH  18  19
ENDBRANCH  17  18
ENDBRANCH  16  17
ENDBRANCH   2  16
TORSDOF 10
ENDMDL
MODEL 2
REMARK VINA RESULT:      -6.8      3.184      6.503
REMARK  Name = 
REMARK  10 active torsions:
REMARK  status: ('A' for Active; 'I' for Inactive)
REMARK    1  A    between atoms: S_2  and  C_4
REMARK    2  A    between atoms: S_2  and  C_10
REMARK    3  A    between atoms: C_11  and  O_12
REMARK    4  A    between atoms: O_12  and  C_13
REMARK    5  A    between atoms: C_13  and  C_14
REMARK    6  A    between atoms: C_14  and  C_15
REMARK    7  A    between atoms: C_15  and  C_16
REMARK    8  A    between atoms: C_16  and  C_17
REMARK    9  A    between atoms: C_17  and  C_18
REMARK   10  A    between atoms: C_18  and  O_19
REMARK                            x       y       z     vdW  Elec       q    Type
REMARK                         _______ _______ _______ _____ _____    ______ ____
ROOT
ATOM      1  C   UNL     1       3.027   4.202  18.710  0.00  0.00    +0.000 A 
ATOM      2  C   UNL     1       3.830   3.732  17.672  0.00  0.00    +0.000 A 
ATOM      3  N   UNL     1       3.182   2.813  16.947  0.00  0.00    +0.000 NA
ATOM      4  O   UNL     1       1.902   2.738  17.459  0.00  0.00    +0.000 OA
ATOM      5  N   UNL     1       1.831   3.663  18.546  0.00  0.00    +0.000 N 
ATOM      6  O   UNL     1       0.716   3.737  19.109  0.00  0.00    +0.000 OA
ENDROOT
BRANCH   1   8
ATOM      7  O   UNL     1       4.723   5.537  19.913  0.00  0.00    +0.000 OA
ATOM      8  S   UNL     1       3.289   5.332  19.917  0.00  0.00    +0.000 S 
ATOM      9  O   UNL     1       2.604   4.811  21.080  0.00  0.00    +0.000 OA
BRANCH   8  10
ATOM     10  C   UNL     1       2.487   6.848  19.436  0.00  0.00    +0.000 A 
ATOM     11  C   UNL     1       2.589   7.326  18.123  0.00  0.00    +0.000 A 
ATOM     12  C   UNL     1       1.981   8.536  17.772  0.00  0.00    +0.000 A 
ATOM     13  C   UNL     1       1.307   9.285  18.736  0.00  0.00    +0.000 A 
ATOM     14  C   UNL     1       1.235   8.826  20.051  0.00  0.00    +0.000 A 
ATOM     15  C   UNL     1       1.823   7.608  20.405  0.00  0.00    +0.000 A 
ENDBRANCH   8  10
ENDBRANCH   1   8
BRANCH   2  16
ATOM     16  O   UNL     1       5.111   4.043  17.324  0.00  0.00    +0.000 OA
BRANCH  16  17
ATOM     17  C   UNL     1       5.239   4.277  15.908  0.00  0.00    +0.000 C 
BRANCH  17  18
ATOM     18  C   UNL     1       5.341   5.753  15.513  0.00  0.00    +0.000 C 
BRANCH  18  19
ATOM     19  C   UNL     1       5.811   6.548  16.745  0.00  0.00    +0.000 C 
BRANCH  19  20
ATOM     20  C   UNL     1       7.329   6.617  16.894  0.00  0.00    +0.000 C 
BRANCH  20  21
ATOM     21  C   UNL     1       7.735   6.756  18.365  0.00  0.00    +0.000 C 
BRANCH  21  22
ATOM     22  C   UNL     1       7.956   5.396  19.015  0.00  0.00    +0.000 C 
BRANCH  22  23
ATOM     23  O   UNL     1       7.872   5.512  20.428  0.00  0.00    +0.000 OA
ATOM     24  H   UNL     1       6.996   5.188  20.700  0.00  0.00    +0.000 HD
ENDBRANCH  22  23
ENDBRANCH  21  22
ENDBRANCH  20  21
ENDBRANCH  19  20
ENDBRANCH  18  19
ENDBRANCH  17  18
ENDBRANCH  16  17
ENDBRANCH   2  16
TORSDOF 10
ENDMDL
MODEL 3
REMARK VINA RESULT:      -6.8      4.313      8.000
REMARK  Name = 
REMARK  10 active torsions:
REMARK  status: ('A' for Active; 'I' for Inactive)
REMARK    1  A    between atoms: S_2  and  C_4
REMARK    2  A    between atoms: S_2  and  C_10
REMARK    3  A    between atoms: C_11  and  O_12
REMARK    4  A    between atoms: O_12  and  C_13
REMARK    5  A    between atoms: C_13  and  C_14
REMARK    6  A    between atoms: C_14  and  C_15
REMARK    7  A    between atoms: C_15  and  C_16
REMARK    8  A    between atoms: C_16  and  C_17
REMARK    9  A    between atoms: C_17  and  C_18
REMARK   10  A    between atoms: C_18  and  O_19
REMARK                            x       y       z     vdW  Elec       q    Type
REMARK                         _______ _______ _______ _____ _____    ______ ____
ROOT
ATOM      1  C   UNL     1       5.883   5.869  18.149  0.00  0.00    +0.000 A 
ATOM      2  C   UNL     1       7.001   6.700  18.187  0.00  0.00    +0.000 A 
ATOM      3  N   UNL     1       7.949   6.188  18.981  0.00  0.00    +0.000 NA
ATOM      4  O   UNL     1       7.486   4.958  19.403  0.00  0.00    +0.000 OA
ATOM      5  N   UNL     1       6.194   4.773  18.820  0.00  0.00    +0.000 N 
ATOM      6  O   UNL     1       5.642   3.683  19.087  0.00  0.00    +0.000 OA
ENDROOT
BRANCH   1   8
ATOM      7  O   UNL     1       4.588   5.157  16.169  0.00  0.00    +0.000 OA
ATOM      8  S   UNL     1       4.418   5.983  17.346  0.00  0.00    +0.000 S 
ATOM      9  O   UNL     1       4.151   7.401  17.243  0.00  0.00    +0.000 OA
BRANCH   8  10
ATOM     10  C   UNL     1       3.163   5.259  18.384  0.00  0.00    +0.000 A 
ATOM     11  C   UNL     1       2.374   4.199  17.919  0.00  0.00    +0.000 A 
ATOM     12  C   UNL     1       1.370   3.667  18.734  0.00  0.00    +0.000 A 
ATOM     13  C   UNL     1       1.130   4.215  19.994  0.00  0.00    +0.000 A 
ATOM     14  C   UNL     1       1.893   5.292  20.443  0.00  0.00    +0.000 A 
ATOM     15  C   UNL     1       2.911   5.816  19.642  0.00  0.00    +0.000 A 
ENDBRANCH   8  10
ENDBRANCH   1   8
BRANCH   2  16
ATOM     16  O   UNL     1       7.243   7.899  17.583  0.00  0.00    +0.000 OA
BRANCH  16  17
ATOM     17  C   UNL     1       8.474   8.490  18.043  0.00  0.00    +0.000 C 
BRANCH  17  18
ATOM     18  C   UNL     1       8.483  10.021  18.046  0.00  0.00    +0.000 C 
BRANCH  18  19
ATOM     19  C   UNL     1       9.347  10.494  19.230  0.00  0.00    +0.000 C 
BRANCH  19  20
ATOM     20  C   UNL     1      10.462  11.459  18.833  0.00  0.00    +0.000 C 
BRANCH  20  21
ATOM     21  C   UNL     1      10.052  12.315  17.630  0.00  0.00    +0.000 C 
BRANCH  21  22
ATOM     22  C   UNL     1      11.102  13.371  17.312  0.00  0.00    +0.000 C 
BRANCH  22  23
ATOM     23  O   UNL     1      11.751  13.060  16.087  0.00  0.00    +0.000 OA
ATOM     24  H   UNL     1      11.069  13.014  15.395  0.00  0.00    +0.000 HD
ENDBRANCH  22  23
ENDBRANCH  21  22
ENDBRANCH  20  21
ENDBRANCH  19  20
ENDBRANCH  18  19
ENDBRANCH  17  18
ENDBRANCH  16  17
ENDBRANCH   2  16
TORSDOF 10
ENDMDL
MODEL 4
REMARK VINA RESULT:      -6.8      2.450      6.633
REMARK  Name = 
REMARK  10 active torsions:
REMARK  status: ('A' for Active; 'I' for Inactive)
REMARK    1  A    between atoms: S_2  and  C_4
REMARK    2  A    between atoms: S_2  and  C_10
REMARK    3  A    between atoms: C_11  and  O_12
REMARK    4  A    between atoms: O_12  and  C_13
REMARK    5  A    between atoms: C_13  and  C_14
REMARK    6  A    between atoms: C_14  and  C_15
REMARK    7  A    between atoms: C_15  and  C_16
REMARK    8  A    between atoms: C_16  and  C_17
REMARK    9  A    between atoms: C_17  and  C_18
REMARK   10  A    between atoms: C_18  and  O_19
REMARK                            x       y       z     vdW  Elec       q    Type
REMARK                         _______ _______ _______ _____ _____    ______ ____
ROOT
ATOM      1  C   UNL     1       5.702   5.257  17.827  0.00  0.00    +0.000 A 
ATOM      2  C   UNL     1       6.260   4.899  16.601  0.00  0.00    +0.000 A 
ATOM      3  N   UNL     1       7.532   4.510  16.751  0.00  0.00    +0.000 NA
ATOM      4  O   UNL     1       7.790   4.528  18.108  0.00  0.00    +0.000 OA
ATOM      5  N   UNL     1       6.594   4.964  18.757  0.00  0.00    +0.000 N 
ATOM      6  O   UNL     1       6.655   5.010  20.006  0.00  0.00    +0.000 OA
ENDROOT
BRANCH   1   8
ATOM      7  O   UNL     1       3.752   6.600  17.122  0.00  0.00    +0.000 OA
ATOM      8  S   UNL     1       4.181   5.810  18.257  0.00  0.00    +0.000 S 
ATOM      9  O   UNL     1       4.348   6.398  19.567  0.00  0.00    +0.000 OA
BRANCH   8  10
ATOM     10  C   UNL     1       3.107   4.398  18.417  0.00  0.00    +0.000 A 
ATOM     11  C   UNL     1       3.287   3.266  17.611  0.00  0.00    +0.000 A 
ATOM     12  C   UNL     1       2.412   2.181  17.726  0.00  0.00    +0.000 A 
ATOM     13  C   UNL     1       1.339   2.240  18.616  0.00  0.00    +0.000 A 
ATOM     14  C   UNL     1       1.140   3.380  19.393  0.00  0.00    +0.000 A 
ATOM     15  C   UNL     1       2.022   4.461  19.298  0.00  0.00    +0.000 A 
ENDBRANCH   8  10
ENDBRANCH   1   8
BRANCH   2  16
ATOM     16  O   UNL     1       5.733   4.907  15.344  0.00  0.00    +0.000 OA
BRANCH  16  17
ATOM     17  C   UNL     1       6.380   3.946  14.486  0.00  0.00    +0.000 C 
BRANCH  17  18
ATOM     18  C   UNL     1       7.155   4.558  13.316  0.00  0.00    +0.000 C 
BRANCH  18  19
ATOM     19  C   UNL     1       6.760   3.804  12.032  0.00  0.00    +0.000 C 
BRANCH  19  20
ATOM     20  C   UNL     1       5.335   3.257  12.052  0.00  0.00    +0.000 C 
BRANCH  20  21
ATOM     21  C   UNL     1       5.222   1.975  11.219  0.00  0.00    +0.000 C 
BRANCH  21  22
ATOM     22  C   UNL     1       6.542   1.215  11.184  0.00  0.00    +0.000 C 
BRANCH  22  23
ATOM     23  O   UNL     1       6.311  -0.170  11.402  0.00  0.00    +0.000 OA
ATOM     24  H   UNL     1       5.349  -0.314  11.394  0.00  0.00    +0.000 HD
ENDBRANCH  22  23
ENDBRANCH  21  22
ENDBRANCH  20  21
ENDBRANCH  19  20
ENDBRANCH  18  19
ENDBRANCH  17  18
ENDBRANCH  16  17
ENDBRANCH   2  16
TORSDOF 10
ENDMDL
MODEL 5
REMARK VINA RESULT:      -6.8      1.524      2.724
REMARK  Name = 
REMARK  10 active torsions:
REMARK  status: ('A' for Active; 'I' for Inactive)
REMARK    1  A    between atoms: S_2  and  C_4
REMARK    2  A    between atoms: S_2  and  C_10
REMARK    3  A    between atoms: C_11  and  O_12
REMARK    4  A    between atoms: O_12  and  C_13
REMARK    5  A    between atoms: C_13  and  C_14
REMARK    6  A    between atoms: C_14  and  C_15
REMARK    7  A    between atoms: C_15  and  C_16
REMARK    8  A    between atoms: C_16  and  C_17
REMARK    9  A    between atoms: C_17  and  C_18
REMARK   10  A    between atoms: C_18  and  O_19
REMARK                            x       y       z     vdW  Elec       q    Type
REMARK                         _______ _______ _______ _____ _____    ______ ____
ROOT
ATOM      1  C   UNL     1       5.803   5.021  17.318  0.00  0.00    +0.000 A 
ATOM      2  C   UNL     1       4.576   4.481  17.699  0.00  0.00    +0.000 A 
ATOM      3  N   UNL     1       4.711   3.715  18.789  0.00  0.00    +0.000 NA
ATOM      4  O   UNL     1       6.030   3.823  19.184  0.00  0.00    +0.000 OA
ATOM      5  N   UNL     1       6.677   4.692  18.253  0.00  0.00    +0.000 N 
ATOM      6  O   UNL     1       7.885   4.917  18.487  0.00  0.00    +0.000 OA
ENDROOT
BRANCH   1   8
ATOM      7  O   UNL     1       7.565   6.510  16.431  0.00  0.00    +0.000 OA
ATOM      8  S   UNL     1       6.248   6.034  16.060  0.00  0.00    +0.000 S 
ATOM      9  O   UNL     1       5.135   6.943  15.894  0.00  0.00    +0.000 OA
BRANCH   8  10
ATOM     10  C   UNL     1       6.384   5.049  14.582  0.00  0.00    +0.000 A 
ATOM     11  C   UNL     1       7.475   5.204  13.717  0.00  0.00    +0.000 A 
ATOM     12  C   UNL     1       7.547   4.448  12.543  0.00  0.00    +0.000 A 
ATOM     13  C   UNL     1       6.515   3.568  12.214  0.00  0.00    +0.000 A 
ATOM     14  C   UNL     1       5.413   3.439  13.058  0.00  0.00    +0.000 A 
ATOM     15  C   UNL     1       5.344   4.177  14.244  0.00  0.00    +0.000 A 
ENDBRANCH   8  10
ENDBRANCH   1   8
BRANCH   2  16
ATOM     16  O   UNL     1       3.337   4.597  17.142  0.00  0.00    +0.000 OA
BRANCH  16  17
ATOM     17  C   UNL     1       2.602   3.359  17.209  0.00  0.00    +0.000 C 
BRANCH  17  18
ATOM     18  C   UNL     1       1.274   3.447  17.967  0.00  0.00    +0.000 C 
BRANCH  18  19
ATOM     19  C   UNL     1       1.292   2.394  19.091  0.00  0.00    +0.000 C 
BRANCH  19  20
ATOM     20  C   UNL     1       1.168   2.987  20.492  0.00  0.00    +0.000 C 
BRANCH  20  21
ATOM     21  C   UNL     1       0.993   4.508  20.437  0.00  0.00    +0.000 C 
BRANCH  21  22
ATOM     22  C   UNL     1       2.275   5.232  20.826  0.00  0.00    +0.000 C 
BRANCH  22  23
ATOM     23  O   UNL     1       2.003   6.604  21.077  0.00  0.00    +0.000 OA
ATOM     24  H   UNL     1       2.088   6.751  22.035  0.00  0.00    +0.000 HD
ENDBRANCH  22  23
ENDBRANCH  21  22
ENDBRANCH  20  21
ENDBRANCH  19  20
ENDBRANCH  18  19
ENDBRANCH  17  18
ENDBRANCH  16  17
ENDBRANCH   2  16
TORSDOF 10
ENDMDL
MODEL 6
REMARK VINA RESULT:      -6.8      2.876      6.903
REMARK  Name = 
REMARK  10 active torsions:
REMARK  status: ('A' for Active; 'I' for Inactive)
REMARK    1  A    between atoms: S_2  and  C_4
REMARK    2  A    between atoms: S_2  and  C_10
REMARK    3  A    between atoms: C_11  and  O_12
REMARK    4  A    between atoms: O_12  and  C_13
REMARK    5  A    between atoms: C_13  and  C_14
REMARK    6  A    between atoms: C_14  and  C_15
REMARK    7  A    between atoms: C_15  and  C_16
REMARK    8  A    between atoms: C_16  and  C_17
REMARK    9  A    between atoms: C_17  and  C_18
REMARK   10  A    between atoms: C_18  and  O_19
REMARK                            x       y       z     vdW  Elec       q    Type
REMARK                         _______ _______ _______ _____ _____    ______ ____
ROOT
ATOM      1  C   UNL     1       5.819   4.377  17.867  0.00  0.00    +0.000 A 
ATOM      2  C   UNL     1       6.281   4.292  16.554  0.00  0.00    +0.000 A 
ATOM      3  N   UNL     1       7.416   4.985  16.403  0.00  0.00    +0.000 NA
ATOM      4  O   UNL     1       7.756   5.461  17.654  0.00  0.00    +0.000 OA
ATOM      5  N   UNL     1       6.743   5.018  18.560  0.00  0.00    +0.000 N 
ATOM      6  O   UNL     1       6.919   5.348  19.754  0.00  0.00    +0.000 OA
ENDROOT
BRANCH   1   8
ATOM      7  O   UNL     1       5.022   3.044  19.789  0.00  0.00    +0.000 OA
ATOM      8  S   UNL     1       4.479   3.732  18.636  0.00  0.00    +0.000 S 
ATOM      9  O   UNL     1       3.756   3.021  17.604  0.00  0.00    +0.000 OA
BRANCH   8  10
ATOM     10  C   UNL     1       3.460   5.082  19.194  0.00  0.00    +0.000 A 
ATOM     11  C   UNL     1       2.620   4.933  20.304  0.00  0.00    +0.000 A 
ATOM     12  C   UNL     1       1.801   5.993  20.707  0.00  0.00    +0.000 A 
ATOM     13  C   UNL     1       1.793   7.185  19.981  0.00  0.00    +0.000 A 
ATOM     14  C   UNL     1       2.605   7.321  18.855  0.00  0.00    +0.000 A 
ATOM     15  C   UNL     1       3.440   6.272  18.459  0.00  0.00    +0.000 A 
ENDBRANCH   8  10
ENDBRANCH   1   8
BRANCH   2  16
ATOM     16  O   UNL     1       5.761   3.659  15.464  0.00  0.00    +0.000 OA
BRANCH  16  17
ATOM     17  C   UNL     1       5.998   4.401  14.252  0.00  0.00    +0.000 C 
BRANCH  17  18
ATOM     18  C   UNL     1       6.641   3.590  13.124  0.00  0.00    +0.000 C 
BRANCH  18  19
ATOM     19  C   UNL     1       5.699   3.631  11.906  0.00  0.00    +0.000 C 
BRANCH  19  20
ATOM     20  C   UNL     1       5.186   2.259  11.476  0.00  0.00    +0.000 C 
BRANCH  20  21
ATOM     21  C   UNL     1       6.343   1.273  11.275  0.00  0.00    +0.000 C 
BRANCH  21  22
ATOM     22  C   UNL     1       5.840  -0.160  11.157  0.00  0.00    +0.000 C 
BRANCH  22  23
ATOM     23  O   UNL     1       6.847  -1.065  11.588  0.00  0.00    +0.000 OA
ATOM     24  H   UNL     1       7.199  -1.512  10.799  0.00  0.00    +0.000 HD
ENDBRANCH  22  23
ENDBRANCH  21  22
ENDBRANCH  20  21
ENDBRANCH  19  20
ENDBRANCH  18  19
ENDBRANCH  17  18
ENDBRANCH  16  17
ENDBRANCH   2  16
TORSDOF 10
ENDMDL
MODEL 7
REMARK VINA RESULT:      -6.8      1.062      1.722
REMARK  Name = 
REMARK  10 active torsions:
REMARK  status: ('A' for Active; 'I' for Inactive)
REMARK    1  A    between atoms: S_2  and  C_4
REMARK    2  A    between atoms: S_2  and  C_10
REMARK    3  A    between atoms: C_11  and  O_12
REMARK    4  A    between atoms: O_12  and  C_13
REMARK    5  A    between atoms: C_13  and  C_14
REMARK    6  A    between atoms: C_14  and  C_15
REMARK    7  A    between atoms: C_15  and  C_16
REMARK    8  A    between atoms: C_16  and  C_17
REMARK    9  A    between atoms: C_17  and  C_18
REMARK   10  A    between atoms: C_18  and  O_19
REMARK                            x       y       z     vdW  Elec       q    Type
REMARK                         _______ _______ _______ _____ _____    ______ ____
ROOT
ATOM      1  C   UNL     1       5.723   5.691  17.128  0.00  0.00    +0.000 A 
ATOM      2  C   UNL     1       5.071   5.155  18.238  0.00  0.00    +0.000 A 
ATOM      3  N   UNL     1       3.861   5.706  18.392  0.00  0.00    +0.000 NA
ATOM      4  O   UNL     1       3.675   6.553  17.317  0.00  0.00    +0.000 OA
ATOM      5  N   UNL     1       4.858   6.483  16.518  0.00  0.00    +0.000 N 
ATOM      6  O   UNL     1       4.840   7.181  15.480  0.00  0.00    +0.000 OA
ENDROOT
BRANCH   1   8
ATOM      7  O   UNL     1       7.793   4.350  17.276  0.00  0.00    +0.000 OA
ATOM      8  S   UNL     1       7.227   5.399  16.453  0.00  0.00    +0.000 S 
ATOM      9  O   UNL     1       7.854   6.698  16.348  0.00  0.00    +0.000 OA
BRANCH   8  10
ATOM     10  C   UNL     1       6.978   4.771  14.805  0.00  0.00    +0.000 A 
ATOM     11  C   UNL     1       7.699   5.294  13.723  0.00  0.00    +0.000 A 
ATOM     12  C   UNL     1       7.465   4.813  12.431  0.00  0.00    +0.000 A 
ATOM     13  C   UNL     1       6.489   3.840  12.214  0.00  0.00    +0.000 A 
ATOM     14  C   UNL     1       5.747   3.345  13.286  0.00  0.00    +0.000 A 
ATOM     15  C   UNL     1       5.990   3.806  14.583  0.00  0.00    +0.000 A 
ENDBRANCH   8  10
ENDBRANCH   1   8
BRANCH   2  16
ATOM     16  O   UNL     1       5.475   4.222  19.146  0.00  0.00    +0.000 OA
BRANCH  16  17
ATOM     17  C   UNL     1       4.585   3.088  19.179  0.00  0.00    +0.000 C 
BRANCH  17  18
ATOM     18  C   UNL     1       4.101   2.618  17.805  0.00  0.00    +0.000 C 
BRANCH  18  19
ATOM     19  C   UNL     1       2.639   2.155  17.944  0.00  0.00    +0.000 C 
BRANCH  19  20
ATOM     20  C   UNL     1       2.071   2.318  19.352  0.00  0.00    +0.000 C 
BRANCH  20  21
ATOM     21  C   UNL     1       1.023   3.436  19.401  0.00  0.00    +0.000 C 
BRANCH  21  22
ATOM     22  C   UNL     1       1.237   4.348  20.602  0.00  0.00    +0.000 C 
BRANCH  22  23
ATOM     23  O   UNL     1       2.113   3.730  21.534  0.00  0.00    +0.000 OA
ATOM     24  H   UNL     1       2.958   4.211  21.508  0.00  0.00    +0.000 HD
ENDBRANCH  22  23
ENDBRANCH  21  22
ENDBRANCH  20  21
ENDBRANCH  19  20
ENDBRANCH  18  19
ENDBRANCH  17  18
ENDBRANCH  16  17
ENDBRANCH   2  16
TORSDOF 10
ENDMDL
MODEL 8
REMARK VINA RESULT:      -6.8      3.885      5.765
REMARK  Name = 
REMARK  10 active torsions:
REMARK  status: ('A' for Active; 'I' for Inactive)
REMARK    1  A    between atoms: S_2  and  C_4
REMARK    2  A    between atoms: S_2  and  C_10
REMARK    3  A    between atoms: C_11  and  O_12
REMARK    4  A    between atoms: O_12  and  C_13
REMARK    5  A    between atoms: C_13  and  C_14
REMARK    6  A    between atoms: C_14  and  C_15
REMARK    7  A    between atoms: C_15  and  C_16
REMARK    8  A    between atoms: C_16  and  C_17
REMARK    9  A    between atoms: C_17  and  C_18
REMARK   10  A    between atoms: C_18  and  O_19
REMARK                            x       y       z     vdW  Elec       q    Type
REMARK                         _______ _______ _______ _____ _____    ______ ____
ROOT
ATOM      1  C   UNL     1       2.940   3.535  19.907  0.00  0.00    +0.000 A 
ATOM      2  C   UNL     1       2.141   4.646  19.639  0.00  0.00    +0.000 A 
ATOM      3  N   UNL     1       1.240   4.830  20.611  0.00  0.00    +0.000 NA
ATOM      4  O   UNL     1       1.504   3.879  21.577  0.00  0.00    +0.000 OA
ATOM      5  N   UNL     1       2.614   3.107  21.114  0.00  0.00    +0.000 N 
ATOM      6  O   UNL     1       3.000   2.210  21.896  0.00  0.00    +0.000 OA
ENDROOT
BRANCH   1   8
ATOM      7  O   UNL     1       3.569   1.894  18.170  0.00  0.00    +0.000 OA
ATOM      8  S   UNL     1       4.208   2.829  19.072  0.00  0.00    +0.000 S 
ATOM      9  O   UNL     1       5.132   2.383  20.092  0.00  0.00    +0.000 OA
BRANCH   8  10
ATOM     10  C   UNL     1       5.012   4.099  18.115  0.00  0.00    +0.000 A 
ATOM     11  C   UNL     1       5.838   5.046  18.734  0.00  0.00    +0.000 A 
ATOM     12  C   UNL     1       6.433   6.057  17.972  0.00  0.00    +0.000 A 
ATOM     13  C   UNL     1       6.174   6.145  16.604  0.00  0.00    +0.000 A 
ATOM     14  C   UNL     1       5.324   5.222  15.994  0.00  0.00    +0.000 A 
ATOM     15  C   UNL     1       4.742   4.197  16.746  0.00  0.00    +0.000 A 
ENDBRANCH   8  10
ENDBRANCH   1   8
BRANCH   2  16
ATOM     16  O   UNL     1       2.135   5.507  18.582  0.00  0.00    +0.000 OA
BRANCH  16  17
ATOM     17  C   UNL     1       2.539   6.834  18.972  0.00  0.00    +0.000 C 
BRANCH  17  18
ATOM     18  C   UNL     1       3.045   7.709  17.822  0.00  0.00    +0.000 C 
BRANCH  18  19
ATOM     19  C   UNL     1       2.146   8.956  17.735  0.00  0.00    +0.000 C 
BRANCH  19  20
ATOM     20  C   UNL     1       1.311   9.203  18.990  0.00  0.00    +0.000 C 
BRANCH  20  21
ATOM     21  C   UNL     1       0.147  10.158  18.701  0.00  0.00    +0.000 C 
BRANCH  21  22
ATOM     22  C   UNL     1       0.458  11.574  19.167  0.00  0.00    +0.000 C 
BRANCH  22  23
ATOM     23  O   UNL     1       0.742  12.403  18.049  0.00  0.00    +0.000 OA
ATOM     24  H   UNL     1       0.910  11.823  17.286  0.00  0.00    +0.000 HD
ENDBRANCH  22  23
ENDBRANCH  21  22
ENDBRANCH  20  21
ENDBRANCH  19  20
ENDBRANCH  18  19
ENDBRANCH  17  18
ENDBRANCH  16  17
ENDBRANCH   2  16
TORSDOF 10
ENDMDL
MODEL 9
REMARK VINA RESULT:      -6.7      4.387      7.667
REMARK  Name = 
REMARK  10 active torsions:
REMARK  status: ('A' for Active; 'I' for Inactive)
REMARK    1  A    between atoms: S_2  and  C_4
REMARK    2  A    between atoms: S_2  and  C_10
REMARK    3  A    between atoms: C_11  and  O_12
REMARK    4  A    between atoms: O_12  and  C_13
REMARK    5  A    between atoms: C_13  and  C_14
REMARK    6  A    between atoms: C_14  and  C_15
REMARK    7  A    between atoms: C_15  and  C_16
REMARK    8  A    between atoms: C_16  and  C_17
REMARK    9  A    between atoms: C_17  and  C_18
REMARK   10  A    between atoms: C_18  and  O_19
REMARK                            x       y       z     vdW  Elec       q    Type
REMARK                         _______ _______ _______ _____ _____    ______ ____
ROOT
ATOM      1  C   UNL     1       6.520   5.828  17.759  0.00  0.00    +0.000 A 
ATOM      2  C   UNL     1       7.513   6.789  17.945  0.00  0.00    +0.000 A 
ATOM      3  N   UNL     1       8.114   6.629  19.130  0.00  0.00    +0.000 NA
ATOM      4  O   UNL     1       7.571   5.493  19.697  0.00  0.00    +0.000 OA
ATOM      5  N   UNL     1       6.598   4.990  18.778  0.00  0.00    +0.000 N 
ATOM      6  O   UNL     1       6.025   3.937  19.135  0.00  0.00    +0.000 OA
ENDROOT
BRANCH   1   8
ATOM      7  O   UNL     1       6.083   4.465  15.745  0.00  0.00    +0.000 OA
ATOM      8  S   UNL     1       5.458   5.532  16.498  0.00  0.00    +0.000 S 
ATOM      9  O   UNL     1       5.204   6.827  15.905  0.00  0.00    +0.000 OA
BRANCH   8  10
ATOM     10  C   UNL     1       3.932   4.933  17.194  0.00  0.00    +0.000 A 
ATOM     11  C   UNL     1       3.488   3.630  16.931  0.00  0.00    +0.000 A 
ATOM     12  C   UNL     1       2.270   3.189  17.456  0.00  0.00    +0.000 A 
ATOM     13  C   UNL     1       1.478   4.056  18.210  0.00  0.00    +0.000 A 
ATOM     14  C   UNL     1       1.904   5.364  18.442  0.00  0.00    +0.000 A 
ATOM     15  C   UNL     1       3.130   5.805  17.937  0.00  0.00    +0.000 A 
ENDBRANCH   8  10
ENDBRANCH   1   8
BRANCH   2  16
ATOM     16  O   UNL     1       7.919   7.818  17.149  0.00  0.00    +0.000 OA
BRANCH  16  17
ATOM     17  C   UNL     1       7.720   9.096  17.785  0.00  0.00    +0.000 C 
BRANCH  17  18
ATOM     18  C   UNL     1       8.939  10.023  17.748  0.00  0.00    +0.000 C 
BRANCH  18  19
ATOM     19  C   UNL     1       9.269  10.440  19.194  0.00  0.00    +0.000 C 
BRANCH  19  20
ATOM     20  C   UNL     1      10.503  11.331  19.312  0.00  0.00    +0.000 C 
BRANCH  20  21
ATOM     21  C   UNL     1      11.098  11.638  17.933  0.00  0.00    +0.000 C 
BRANCH  21  22
ATOM     22  C   UNL     1      10.856  13.087  17.530  0.00  0.00    +0.000 C 
BRANCH  22  23
ATOM     23  O   UNL     1      12.027  13.631  16.939  0.00  0.00    +0.000 OA
ATOM     24  H   UNL     1      12.256  14.441  17.427  0.00  0.00    +0.000 HD
ENDBRANCH  22  23
ENDBRANCH  21  22
ENDBRANCH  20  21
ENDBRANCH  19  20
ENDBRANCH  18  19
ENDBRANCH  17  18
ENDBRANCH  16  17
ENDBRANCH   2  16
TORSDOF 10
ENDMDL
