MODEL 1
REMARK VINA RESULT:      -7.6      0.000      0.000
REMARK  Name = 
REMARK  7 active torsions:
REMARK  status: ('A' for Active; 'I' for Inactive)
REMARK    1  A    between atoms: C_1  and  C_2
REMARK    2  A    between atoms: C_2  and  C_3
REMARK    3  A    between atoms: N_5  and  C_6
REMARK    4  A    between atoms: C_6  and  C_7
REMARK    5  A    between atoms: C_8  and  C_9
REMARK    6  A    between atoms: C_19  and  O_20
REMARK    7  A    between atoms: O_20  and  C_21
REMARK                            x       y       z     vdW  Elec       q    Type
REMARK                         _______ _______ _______ _____ _____    ______ ____
ROOT
ATOM      1  C   UNL     1       3.029   4.121  20.380  0.00  0.00    +0.000 C 
ATOM      2  C   UNL     1       1.664   4.703  19.926  0.00  0.00    +0.000 C 
ATOM      3  N   UNL     1       1.708   6.017  19.229  0.00  0.00    +0.000 NA
ATOM      4  C   UNL     1       2.383   5.878  17.929  0.00  0.00    +0.000 C 
ATOM      5  C   UNL     1       3.883   5.724  17.988  0.00  0.00    +0.000 A 
ATOM      6  C   UNL     1       4.689   6.669  17.332  0.00  0.00    +0.000 A 
ATOM      7  C   UNL     1       6.080   6.612  17.420  0.00  0.00    +0.000 A 
ATOM      8  C   UNL     1       6.676   5.583  18.149  0.00  0.00    +0.000 A 
ATOM      9  C   UNL     1       5.891   4.600  18.755  0.00  0.00    +0.000 A 
ATOM     10  C   UNL     1       4.502   4.675  18.675  0.00  0.00    +0.000 A 
ATOM     11  O   UNL     1       3.786   3.661  19.249  0.00  0.00    +0.000 OA
ENDROOT
BRANCH   1  13
ATOM     12  C   UNL     1       1.357   2.677  21.622  0.00  0.00    +0.000 C 
ATOM     13  C   UNL     1       2.834   2.921  21.323  0.00  0.00    +0.000 C 
ENDBRANCH   1  13
BRANCH   7  14
ATOM     14  O   UNL     1       6.948   7.510  16.862  0.00  0.00    +0.000 OA
ATOM     15  C   UNL     1       7.889   8.118  17.742  0.00  0.00    +0.000 C 
ENDBRANCH   7  14
BRANCH   3  16
ATOM     16  C   UNL     1       2.246   7.063  20.116  0.00  0.00    +0.000 C 
BRANCH  16  17
ATOM     17  C   UNL     1       1.627   8.415  20.023  0.00  0.00    +0.000 A 
ATOM     18  C   UNL     1       1.436   9.318  18.977  0.00  0.00    +0.000 A 
ATOM     19  C   UNL     1       1.881   9.245  17.566  0.00  0.00    +0.000 C 
ATOM     20  N   UNL     1       0.681  10.409  19.379  0.00  0.00    +0.000 NA
ATOM     21  C   UNL     1       0.395  10.144  20.624  0.00  0.00    +0.000 A 
ATOM     22  S   UNL     1      -0.549  10.928  21.851  0.00  0.00    +0.000 S 
ATOM     23  C   UNL     1      -0.141   9.605  22.952  0.00  0.00    +0.000 A 
ATOM     24  C   UNL     1       0.638   8.669  22.381  0.00  0.00    +0.000 A 
ATOM     25  N   UNL     1       0.934   8.980  21.071  0.00  0.00    +0.000 N 
ENDBRANCH  16  17
ENDBRANCH   3  16
TORSDOF 4
ENDMDL
MODEL 2
REMARK VINA RESULT:      -7.3      2.859      4.907
REMARK  Name = 
REMARK  7 active torsions:
REMARK  status: ('A' for Active; 'I' for Inactive)
REMARK    1  A    between atoms: C_1  and  C_2
REMARK    2  A    between atoms: C_2  and  C_3
REMARK    3  A    between atoms: N_5  and  C_6
REMARK    4  A    between atoms: C_6  and  C_7
REMARK    5  A    between atoms: C_8  and  C_9
REMARK    6  A    between atoms: C_19  and  O_20
REMARK    7  A    between atoms: O_20  and  C_21
REMARK                            x       y       z     vdW  Elec       q    Type
REMARK                         _______ _______ _______ _____ _____    ______ ____
ROOT
ATOM      1  C   UNL     1       7.018   6.217  17.933  0.00  0.00    +0.000 C 
ATOM      2  C   UNL     1       6.133   5.495  18.984  0.00  0.00    +0.000 C 
ATOM      3  N   UNL     1       4.911   4.823  18.464  0.00  0.00    +0.000 NA
ATOM      4  C   UNL     1       5.285   3.687  17.606  0.00  0.00    +0.000 C 
ATOM      5  C   UNL     1       5.811   4.050  16.239  0.00  0.00    +0.000 A 
ATOM      6  C   UNL     1       5.136   3.573  15.103  0.00  0.00    +0.000 A 
ATOM      7  C   UNL     1       5.539   3.943  13.819  0.00  0.00    +0.000 A 
ATOM      8  C   UNL     1       6.647   4.777  13.667  0.00  0.00    +0.000 A 
ATOM      9  C   UNL     1       7.365   5.210  14.782  0.00  0.00    +0.000 A 
ATOM     10  C   UNL     1       6.944   4.848  16.061  0.00  0.00    +0.000 A 
ATOM     11  O   UNL     1       7.713   5.263  17.113  0.00  0.00    +0.000 OA
ENDROOT
BRANCH   1  13
ATOM     12  C   UNL     1       8.158   8.480  17.969  0.00  0.00    +0.000 C 
ATOM     13  C   UNL     1       8.079   7.099  18.614  0.00  0.00    +0.000 C 
ENDBRANCH   1  13
BRANCH   7  14
ATOM     14  O   UNL     1       4.920   3.575  12.656  0.00  0.00    +0.000 OA
ATOM     15  C   UNL     1       5.647   2.700  11.799  0.00  0.00    +0.000 C 
ENDBRANCH   7  14
BRANCH   3  16
ATOM     16  C   UNL     1       3.992   5.802  17.860  0.00  0.00    +0.000 C 
BRANCH  16  17
ATOM     17  C   UNL     1       2.967   6.410  18.754  0.00  0.00    +0.000 A 
ATOM     18  C   UNL     1       2.381   6.018  19.957  0.00  0.00    +0.000 A 
ATOM     19  C   UNL     1       2.546   4.764  20.730  0.00  0.00    +0.000 C 
ATOM     20  N   UNL     1       1.556   7.009  20.468  0.00  0.00    +0.000 NA
ATOM     21  C   UNL     1       1.679   7.984  19.611  0.00  0.00    +0.000 A 
ATOM     22  S   UNL     1       1.057   9.601  19.508  0.00  0.00    +0.000 S 
ATOM     23  C   UNL     1       1.948   9.803  17.994  0.00  0.00    +0.000 A 
ATOM     24  C   UNL     1       2.651   8.709  17.649  0.00  0.00    +0.000 A 
ATOM     25  N   UNL     1       2.494   7.691  18.565  0.00  0.00    +0.000 N 
ENDBRANCH  16  17
ENDBRANCH   3  16
TORSDOF 4
ENDMDL
MODEL 3
REMARK VINA RESULT:      -6.8      1.984      4.739
REMARK  Name = 
REMARK  7 active torsions:
REMARK  status: ('A' for Active; 'I' for Inactive)
REMARK    1  A    between atoms: C_1  and  C_2
REMARK    2  A    between atoms: C_2  and  C_3
REMARK    3  A    between atoms: N_5  and  C_6
REMARK    4  A    between atoms: C_6  and  C_7
REMARK    5  A    between atoms: C_8  and  C_9
REMARK    6  A    between atoms: C_19  and  O_20
REMARK    7  A    between atoms: O_20  and  C_21
REMARK                            x       y       z     vdW  Elec       q    Type
REMARK                         _______ _______ _______ _____ _____    ______ ____
ROOT
ATOM      1  C   UNL     1       4.889   5.300  16.223  0.00  0.00    +0.000 C 
ATOM      2  C   UNL     1       5.220   6.557  17.070  0.00  0.00    +0.000 C 
ATOM      3  N   UNL     1       4.419   6.744  18.311  0.00  0.00    +0.000 NA
ATOM      4  C   UNL     1       4.730   5.680  19.279  0.00  0.00    +0.000 C 
ATOM      5  C   UNL     1       4.149   4.324  18.965  0.00  0.00    +0.000 A 
ATOM      6  C   UNL     1       3.281   3.726  19.894  0.00  0.00    +0.000 A 
ATOM      7  C   UNL     1       2.659   2.508  19.615  0.00  0.00    +0.000 A 
ATOM      8  C   UNL     1       2.929   1.865  18.407  0.00  0.00    +0.000 A 
ATOM      9  C   UNL     1       3.837   2.416  17.501  0.00  0.00    +0.000 A 
ATOM     10  C   UNL     1       4.439   3.641  17.781  0.00  0.00    +0.000 A 
ATOM     11  O   UNL     1       5.354   4.109  16.879  0.00  0.00    +0.000 OA
ENDROOT
BRANCH   1  13
ATOM     12  C   UNL     1       6.074   3.994  14.403  0.00  0.00    +0.000 C 
ATOM     13  C   UNL     1       5.572   5.365  14.845  0.00  0.00    +0.000 C 
ENDBRANCH   1  13
BRANCH   7  14
ATOM     14  O   UNL     1       1.762   1.871  20.428  0.00  0.00    +0.000 OA
ATOM     15  C   UNL     1       1.402   2.545  21.631  0.00  0.00    +0.000 C 
ENDBRANCH   7  14
BRANCH   3  16
ATOM     16  C   UNL     1       2.992   6.916  17.991  0.00  0.00    +0.000 C 
BRANCH  16  17
ATOM     17  C   UNL     1       2.166   7.683  18.965  0.00  0.00    +0.000 A 
ATOM     18  C   UNL     1       1.625   7.385  20.216  0.00  0.00    +0.000 A 
ATOM     19  C   UNL     1       1.636   6.115  20.977  0.00  0.00    +0.000 C 
ATOM     20  N   UNL     1       1.029   8.498  20.789  0.00  0.00    +0.000 NA
ATOM     21  C   UNL     1       1.246   9.446  19.920  0.00  0.00    +0.000 A 
ATOM     22  S   UNL     1       0.905  11.147  19.862  0.00  0.00    +0.000 S 
ATOM     23  C   UNL     1       1.687  11.208  18.277  0.00  0.00    +0.000 A 
ATOM     24  C   UNL     1       2.159  10.013  17.879  0.00  0.00    +0.000 A 
ATOM     25  N   UNL     1       1.907   9.028  18.810  0.00  0.00    +0.000 N 
ENDBRANCH  16  17
ENDBRANCH   3  16
TORSDOF 4
ENDMDL
MODEL 4
REMARK VINA RESULT:      -6.6      5.769      7.231
REMARK  Name = 
REMARK  7 active torsions:
REMARK  status: ('A' for Active; 'I' for Inactive)
REMARK    1  A    between atoms: C_1  and  C_2
REMARK    2  A    between atoms: C_2  and  C_3
REMARK    3  A    between atoms: N_5  and  C_6
REMARK    4  A    between atoms: C_6  and  C_7
REMARK    5  A    between atoms: C_8  and  C_9
REMARK    6  A    between atoms: C_19  and  O_20
REMARK    7  A    between atoms: O_20  and  C_21
REMARK                            x       y       z     vdW  Elec       q    Type
REMARK                         _______ _______ _______ _____ _____    ______ ____
ROOT
ATOM      1  C   UNL     1      -0.323  11.522  21.230  0.00  0.00    +0.000 C 
ATOM      2  C   UNL     1      -0.703  10.415  20.212  0.00  0.00    +0.000 C 
ATOM      3  N   UNL     1      -0.437  10.719  18.779  0.00  0.00    +0.000 NA
ATOM      4  C   UNL     1       1.013  10.812  18.542  0.00  0.00    +0.000 C 
ATOM      5  C   UNL     1       1.676  12.066  19.056  0.00  0.00    +0.000 A 
ATOM      6  C   UNL     1       2.347  12.900  18.146  0.00  0.00    +0.000 A 
ATOM      7  C   UNL     1       2.911  14.108  18.559  0.00  0.00    +0.000 A 
ATOM      8  C   UNL     1       2.829  14.474  19.903  0.00  0.00    +0.000 A 
ATOM      9  C   UNL     1       2.221  13.627  20.830  0.00  0.00    +0.000 A 
ATOM     10  C   UNL     1       1.646  12.431  20.405  0.00  0.00    +0.000 A 
ATOM     11  O   UNL     1       1.104  11.621  21.363  0.00  0.00    +0.000 OA
ENDROOT
BRANCH   1  13
ATOM     12  C   UNL     1      -0.410   9.864  23.145  0.00  0.00    +0.000 C 
ATOM     13  C   UNL     1      -0.897  11.214  22.624  0.00  0.00    +0.000 C 
ENDBRANCH   1  13
BRANCH   7  14
ATOM     14  O   UNL     1       3.538  15.011  17.745  0.00  0.00    +0.000 OA
ATOM     15  C   UNL     1       3.308  16.388  18.025  0.00  0.00    +0.000 C 
ENDBRANCH   7  14
BRANCH   3  16
ATOM     16  C   UNL     1      -1.230  11.877  18.334  0.00  0.00    +0.000 C 
BRANCH  16  17
ATOM     17  C   UNL     1      -2.666  11.635  18.020  0.00  0.00    +0.000 A 
ATOM     18  C   UNL     1      -3.329  10.955  16.998  0.00  0.00    +0.000 A 
ATOM     19  C   UNL     1      -2.784  10.287  15.793  0.00  0.00    +0.000 C 
ATOM     20  N   UNL     1      -4.696  10.907  17.223  0.00  0.00    +0.000 NA
ATOM     21  C   UNL     1      -4.841  11.508  18.372  0.00  0.00    +0.000 A 
ATOM     22  S   UNL     1      -6.189  11.834  19.415  0.00  0.00    +0.000 S 
ATOM     23  C   UNL     1      -5.076  12.624  20.539  0.00  0.00    +0.000 A 
ATOM     24  C   UNL     1      -3.800  12.603  20.114  0.00  0.00    +0.000 A 
ATOM     25  N   UNL     1      -3.677  11.972  18.894  0.00  0.00    +0.000 N 
ENDBRANCH  16  17
ENDBRANCH   3  16
TORSDOF 4
ENDMDL
MODEL 5
REMARK VINA RESULT:      -6.6      1.066      2.106
REMARK  Name = 
REMARK  7 active torsions:
REMARK  status: ('A' for Active; 'I' for Inactive)
REMARK    1  A    between atoms: C_1  and  C_2
REMARK    2  A    between atoms: C_2  and  C_3
REMARK    3  A    between atoms: N_5  and  C_6
REMARK    4  A    between atoms: C_6  and  C_7
REMARK    5  A    between atoms: C_8  and  C_9
REMARK    6  A    between atoms: C_19  and  O_20
REMARK    7  A    between atoms: O_20  and  C_21
REMARK                            x       y       z     vdW  Elec       q    Type
REMARK                         _______ _______ _______ _____ _____    ______ ____
ROOT
ATOM      1  C   UNL     1       2.926   4.523  20.463  0.00  0.00    +0.000 C 
ATOM      2  C   UNL     1       1.602   5.078  19.875  0.00  0.00    +0.000 C 
ATOM      3  N   UNL     1       1.712   6.325  19.070  0.00  0.00    +0.000 NA
ATOM      4  C   UNL     1       2.464   6.063  17.832  0.00  0.00    +0.000 C 
ATOM      5  C   UNL     1       3.955   5.897  17.999  0.00  0.00    +0.000 A 
ATOM      6  C   UNL     1       4.816   6.771  17.315  0.00  0.00    +0.000 A 
ATOM      7  C   UNL     1       6.198   6.707  17.496  0.00  0.00    +0.000 A 
ATOM      8  C   UNL     1       6.729   5.738  18.349  0.00  0.00    +0.000 A 
ATOM      9  C   UNL     1       5.891   4.823  18.987  0.00  0.00    +0.000 A 
ATOM     10  C   UNL     1       4.511   4.907  18.813  0.00  0.00    +0.000 A 
ATOM     11  O   UNL     1       3.743   3.956  19.427  0.00  0.00    +0.000 OA
ENDROOT
BRANCH   1  13
ATOM     12  C   UNL     1       1.261   2.812  21.313  0.00  0.00    +0.000 C 
ATOM     13  C   UNL     1       2.652   3.414  21.494  0.00  0.00    +0.000 C 
ENDBRANCH   1  13
BRANCH   7  14
ATOM     14  O   UNL     1       7.114   7.541  16.918  0.00  0.00    +0.000 OA
ATOM     15  C   UNL     1       7.799   8.436  17.789  0.00  0.00    +0.000 C 
ENDBRANCH   7  14
BRANCH   3  16
ATOM     16  C   UNL     1       2.211   7.439  19.894  0.00  0.00    +0.000 C 
BRANCH  16  17
ATOM     17  C   UNL     1       1.344   8.645  20.000  0.00  0.00    +0.000 A 
ATOM     18  C   UNL     1       0.338   9.035  20.885  0.00  0.00    +0.000 A 
ATOM     19  C   UNL     1      -0.271   8.296  22.015  0.00  0.00    +0.000 C 
ATOM     20  N   UNL     1      -0.087  10.330  20.632  0.00  0.00    +0.000 NA
ATOM     21  C   UNL     1       0.675  10.718  19.647  0.00  0.00    +0.000 A 
ATOM     22  S   UNL     1       0.862  12.199  18.762  0.00  0.00    +0.000 S 
ATOM     23  C   UNL     1       2.135  11.421  17.811  0.00  0.00    +0.000 A 
ATOM     24  C   UNL     1       2.365  10.149  18.183  0.00  0.00    +0.000 A 
ATOM     25  N   UNL     1       1.540   9.762  19.218  0.00  0.00    +0.000 N 
ENDBRANCH  16  17
ENDBRANCH   3  16
TORSDOF 4
ENDMDL
MODEL 6
REMARK VINA RESULT:      -6.5      4.726      7.782
REMARK  Name = 
REMARK  7 active torsions:
REMARK  status: ('A' for Active; 'I' for Inactive)
REMARK    1  A    between atoms: C_1  and  C_2
REMARK    2  A    between atoms: C_2  and  C_3
REMARK    3  A    between atoms: N_5  and  C_6
REMARK    4  A    between atoms: C_6  and  C_7
REMARK    5  A    between atoms: C_8  and  C_9
REMARK    6  A    between atoms: C_19  and  O_20
REMARK    7  A    between atoms: O_20  and  C_21
REMARK                            x       y       z     vdW  Elec       q    Type
REMARK                         _______ _______ _______ _____ _____    ______ ____
ROOT
ATOM      1  C   UNL     1       0.882   9.332  19.365  0.00  0.00    +0.000 C 
ATOM      2  C   UNL     1       0.652  10.318  18.189  0.00  0.00    +0.000 C 
ATOM      3  N   UNL     1      -0.552  11.188  18.286  0.00  0.00    +0.000 NA
ATOM      4  C   UNL     1      -0.402  12.136  19.403  0.00  0.00    +0.000 C 
ATOM      5  C   UNL     1      -0.569  11.547  20.782  0.00  0.00    +0.000 A 
ATOM      6  C   UNL     1      -1.576  12.055  21.620  0.00  0.00    +0.000 A 
ATOM      7  C   UNL     1      -1.819  11.493  22.874  0.00  0.00    +0.000 A 
ATOM      8  C   UNL     1      -1.027  10.430  23.309  0.00  0.00    +0.000 A 
ATOM      9  C   UNL     1       0.018   9.955  22.515  0.00  0.00    +0.000 A 
ATOM     10  C   UNL     1       0.241  10.511  21.257  0.00  0.00    +0.000 A 
ATOM     11  O   UNL     1       1.306  10.038  20.542  0.00  0.00    +0.000 OA
ENDROOT
BRANCH   1  13
ATOM     12  C   UNL     1       2.094   7.230  20.096  0.00  0.00    +0.000 C 
ATOM     13  C   UNL     1       1.977   8.307  19.021  0.00  0.00    +0.000 C 
ENDBRANCH   1  13
BRANCH   7  14
ATOM     14  O   UNL     1      -2.804  11.880  23.739  0.00  0.00    +0.000 OA
ATOM     15  C   UNL     1      -3.833  12.708  23.205  0.00  0.00    +0.000 C 
ENDBRANCH   7  14
BRANCH   3  16
ATOM     16  C   UNL     1      -1.783  10.380  18.298  0.00  0.00    +0.000 C 
BRANCH  16  17
ATOM     17  C   UNL     1      -2.938  10.892  17.509  0.00  0.00    +0.000 A 
ATOM     18  C   UNL     1      -3.370  10.702  16.197  0.00  0.00    +0.000 A 
ATOM     19  C   UNL     1      -2.738   9.949  15.089  0.00  0.00    +0.000 C 
ATOM     20  N   UNL     1      -4.597  11.307  15.973  0.00  0.00    +0.000 NA
ATOM     21  C   UNL     1      -4.908  11.812  17.134  0.00  0.00    +0.000 A 
ATOM     22  S   UNL     1      -6.280  12.671  17.761  0.00  0.00    +0.000 S 
ATOM     23  C   UNL     1      -5.472  12.730  19.334  0.00  0.00    +0.000 A 
ATOM     24  C   UNL     1      -4.271  12.124  19.329  0.00  0.00    +0.000 A 
ATOM     25  N   UNL     1      -3.962  11.610  18.088  0.00  0.00    +0.000 N 
ENDBRANCH  16  17
ENDBRANCH   3  16
TORSDOF 4
ENDMDL
MODEL 7
REMARK VINA RESULT:      -6.4      0.948      1.007
REMARK  Name = 
REMARK  7 active torsions:
REMARK  status: ('A' for Active; 'I' for Inactive)
REMARK    1  A    between atoms: C_1  and  C_2
REMARK    2  A    between atoms: C_2  and  C_3
REMARK    3  A    between atoms: N_5  and  C_6
REMARK    4  A    between atoms: C_6  and  C_7
REMARK    5  A    between atoms: C_8  and  C_9
REMARK    6  A    between atoms: C_19  and  O_20
REMARK    7  A    between atoms: O_20  and  C_21
REMARK                            x       y       z     vdW  Elec       q    Type
REMARK                         _______ _______ _______ _____ _____    ______ ____
ROOT
ATOM      1  C   UNL     1       2.616   4.316  20.806  0.00  0.00    +0.000 C 
ATOM      2  C   UNL     1       1.314   5.019  20.338  0.00  0.00    +0.000 C 
ATOM      3  N   UNL     1       1.482   6.130  19.361  0.00  0.00    +0.000 NA
ATOM      4  C   UNL     1       1.976   5.604  18.078  0.00  0.00    +0.000 C 
ATOM      5  C   UNL     1       3.432   5.206  18.056  0.00  0.00    +0.000 A 
ATOM      6  C   UNL     1       4.294   5.836  17.144  0.00  0.00    +0.000 A 
ATOM      7  C   UNL     1       5.662   5.557  17.137  0.00  0.00    +0.000 A 
ATOM      8  C   UNL     1       6.169   4.615  18.032  0.00  0.00    +0.000 A 
ATOM      9  C   UNL     1       5.316   3.935  18.902  0.00  0.00    +0.000 A 
ATOM     10  C   UNL     1       3.955   4.234  18.913  0.00  0.00    +0.000 A 
ATOM     11  O   UNL     1       3.160   3.504  19.753  0.00  0.00    +0.000 OA
ENDROOT
BRANCH   1  13
ATOM     12  C   UNL     1       1.273   2.356  21.688  0.00  0.00    +0.000 C 
ATOM     13  C   UNL     1       2.345   3.394  22.008  0.00  0.00    +0.000 C 
ENDBRANCH   1  13
BRANCH   7  14
ATOM     14  O   UNL     1       6.589   6.152  16.327  0.00  0.00    +0.000 OA
ATOM     15  C   UNL     1       7.038   5.392  15.209  0.00  0.00    +0.000 C 
ENDBRANCH   7  14
BRANCH   3  16
ATOM     16  C   UNL     1       2.270   7.227  19.945  0.00  0.00    +0.000 C 
BRANCH  16  17
ATOM     17  C   UNL     1       1.651   8.582  19.944  0.00  0.00    +0.000 A 
ATOM     18  C   UNL     1       1.424   9.538  18.953  0.00  0.00    +0.000 A 
ATOM     19  C   UNL     1       1.818   9.538  17.526  0.00  0.00    +0.000 C 
ATOM     20  N   UNL     1       0.686  10.607  19.438  0.00  0.00    +0.000 NA
ATOM     21  C   UNL     1       0.444  10.277  20.677  0.00  0.00    +0.000 A 
ATOM     22  S   UNL     1      -0.454  10.998  21.976  0.00  0.00    +0.000 S 
ATOM     23  C   UNL     1      -0.010   9.620  22.992  0.00  0.00    +0.000 A 
ATOM     24  C   UNL     1       0.747   8.715  22.346  0.00  0.00    +0.000 A 
ATOM     25  N   UNL     1       0.997   9.092  21.044  0.00  0.00    +0.000 N 
ENDBRANCH  16  17
ENDBRANCH   3  16
TORSDOF 4
ENDMDL
MODEL 8
REMARK VINA RESULT:      -6.2      3.260      5.747
REMARK  Name = 
REMARK  7 active torsions:
REMARK  status: ('A' for Active; 'I' for Inactive)
REMARK    1  A    between atoms: C_1  and  C_2
REMARK    2  A    between atoms: C_2  and  C_3
REMARK    3  A    between atoms: N_5  and  C_6
REMARK    4  A    between atoms: C_6  and  C_7
REMARK    5  A    between atoms: C_8  and  C_9
REMARK    6  A    between atoms: C_19  and  O_20
REMARK    7  A    between atoms: O_20  and  C_21
REMARK                            x       y       z     vdW  Elec       q    Type
REMARK                         _______ _______ _______ _____ _____    ______ ____
ROOT
ATOM      1  C   UNL     1       7.071   7.198  17.288  0.00  0.00    +0.000 C 
ATOM      2  C   UNL     1       6.838   6.410  18.604  0.00  0.00    +0.000 C 
ATOM      3  N   UNL     1       5.960   5.211  18.506  0.00  0.00    +0.000 NA
ATOM      4  C   UNL     1       6.609   4.175  17.686  0.00  0.00    +0.000 C 
ATOM      5  C   UNL     1       6.621   4.435  16.200  0.00  0.00    +0.000 A 
ATOM      6  C   UNL     1       6.006   3.507  15.344  0.00  0.00    +0.000 A 
ATOM      7  C   UNL     1       5.925   3.740  13.970  0.00  0.00    +0.000 A 
ATOM      8  C   UNL     1       6.491   4.901  13.442  0.00  0.00    +0.000 A 
ATOM      9  C   UNL     1       7.160   5.802  14.270  0.00  0.00    +0.000 A 
ATOM     10  C   UNL     1       7.220   5.569  15.643  0.00  0.00    +0.000 A 
ATOM     11  O   UNL     1       7.927   6.461  16.400  0.00  0.00    +0.000 OA
ENDROOT
BRANCH   1  13
ATOM     12  C   UNL     1       8.678   8.476  18.774  0.00  0.00    +0.000 C 
ATOM     13  C   UNL     1       7.748   8.552  17.566  0.00  0.00    +0.000 C 
ENDBRANCH   1  13
BRANCH   7  14
ATOM     14  O   UNL     1       5.305   2.926  13.062  0.00  0.00    +0.000 OA
ATOM     15  C   UNL     1       5.981   2.721  11.826  0.00  0.00    +0.000 C 
ENDBRANCH   7  14
BRANCH   3  16
ATOM     16  C   UNL     1       4.600   5.591  18.093  0.00  0.00    +0.000 C 
BRANCH  16  17
ATOM     17  C   UNL     1       3.533   5.530  19.131  0.00  0.00    +0.000 A 
ATOM     18  C   UNL     1       2.523   6.406  19.530  0.00  0.00    +0.000 A 
ATOM     19  C   UNL     1       2.226   7.783  19.072  0.00  0.00    +0.000 C 
ATOM     20  N   UNL     1       1.691   5.825  20.474  0.00  0.00    +0.000 NA
ATOM     21  C   UNL     1       2.168   4.618  20.606  0.00  0.00    +0.000 A 
ATOM     22  S   UNL     1       1.704   3.217  21.520  0.00  0.00    +0.000 S 
ATOM     23  C   UNL     1       3.077   2.354  20.814  0.00  0.00    +0.000 A 
ATOM     24  C   UNL     1       3.786   3.108  19.955  0.00  0.00    +0.000 A 
ATOM     25  N   UNL     1       3.267   4.381  19.844  0.00  0.00    +0.000 N 
ENDBRANCH  16  17
ENDBRANCH   3  16
TORSDOF 4
ENDMDL
MODEL 9
REMARK VINA RESULT:      -6.1      5.540      8.627
REMARK  Name = 
REMARK  7 active torsions:
REMARK  status: ('A' for Active; 'I' for Inactive)
REMARK    1  A    between atoms: C_1  and  C_2
REMARK    2  A    between atoms: C_2  and  C_3
REMARK    3  A    between atoms: N_5  and  C_6
REMARK    4  A    between atoms: C_6  and  C_7
REMARK    5  A    between atoms: C_8  and  C_9
REMARK    6  A    between atoms: C_19  and  O_20
REMARK    7  A    between atoms: O_20  and  C_21
REMARK                            x       y       z     vdW  Elec       q    Type
REMARK                         _______ _______ _______ _____ _____    ______ ____
ROOT
ATOM      1  C   UNL     1       0.773  10.825  18.391  0.00  0.00    +0.000 C 
ATOM      2  C   UNL     1       0.847  11.729  19.650  0.00  0.00    +0.000 C 
ATOM      3  N   UNL     1      -0.244  12.729  19.806  0.00  0.00    +0.000 NA
ATOM      4  C   UNL     1      -1.526  12.046  20.044  0.00  0.00    +0.000 C 
ATOM      5  C   UNL     1      -2.144  11.383  18.838  0.00  0.00    +0.000 A 
ATOM      6  C   UNL     1      -3.423  11.787  18.422  0.00  0.00    +0.000 A 
ATOM      7  C   UNL     1      -4.005  11.259  17.269  0.00  0.00    +0.000 A 
ATOM      8  C   UNL     1      -3.312  10.293  16.538  0.00  0.00    +0.000 A 
ATOM      9  C   UNL     1      -2.067   9.836  16.971  0.00  0.00    +0.000 A 
ATOM     10  C   UNL     1      -1.487  10.383  18.115  0.00  0.00    +0.000 A 
ATOM     11  O   UNL     1      -0.288   9.865  18.518  0.00  0.00    +0.000 OA
ENDROOT
BRANCH   1  13
ATOM     12  C   UNL     1       1.816   8.587  17.819  0.00  0.00    +0.000 C 
ATOM     13  C   UNL     1       2.083  10.042  18.194  0.00  0.00    +0.000 C 
ENDBRANCH   1  13
BRANCH   7  14
ATOM     14  O   UNL     1      -5.219  11.622  16.754  0.00  0.00    +0.000 OA
ATOM     15  C   UNL     1      -5.991  12.534  17.529  0.00  0.00    +0.000 C 
ENDBRANCH   7  14
BRANCH   3  16
ATOM     16  C   UNL     1      -0.234  13.694  18.693  0.00  0.00    +0.000 C 
BRANCH  16  17
ATOM     17  C   UNL     1       0.522  14.960  18.901  0.00  0.00    +0.000 A 
ATOM     18  C   UNL     1       0.208  16.185  19.490  0.00  0.00    +0.000 A 
ATOM     19  C   UNL     1      -1.073  16.665  20.059  0.00  0.00    +0.000 C 
ATOM     20  N   UNL     1       1.315  17.019  19.549  0.00  0.00    +0.000 NA
ATOM     21  C   UNL     1       2.274  16.294  19.044  0.00  0.00    +0.000 A 
ATOM     22  S   UNL     1       3.976  16.526  18.798  0.00  0.00    +0.000 S 
ATOM     23  C   UNL     1       4.057  14.899  18.110  0.00  0.00    +0.000 A 
ATOM     24  C   UNL     1       2.866  14.273  18.102  0.00  0.00    +0.000 A 
ATOM     25  N   UNL     1       1.869  15.065  18.631  0.00  0.00    +0.000 N 
ENDBRANCH  16  17
ENDBRANCH   3  16
TORSDOF 4
ENDMDL
