MODEL 1
REMARK VINA RESULT:      -7.2      0.000      0.000
REMARK  Name = 
REMARK  17 active torsions:
REMARK  status: ('A' for Active; 'I' for Inactive)
REMARK    1  A    between atoms: C_2  and  C_3
REMARK    2  A    between atoms: C_3  and  O_4
REMARK    3  A    between atoms: O_4  and  C_5
REMARK    4  A    between atoms: C_5  and  C_6
REMARK    5  A    between atoms: C_6  and  O_7
REMARK    6  A    between atoms: C_6  and  C_8
REMARK    7  A    between atoms: C_8  and  N_9
REMARK    8  A    between atoms: N_9  and  C_10
REMARK    9  A    between atoms: N_9  and  C_14
REMARK   10  A    between atoms: C_10  and  C_11
REMARK   11  A    between atoms: C_11  and  O_12
REMARK   12  A    between atoms: O_12  and  C_13
REMARK   13  A    between atoms: C_14  and  C_15
REMARK   14  A    between atoms: C_16  and  C_17
REMARK   15  A    between atoms: C_25  and  N_26
REMARK   16  A    between atoms: N_26  and  C_27
REMARK   17  A    between atoms: N_26  and  C_28
REMARK                            x       y       z     vdW  Elec       q    Type
REMARK                         _______ _______ _______ _____ _____    ______ ____
ROOT
ATOM      1  C   UNL     1       2.832   6.866  18.782  0.00  0.00    +0.000 A 
ATOM      2  C   UNL     1       2.538   5.646  19.513  0.00  0.00    +0.000 A 
ATOM      3  N   UNL     1       1.876   5.930  20.634  0.00  0.00    +0.000 NA
ATOM      4  O   UNL     1       1.542   7.234  20.553  0.00  0.00    +0.000 OA
ATOM      5  C   UNL     1       1.979   7.823  19.389  0.00  0.00    +0.000 A 
ENDROOT
BRANCH   2   6
ATOM      6  C   UNL     1       2.738   4.226  19.199  0.00  0.00    +0.000 A 
ATOM      7  C   UNL     1       2.092   3.652  18.089  0.00  0.00    +0.000 A 
ATOM      8  C   UNL     1       2.436   2.376  17.636  0.00  0.00    +0.000 A 
ATOM      9  C   UNL     1       3.431   1.654  18.291  0.00  0.00    +0.000 A 
ATOM     10  C   UNL     1       4.075   2.206  19.398  0.00  0.00    +0.000 A 
ATOM     11  C   UNL     1       3.734   3.486  19.848  0.00  0.00    +0.000 A 
ENDBRANCH   2   6
BRANCH   5  12
ATOM     12  N   UNL     1       1.420   9.087  19.210  0.00  0.00    +0.000 N 
ATOM     13  C   UNL     1       1.822   9.770  17.949  0.00  0.00    +0.000 C 
BRANCH  12  14
ATOM     14  C   UNL     1       0.249   9.694  19.904  0.00  0.00    +0.000 C 
ATOM     15  C   UNL     1       0.575  10.571  21.110  0.00  0.00    +0.000 C 
ATOM     16  C   UNL     1       1.349  11.834  20.746  0.00  0.00    +0.000 C 
ATOM     17  C   UNL     1       0.531  12.710  19.806  0.00  0.00    +0.000 C 
ATOM     18  C   UNL     1       0.073  11.925  18.579  0.00  0.00    +0.000 C 
ATOM     19  C   UNL     1      -0.621  10.614  18.974  0.00  0.00    +0.000 C 
ENDBRANCH  12  14
ENDBRANCH   5  12
BRANCH   1  20
ATOM     20  C   UNL     1       3.729   6.974  17.576  0.00  0.00    +0.000 C 
BRANCH  20  21
ATOM     21  N   UNL     1       4.725   5.879  17.353  0.00  0.00    +0.000 NA
BRANCH  21  22
ATOM     22  C   UNL     1       4.966   5.736  15.897  0.00  0.00    +0.000 C 
BRANCH  22  23
ATOM     23  C   UNL     1       5.395   4.394  15.237  0.00  0.00    +0.000 C 
BRANCH  23  24
ATOM     24  O   UNL     1       5.674   3.489  16.334  0.00  0.00    +0.000 OA
ATOM     25  H   UNL     1       5.179   3.799  17.110  0.00  0.00    +0.000 HD
ENDBRANCH  23  24
BRANCH  23  26
ATOM     26  C   UNL     1       6.611   4.439  14.289  0.00  0.00    +0.000 C 
BRANCH  26  27
ATOM     27  O   UNL     1       6.444   3.397  13.307  0.00  0.00    +0.000 OA
BRANCH  27  28
ATOM     28  C   UNL     1       5.339   3.603  12.429  0.00  0.00    +0.000 C 
BRANCH  28  30
ATOM     29  C   UNL     1       6.288   1.572  11.265  0.00  0.00    +0.000 C 
ATOM     30  C   UNL     1       5.279   2.420  11.507  0.00  0.00    +0.000 C 
ENDBRANCH  28  30
ENDBRANCH  27  28
ENDBRANCH  26  27
ENDBRANCH  23  26
ENDBRANCH  22  23
ENDBRANCH  21  22
BRANCH  21  31
ATOM     31  C   UNL     1       5.962   5.997  18.149  0.00  0.00    +0.000 C 
BRANCH  31  32
ATOM     32  C   UNL     1       7.229   6.711  17.620  0.00  0.00    +0.000 C 
BRANCH  32  33
ATOM     33  O   UNL     1       8.124   6.818  18.742  0.00  0.00    +0.000 OA
ATOM     34  C   UNL     1       8.093   5.709  19.622  0.00  0.00    +0.000 C 
ENDBRANCH  32  33
ENDBRANCH  31  32
ENDBRANCH  21  31
ENDBRANCH  20  21
ENDBRANCH   1  20
TORSDOF 15
ENDMDL
MODEL 2
REMARK VINA RESULT:      -7.1      0.784      1.615
REMARK  Name = 
REMARK  17 active torsions:
REMARK  status: ('A' for Active; 'I' for Inactive)
REMARK    1  A    between atoms: C_2  and  C_3
REMARK    2  A    between atoms: C_3  and  O_4
REMARK    3  A    between atoms: O_4  and  C_5
REMARK    4  A    between atoms: C_5  and  C_6
REMARK    5  A    between atoms: C_6  and  O_7
REMARK    6  A    between atoms: C_6  and  C_8
REMARK    7  A    between atoms: C_8  and  N_9
REMARK    8  A    between atoms: N_9  and  C_10
REMARK    9  A    between atoms: N_9  and  C_14
REMARK   10  A    between atoms: C_10  and  C_11
REMARK   11  A    between atoms: C_11  and  O_12
REMARK   12  A    between atoms: O_12  and  C_13
REMARK   13  A    between atoms: C_14  and  C_15
REMARK   14  A    between atoms: C_16  and  C_17
REMARK   15  A    between atoms: C_25  and  N_26
REMARK   16  A    between atoms: N_26  and  C_27
REMARK   17  A    between atoms: N_26  and  C_28
REMARK                            x       y       z     vdW  Elec       q    Type
REMARK                         _______ _______ _______ _____ _____    ______ ____
ROOT
ATOM      1  C   UNL     1       2.700   7.057  18.889  0.00  0.00    +0.000 A 
ATOM      2  C   UNL     1       2.521   5.755  19.510  0.00  0.00    +0.000 A 
ATOM      3  N   UNL     1       1.915   5.889  20.691  0.00  0.00    +0.000 NA
ATOM      4  O   UNL     1       1.505   7.172  20.759  0.00  0.00    +0.000 OA
ATOM      5  C   UNL     1       1.834   7.896  19.636  0.00  0.00    +0.000 A 
ENDROOT
BRANCH   2   6
ATOM      6  C   UNL     1       2.779   4.388  19.045  0.00  0.00    +0.000 A 
ATOM      7  C   UNL     1       3.843   3.646  19.592  0.00  0.00    +0.000 A 
ATOM      8  C   UNL     1       3.973   2.279  19.337  0.00  0.00    +0.000 A 
ATOM      9  C   UNL     1       3.041   1.633  18.529  0.00  0.00    +0.000 A 
ATOM     10  C   UNL     1       1.985   2.357  17.973  0.00  0.00    +0.000 A 
ATOM     11  C   UNL     1       1.852   3.724  18.233  0.00  0.00    +0.000 A 
ENDBRANCH   2   6
BRANCH   5  12
ATOM     12  N   UNL     1       1.196   9.135  19.617  0.00  0.00    +0.000 N 
ATOM     13  C   UNL     1       1.025   9.765  20.956  0.00  0.00    +0.000 C 
BRANCH  12  14
ATOM     14  C   UNL     1       0.974  10.050  18.461  0.00  0.00    +0.000 C 
ATOM     15  C   UNL     1      -0.321   9.832  17.683  0.00  0.00    +0.000 C 
ATOM     16  C   UNL     1      -1.574  10.130  18.500  0.00  0.00    +0.000 C 
ATOM     17  C   UNL     1      -1.593  11.589  18.935  0.00  0.00    +0.000 C 
ATOM     18  C   UNL     1      -0.308  11.964  19.669  0.00  0.00    +0.000 C 
ATOM     19  C   UNL     1       0.939  11.568  18.864  0.00  0.00    +0.000 C 
ENDBRANCH  12  14
ENDBRANCH   5  12
BRANCH   1  20
ATOM     20  C   UNL     1       3.512   7.335  17.651  0.00  0.00    +0.000 C 
BRANCH  20  21
ATOM     21  N   UNL     1       4.755   6.528  17.441  0.00  0.00    +0.000 NA
BRANCH  21  22
ATOM     22  C   UNL     1       5.016   6.415  15.986  0.00  0.00    +0.000 C 
BRANCH  22  23
ATOM     23  C   UNL     1       5.323   5.062  15.282  0.00  0.00    +0.000 C 
BRANCH  23  24
ATOM     24  O   UNL     1       4.772   4.037  16.146  0.00  0.00    +0.000 OA
ATOM     25  H   UNL     1       5.097   3.177  15.834  0.00  0.00    +0.000 HD
ENDBRANCH  23  24
BRANCH  23  26
ATOM     26  C   UNL     1       6.805   4.745  14.993  0.00  0.00    +0.000 C 
BRANCH  26  27
ATOM     27  O   UNL     1       6.936   4.502  13.578  0.00  0.00    +0.000 OA
BRANCH  27  28
ATOM     28  C   UNL     1       5.842   3.784  13.011  0.00  0.00    +0.000 C 
BRANCH  28  30
ATOM     29  C   UNL     1       5.912   1.798  11.453  0.00  0.00    +0.000 C 
ATOM     30  C   UNL     1       6.383   2.984  11.864  0.00  0.00    +0.000 C 
ENDBRANCH  28  30
ENDBRANCH  27  28
ENDBRANCH  26  27
ENDBRANCH  23  26
ENDBRANCH  22  23
ENDBRANCH  21  22
BRANCH  21  31
ATOM     31  C   UNL     1       5.924   6.980  18.219  0.00  0.00    +0.000 C 
BRANCH  31  32
ATOM     32  C   UNL     1       7.290   7.297  17.564  0.00  0.00    +0.000 C 
BRANCH  32  33
ATOM     33  O   UNL     1       8.292   6.856  18.499  0.00  0.00    +0.000 OA
ATOM     34  C   UNL     1       7.882   5.788  19.333  0.00  0.00    +0.000 C 
ENDBRANCH  32  33
ENDBRANCH  31  32
ENDBRANCH  21  31
ENDBRANCH  20  21
ENDBRANCH   1  20
TORSDOF 15
ENDMDL
MODEL 3
REMARK VINA RESULT:      -6.9      0.837      1.391
REMARK  Name = 
REMARK  17 active torsions:
REMARK  status: ('A' for Active; 'I' for Inactive)
REMARK    1  A    between atoms: C_2  and  C_3
REMARK    2  A    between atoms: C_3  and  O_4
REMARK    3  A    between atoms: O_4  and  C_5
REMARK    4  A    between atoms: C_5  and  C_6
REMARK    5  A    between atoms: C_6  and  O_7
REMARK    6  A    between atoms: C_6  and  C_8
REMARK    7  A    between atoms: C_8  and  N_9
REMARK    8  A    between atoms: N_9  and  C_10
REMARK    9  A    between atoms: N_9  and  C_14
REMARK   10  A    between atoms: C_10  and  C_11
REMARK   11  A    between atoms: C_11  and  O_12
REMARK   12  A    between atoms: O_12  and  C_13
REMARK   13  A    between atoms: C_14  and  C_15
REMARK   14  A    between atoms: C_16  and  C_17
REMARK   15  A    between atoms: C_25  and  N_26
REMARK   16  A    between atoms: N_26  and  C_27
REMARK   17  A    between atoms: N_26  and  C_28
REMARK                            x       y       z     vdW  Elec       q    Type
REMARK                         _______ _______ _______ _____ _____    ______ ____
ROOT
ATOM      1  C   UNL     1       2.687   7.146  18.754  0.00  0.00    +0.000 A 
ATOM      2  C   UNL     1       2.287   5.988  19.536  0.00  0.00    +0.000 A 
ATOM      3  N   UNL     1       1.601   6.375  20.612  0.00  0.00    +0.000 NA
ATOM      4  O   UNL     1       1.354   7.691  20.446  0.00  0.00    +0.000 OA
ATOM      5  C   UNL     1       1.873   8.186  19.272  0.00  0.00    +0.000 A 
ENDROOT
BRANCH   2   6
ATOM      6  C   UNL     1       2.408   4.544  19.307  0.00  0.00    +0.000 A 
ATOM      7  C   UNL     1       3.330   3.786  20.053  0.00  0.00    +0.000 A 
ATOM      8  C   UNL     1       3.309   2.390  20.019  0.00  0.00    +0.000 A 
ATOM      9  C   UNL     1       2.365   1.730  19.236  0.00  0.00    +0.000 A 
ATOM     10  C   UNL     1       1.450   2.467  18.485  0.00  0.00    +0.000 A 
ATOM     11  C   UNL     1       1.468   3.865  18.523  0.00  0.00    +0.000 A 
ENDBRANCH   2   6
BRANCH   5  12
ATOM     12  N   UNL     1       1.403   9.469  19.002  0.00  0.00    +0.000 N 
ATOM     13  C   UNL     1       2.282  10.277  18.112  0.00  0.00    +0.000 C 
BRANCH  12  14
ATOM     14  C   UNL     1       0.029  10.016  19.187  0.00  0.00    +0.000 C 
ATOM     15  C   UNL     1      -0.504   9.996  20.617  0.00  0.00    +0.000 C 
ATOM     16  C   UNL     1       0.271  10.906  21.564  0.00  0.00    +0.000 C 
ATOM     17  C   UNL     1       0.177  12.356  21.108  0.00  0.00    +0.000 C 
ATOM     18  C   UNL     1       0.617  12.507  19.654  0.00  0.00    +0.000 C 
ATOM     19  C   UNL     1      -0.114  11.515  18.737  0.00  0.00    +0.000 C 
ENDBRANCH  12  14
ENDBRANCH   5  12
BRANCH   1  20
ATOM     20  C   UNL     1       3.634   7.130  17.583  0.00  0.00    +0.000 C 
BRANCH  20  21
ATOM     21  N   UNL     1       4.748   6.130  17.605  0.00  0.00    +0.000 NA
BRANCH  21  22
ATOM     22  C   UNL     1       5.128   5.800  16.211  0.00  0.00    +0.000 C 
BRANCH  22  23
ATOM     23  C   UNL     1       5.232   4.340  15.684  0.00  0.00    +0.000 C 
BRANCH  23  24
ATOM     24  O   UNL     1       4.920   3.491  16.816  0.00  0.00    +0.000 OA
ATOM     25  H   UNL     1       4.882   4.052  17.608  0.00  0.00    +0.000 HD
ENDBRANCH  23  24
BRANCH  23  26
ATOM     26  C   UNL     1       6.584   3.909  15.078  0.00  0.00    +0.000 C 
BRANCH  26  27
ATOM     27  O   UNL     1       6.315   3.239  13.831  0.00  0.00    +0.000 OA
BRANCH  27  28
ATOM     28  C   UNL     1       5.565   4.022  12.904  0.00  0.00    +0.000 C 
BRANCH  28  30
ATOM     29  C   UNL     1       4.020   3.017  11.178  0.00  0.00    +0.000 C 
ATOM     30  C   UNL     1       5.231   3.135  11.742  0.00  0.00    +0.000 C 
ENDBRANCH  28  30
ENDBRANCH  27  28
ENDBRANCH  26  27
ENDBRANCH  23  26
ENDBRANCH  22  23
ENDBRANCH  21  22
BRANCH  21  31
ATOM     31  C   UNL     1       5.894   6.500  18.459  0.00  0.00    +0.000 C 
BRANCH  31  32
ATOM     32  C   UNL     1       7.348   6.087  18.129  0.00  0.00    +0.000 C 
BRANCH  32  33
ATOM     33  O   UNL     1       8.159   7.247  18.385  0.00  0.00    +0.000 OA
ATOM     34  C   UNL     1       7.765   8.405  17.670  0.00  0.00    +0.000 C 
ENDBRANCH  32  33
ENDBRANCH  31  32
ENDBRANCH  21  31
ENDBRANCH  20  21
ENDBRANCH   1  20
TORSDOF 15
ENDMDL
MODEL 4
REMARK VINA RESULT:      -6.9      1.931      5.345
REMARK  Name = 
REMARK  17 active torsions:
REMARK  status: ('A' for Active; 'I' for Inactive)
REMARK    1  A    between atoms: C_2  and  C_3
REMARK    2  A    between atoms: C_3  and  O_4
REMARK    3  A    between atoms: O_4  and  C_5
REMARK    4  A    between atoms: C_5  and  C_6
REMARK    5  A    between atoms: C_6  and  O_7
REMARK    6  A    between atoms: C_6  and  C_8
REMARK    7  A    between atoms: C_8  and  N_9
REMARK    8  A    between atoms: N_9  and  C_10
REMARK    9  A    between atoms: N_9  and  C_14
REMARK   10  A    between atoms: C_10  and  C_11
REMARK   11  A    between atoms: C_11  and  O_12
REMARK   12  A    between atoms: O_12  and  C_13
REMARK   13  A    between atoms: C_14  and  C_15
REMARK   14  A    between atoms: C_16  and  C_17
REMARK   15  A    between atoms: C_25  and  N_26
REMARK   16  A    between atoms: N_26  and  C_27
REMARK   17  A    between atoms: N_26  and  C_28
REMARK                            x       y       z     vdW  Elec       q    Type
REMARK                         _______ _______ _______ _____ _____    ______ ____
ROOT
ATOM      1  C   UNL     1       3.492   5.268  18.313  0.00  0.00    +0.000 A 
ATOM      2  C   UNL     1       2.400   6.208  18.127  0.00  0.00    +0.000 A 
ATOM      3  N   UNL     1       1.405   5.629  17.453  0.00  0.00    +0.000 NA
ATOM      4  O   UNL     1       1.709   4.316  17.390  0.00  0.00    +0.000 OA
ATOM      5  C   UNL     1       2.899   4.015  18.012  0.00  0.00    +0.000 A 
ENDROOT
BRANCH   2   6
ATOM      6  C   UNL     1       2.168   7.572  18.614  0.00  0.00    +0.000 A 
ATOM      7  C   UNL     1       2.192   8.656  17.716  0.00  0.00    +0.000 A 
ATOM      8  C   UNL     1       1.755   9.924  18.106  0.00  0.00    +0.000 A 
ATOM      9  C   UNL     1       1.290  10.128  19.403  0.00  0.00    +0.000 A 
ATOM     10  C   UNL     1       1.269   9.066  20.307  0.00  0.00    +0.000 A 
ATOM     11  C   UNL     1       1.700   7.796  19.915  0.00  0.00    +0.000 A 
ENDBRANCH   2   6
BRANCH   5  12
ATOM     12  N   UNL     1       3.074   2.640  18.151  0.00  0.00    +0.000 N 
ATOM     13  C   UNL     1       4.176   2.069  17.328  0.00  0.00    +0.000 C 
BRANCH  12  14
ATOM     14  C   UNL     1       2.563   1.741  19.225  0.00  0.00    +0.000 C 
ATOM     15  C   UNL     1       3.236   1.888  20.586  0.00  0.00    +0.000 C 
ATOM     16  C   UNL     1       2.990   3.244  21.239  0.00  0.00    +0.000 C 
ATOM     17  C   UNL     1       1.502   3.454  21.488  0.00  0.00    +0.000 C 
ATOM     18  C   UNL     1       0.695   3.262  20.206  0.00  0.00    +0.000 C 
ATOM     19  C   UNL     1       1.032   1.929  19.522  0.00  0.00    +0.000 C 
ENDBRANCH  12  14
ENDBRANCH   5  12
BRANCH   1  20
ATOM     20  C   UNL     1       4.858   5.605  18.851  0.00  0.00    +0.000 C 
BRANCH  20  21
ATOM     21  N   UNL     1       5.958   5.826  17.860  0.00  0.00    +0.000 NA
BRANCH  21  22
ATOM     22  C   UNL     1       5.635   5.099  16.610  0.00  0.00    +0.000 C 
BRANCH  22  23
ATOM     23  C   UNL     1       6.707   4.362  15.756  0.00  0.00    +0.000 C 
BRANCH  23  24
ATOM     24  O   UNL     1       7.807   4.089  16.659  0.00  0.00    +0.000 OA
ATOM     25  H   UNL     1       7.849   4.812  17.306  0.00  0.00    +0.000 HD
ENDBRANCH  23  24
BRANCH  23  26
ATOM     26  C   UNL     1       7.239   5.102  14.511  0.00  0.00    +0.000 C 
BRANCH  26  27
ATOM     27  O   UNL     1       6.440   4.696  13.382  0.00  0.00    +0.000 OA
BRANCH  27  28
ATOM     28  C   UNL     1       6.169   3.296  13.340  0.00  0.00    +0.000 C 
BRANCH  28  30
ATOM     29  C   UNL     1       4.391   3.351  11.547  0.00  0.00    +0.000 C 
ATOM     30  C   UNL     1       5.608   2.994  11.982  0.00  0.00    +0.000 C 
ENDBRANCH  28  30
ENDBRANCH  27  28
ENDBRANCH  26  27
ENDBRANCH  23  26
ENDBRANCH  22  23
ENDBRANCH  21  22
BRANCH  21  31
ATOM     31  C   UNL     1       6.321   7.241  17.645  0.00  0.00    +0.000 C 
BRANCH  31  32
ATOM     32  C   UNL     1       7.782   7.746  17.709  0.00  0.00    +0.000 C 
BRANCH  32  33
ATOM     33  O   UNL     1       7.704   9.182  17.777  0.00  0.00    +0.000 OA
ATOM     34  C   UNL     1       8.776   9.793  18.472  0.00  0.00    +0.000 C 
ENDBRANCH  32  33
ENDBRANCH  31  32
ENDBRANCH  21  31
ENDBRANCH  20  21
ENDBRANCH   1  20
TORSDOF 15
ENDMDL
MODEL 5
REMARK VINA RESULT:      -6.9      1.114      1.892
REMARK  Name = 
REMARK  17 active torsions:
REMARK  status: ('A' for Active; 'I' for Inactive)
REMARK    1  A    between atoms: C_2  and  C_3
REMARK    2  A    between atoms: C_3  and  O_4
REMARK    3  A    between atoms: O_4  and  C_5
REMARK    4  A    between atoms: C_5  and  C_6
REMARK    5  A    between atoms: C_6  and  O_7
REMARK    6  A    between atoms: C_6  and  C_8
REMARK    7  A    between atoms: C_8  and  N_9
REMARK    8  A    between atoms: N_9  and  C_10
REMARK    9  A    between atoms: N_9  and  C_14
REMARK   10  A    between atoms: C_10  and  C_11
REMARK   11  A    between atoms: C_11  and  O_12
REMARK   12  A    between atoms: O_12  and  C_13
REMARK   13  A    between atoms: C_14  and  C_15
REMARK   14  A    between atoms: C_16  and  C_17
REMARK   15  A    between atoms: C_25  and  N_26
REMARK   16  A    between atoms: N_26  and  C_27
REMARK   17  A    between atoms: N_26  and  C_28
REMARK                            x       y       z     vdW  Elec       q    Type
REMARK                         _______ _______ _______ _____ _____    ______ ____
ROOT
ATOM      1  C   UNL     1       2.457   7.135  19.364  0.00  0.00    +0.000 A 
ATOM      2  C   UNL     1       2.024   5.931  20.053  0.00  0.00    +0.000 A 
ATOM      3  N   UNL     1       1.355   6.252  21.161  0.00  0.00    +0.000 NA
ATOM      4  O   UNL     1       1.149   7.584  21.103  0.00  0.00    +0.000 OA
ATOM      5  C   UNL     1       1.679   8.155  19.969  0.00  0.00    +0.000 A 
ENDROOT
BRANCH   2   6
ATOM      6  C   UNL     1       2.098   4.507  19.709  0.00  0.00    +0.000 A 
ATOM      7  C   UNL     1       2.406   3.556  20.700  0.00  0.00    +0.000 A 
ATOM      8  C   UNL     1       2.262   2.189  20.455  0.00  0.00    +0.000 A 
ATOM      9  C   UNL     1       1.809   1.751  19.213  0.00  0.00    +0.000 A 
ATOM     10  C   UNL     1       1.508   2.680  18.218  0.00  0.00    +0.000 A 
ATOM     11  C   UNL     1       1.646   4.049  18.464  0.00  0.00    +0.000 A 
ENDBRANCH   2   6
BRANCH   5  12
ATOM     12  N   UNL     1       1.250   9.470  19.806  0.00  0.00    +0.000 N 
ATOM     13  C   UNL     1       1.216  10.271  21.061  0.00  0.00    +0.000 C 
BRANCH  12  14
ATOM     14  C   UNL     1       1.151  10.269  18.551  0.00  0.00    +0.000 C 
ATOM     15  C   UNL     1       0.019   9.877  17.605  0.00  0.00    +0.000 C 
ATOM     16  C   UNL     1      -1.369  10.127  18.186  0.00  0.00    +0.000 C 
ATOM     17  C   UNL     1      -1.567  11.609  18.477  0.00  0.00    +0.000 C 
ATOM     18  C   UNL     1      -0.449  12.151  19.366  0.00  0.00    +0.000 C 
ATOM     19  C   UNL     1       0.937  11.805  18.804  0.00  0.00    +0.000 C 
ENDBRANCH  12  14
ENDBRANCH   5  12
BRANCH   1  20
ATOM     20  C   UNL     1       3.400   7.183  18.190  0.00  0.00    +0.000 C 
BRANCH  20  21
ATOM     21  N   UNL     1       4.373   6.057  18.035  0.00  0.00    +0.000 NA
BRANCH  21  22
ATOM     22  C   UNL     1       4.753   5.940  16.607  0.00  0.00    +0.000 C 
BRANCH  22  23
ATOM     23  C   UNL     1       5.000   4.575  15.904  0.00  0.00    +0.000 C 
BRANCH  23  24
ATOM     24  O   UNL     1       4.852   3.569  16.938  0.00  0.00    +0.000 OA
ATOM     25  H   UNL     1       5.721   3.164  17.088  0.00  0.00    +0.000 HD
ENDBRANCH  23  24
BRANCH  23  26
ATOM     26  C   UNL     1       6.360   4.386  15.200  0.00  0.00    +0.000 C 
BRANCH  26  27
ATOM     27  O   UNL     1       6.192   3.384  14.178  0.00  0.00    +0.000 OA
BRANCH  27  28
ATOM     28  C   UNL     1       6.452   3.855  12.857  0.00  0.00    +0.000 C 
BRANCH  28  30
ATOM     29  C   UNL     1       4.392   3.221  11.542  0.00  0.00    +0.000 C 
ATOM     30  C   UNL     1       5.660   2.998  11.915  0.00  0.00    +0.000 C 
ENDBRANCH  28  30
ENDBRANCH  27  28
ENDBRANCH  26  27
ENDBRANCH  23  26
ENDBRANCH  22  23
ENDBRANCH  21  22
BRANCH  21  31
ATOM     31  C   UNL     1       5.529   6.108  18.952  0.00  0.00    +0.000 C 
BRANCH  31  32
ATOM     32  C   UNL     1       6.953   5.680  18.525  0.00  0.00    +0.000 C 
BRANCH  32  33
ATOM     33  O   UNL     1       7.776   6.854  18.647  0.00  0.00    +0.000 OA
ATOM     34  C   UNL     1       7.681   7.750  17.555  0.00  0.00    +0.000 C 
ENDBRANCH  32  33
ENDBRANCH  31  32
ENDBRANCH  21  31
ENDBRANCH  20  21
ENDBRANCH   1  20
TORSDOF 15
ENDMDL
MODEL 6
REMARK VINA RESULT:      -6.8      1.593      4.202
REMARK  Name = 
REMARK  17 active torsions:
REMARK  status: ('A' for Active; 'I' for Inactive)
REMARK    1  A    between atoms: C_2  and  C_3
REMARK    2  A    between atoms: C_3  and  O_4
REMARK    3  A    between atoms: O_4  and  C_5
REMARK    4  A    between atoms: C_5  and  C_6
REMARK    5  A    between atoms: C_6  and  O_7
REMARK    6  A    between atoms: C_6  and  C_8
REMARK    7  A    between atoms: C_8  and  N_9
REMARK    8  A    between atoms: N_9  and  C_10
REMARK    9  A    between atoms: N_9  and  C_14
REMARK   10  A    between atoms: C_10  and  C_11
REMARK   11  A    between atoms: C_11  and  O_12
REMARK   12  A    between atoms: O_12  and  C_13
REMARK   13  A    between atoms: C_14  and  C_15
REMARK   14  A    between atoms: C_16  and  C_17
REMARK   15  A    between atoms: C_25  and  N_26
REMARK   16  A    between atoms: N_26  and  C_27
REMARK   17  A    between atoms: N_26  and  C_28
REMARK                            x       y       z     vdW  Elec       q    Type
REMARK                         _______ _______ _______ _____ _____    ______ ____
ROOT
ATOM      1  C   UNL     1       2.740   6.875  18.845  0.00  0.00    +0.000 A 
ATOM      2  C   UNL     1       2.731   5.560  19.463  0.00  0.00    +0.000 A 
ATOM      3  N   UNL     1       2.358   5.656  20.740  0.00  0.00    +0.000 NA
ATOM      4  O   UNL     1       1.920   6.920  20.909  0.00  0.00    +0.000 OA
ATOM      5  C   UNL     1       2.001   7.670  19.759  0.00  0.00    +0.000 A 
ENDROOT
BRANCH   2   6
ATOM      6  C   UNL     1       2.947   4.210  18.932  0.00  0.00    +0.000 A 
ATOM      7  C   UNL     1       3.901   3.363  19.526  0.00  0.00    +0.000 A 
ATOM      8  C   UNL     1       3.969   2.008  19.190  0.00  0.00    +0.000 A 
ATOM      9  C   UNL     1       3.083   1.482  18.253  0.00  0.00    +0.000 A 
ATOM     10  C   UNL     1       2.138   2.311  17.650  0.00  0.00    +0.000 A 
ATOM     11  C   UNL     1       2.067   3.665  17.990  0.00  0.00    +0.000 A 
ENDBRANCH   2   6
BRANCH   5  12
ATOM     12  N   UNL     1       1.325   8.882  19.885  0.00  0.00    +0.000 N 
ATOM     13  C   UNL     1       0.967   9.249  21.283  0.00  0.00    +0.000 C 
BRANCH  12  14
ATOM     14  C   UNL     1       1.215   9.993  18.897  0.00  0.00    +0.000 C 
ATOM     15  C   UNL     1       0.072   9.875  17.893  0.00  0.00    +0.000 C 
ATOM     16  C   UNL     1      -1.308   9.956  18.536  0.00  0.00    +0.000 C 
ATOM     17  C   UNL     1      -1.500  11.301  19.223  0.00  0.00    +0.000 C 
ATOM     18  C   UNL     1      -0.371  11.580  20.213  0.00  0.00    +0.000 C 
ATOM     19  C   UNL     1       1.008  11.402  19.563  0.00  0.00    +0.000 C 
ENDBRANCH  12  14
ENDBRANCH   5  12
BRANCH   1  20
ATOM     20  C   UNL     1       3.290   7.200  17.481  0.00  0.00    +0.000 C 
BRANCH  20  21
ATOM     21  N   UNL     1       4.754   6.988  17.254  0.00  0.00    +0.000 NA
BRANCH  21  22
ATOM     22  C   UNL     1       5.365   6.469  18.502  0.00  0.00    +0.000 C 
BRANCH  22  23
ATOM     23  C   UNL     1       6.811   5.901  18.565  0.00  0.00    +0.000 C 
BRANCH  23  24
ATOM     24  O   UNL     1       6.883   5.148  19.801  0.00  0.00    +0.000 OA
ATOM     25  H   UNL     1       7.775   5.259  20.168  0.00  0.00    +0.000 HD
ENDBRANCH  23  24
BRANCH  23  26
ATOM     26  C   UNL     1       7.967   6.923  18.521  0.00  0.00    +0.000 C 
BRANCH  26  27
ATOM     27  O   UNL     1       7.765   7.767  17.370  0.00  0.00    +0.000 OA
BRANCH  27  28
ATOM     28  C   UNL     1       7.947   9.157  17.634  0.00  0.00    +0.000 C 
BRANCH  28  30
ATOM     29  C   UNL     1       9.330  10.411  19.334  0.00  0.00    +0.000 C 
ATOM     30  C   UNL     1       8.842   9.268  18.833  0.00  0.00    +0.000 C 
ENDBRANCH  28  30
ENDBRANCH  27  28
ENDBRANCH  26  27
ENDBRANCH  23  26
ENDBRANCH  22  23
ENDBRANCH  21  22
BRANCH  21  31
ATOM     31  C   UNL     1       5.086   6.192  16.057  0.00  0.00    +0.000 C 
BRANCH  31  32
ATOM     32  C   UNL     1       4.981   4.648  16.027  0.00  0.00    +0.000 C 
BRANCH  32  33
ATOM     33  O   UNL     1       5.724   4.221  14.870  0.00  0.00    +0.000 OA
ATOM     34  C   UNL     1       7.067   4.669  14.841  0.00  0.00    +0.000 C 
ENDBRANCH  32  33
ENDBRANCH  31  32
ENDBRANCH  21  31
ENDBRANCH  20  21
ENDBRANCH   1  20
TORSDOF 15
ENDMDL
MODEL 7
REMARK VINA RESULT:      -6.7      0.912      1.462
REMARK  Name = 
REMARK  17 active torsions:
REMARK  status: ('A' for Active; 'I' for Inactive)
REMARK    1  A    between atoms: C_2  and  C_3
REMARK    2  A    between atoms: C_3  and  O_4
REMARK    3  A    between atoms: O_4  and  C_5
REMARK    4  A    between atoms: C_5  and  C_6
REMARK    5  A    between atoms: C_6  and  O_7
REMARK    6  A    between atoms: C_6  and  C_8
REMARK    7  A    between atoms: C_8  and  N_9
REMARK    8  A    between atoms: N_9  and  C_10
REMARK    9  A    between atoms: N_9  and  C_14
REMARK   10  A    between atoms: C_10  and  C_11
REMARK   11  A    between atoms: C_11  and  O_12
REMARK   12  A    between atoms: O_12  and  C_13
REMARK   13  A    between atoms: C_14  and  C_15
REMARK   14  A    between atoms: C_16  and  C_17
REMARK   15  A    between atoms: C_25  and  N_26
REMARK   16  A    between atoms: N_26  and  C_27
REMARK   17  A    between atoms: N_26  and  C_28
REMARK                            x       y       z     vdW  Elec       q    Type
REMARK                         _______ _______ _______ _____ _____    ______ ____
ROOT
ATOM      1  C   UNL     1       3.103   6.958  18.772  0.00  0.00    +0.000 A 
ATOM      2  C   UNL     1       2.712   5.676  19.332  0.00  0.00    +0.000 A 
ATOM      3  N   UNL     1       1.870   5.856  20.350  0.00  0.00    +0.000 NA
ATOM      4  O   UNL     1       1.532   7.162  20.331  0.00  0.00    +0.000 OA
ATOM      5  C   UNL     1       2.145   7.855  19.312  0.00  0.00    +0.000 A 
ENDROOT
BRANCH   2   6
ATOM      6  C   UNL     1       2.984   4.291  18.931  0.00  0.00    +0.000 A 
ATOM      7  C   UNL     1       3.766   3.459  19.753  0.00  0.00    +0.000 A 
ATOM      8  C   UNL     1       3.853   2.086  19.513  0.00  0.00    +0.000 A 
ATOM      9  C   UNL     1       3.160   1.524  18.444  0.00  0.00    +0.000 A 
ATOM     10  C   UNL     1       2.387   2.337  17.615  0.00  0.00    +0.000 A 
ATOM     11  C   UNL     1       2.296   3.711  17.858  0.00  0.00    +0.000 A 
ENDBRANCH   2   6
BRANCH   5  12
ATOM     12  N   UNL     1       1.603   9.129  19.157  0.00  0.00    +0.000 N 
ATOM     13  C   UNL     1       1.539   9.608  17.748  0.00  0.00    +0.000 C 
BRANCH  12  14
ATOM     14  C   UNL     1       0.787   9.918  20.123  0.00  0.00    +0.000 C 
ATOM     15  C   UNL     1       1.142  11.398  20.236  0.00  0.00    +0.000 C 
ATOM     16  C   UNL     1       0.869  12.184  18.957  0.00  0.00    +0.000 C 
ATOM     17  C   UNL     1      -0.613  12.139  18.610  0.00  0.00    +0.000 C 
ATOM     18  C   UNL     1      -1.120  10.701  18.537  0.00  0.00    +0.000 C 
ATOM     19  C   UNL     1      -0.750   9.907  19.799  0.00  0.00    +0.000 C 
ENDBRANCH  12  14
ENDBRANCH   5  12
BRANCH   1  20
ATOM     20  C   UNL     1       4.184   7.176  17.746  0.00  0.00    +0.000 C 
BRANCH  20  21
ATOM     21  N   UNL     1       5.068   6.015  17.413  0.00  0.00    +0.000 NA
BRANCH  21  22
ATOM     22  C   UNL     1       5.433   6.083  15.978  0.00  0.00    +0.000 C 
BRANCH  22  23
ATOM     23  C   UNL     1       6.205   4.949  15.245  0.00  0.00    +0.000 C 
BRANCH  23  24
ATOM     24  O   UNL     1       7.465   5.535  14.834  0.00  0.00    +0.000 OA
ATOM     25  H   UNL     1       7.444   6.478  15.061  0.00  0.00    +0.000 HD
ENDBRANCH  23  24
BRANCH  23  26
ATOM     26  C   UNL     1       5.514   4.310  14.022  0.00  0.00    +0.000 C 
BRANCH  26  27
ATOM     27  O   UNL     1       6.437   3.370  13.436  0.00  0.00    +0.000 OA
BRANCH  27  28
ATOM     28  C   UNL     1       6.463   3.398  12.010  0.00  0.00    +0.000 C 
BRANCH  28  30
ATOM     29  C   UNL     1       6.418   1.057  11.064  0.00  0.00    +0.000 C 
ATOM     30  C   UNL     1       5.790   2.147  11.529  0.00  0.00    +0.000 C 
ENDBRANCH  28  30
ENDBRANCH  27  28
ENDBRANCH  26  27
ENDBRANCH  23  26
ENDBRANCH  22  23
ENDBRANCH  21  22
BRANCH  21  31
ATOM     31  C   UNL     1       6.226   5.841  18.311  0.00  0.00    +0.000 C 
BRANCH  31  32
ATOM     32  C   UNL     1       7.556   6.606  18.114  0.00  0.00    +0.000 C 
BRANCH  32  33
ATOM     33  O   UNL     1       7.250   7.722  17.258  0.00  0.00    +0.000 OA
ATOM     34  C   UNL     1       7.916   8.923  17.604  0.00  0.00    +0.000 C 
ENDBRANCH  32  33
ENDBRANCH  31  32
ENDBRANCH  21  31
ENDBRANCH  20  21
ENDBRANCH   1  20
TORSDOF 15
ENDMDL
MODEL 8
REMARK VINA RESULT:      -6.7      1.921      4.698
REMARK  Name = 
REMARK  17 active torsions:
REMARK  status: ('A' for Active; 'I' for Inactive)
REMARK    1  A    between atoms: C_2  and  C_3
REMARK    2  A    between atoms: C_3  and  O_4
REMARK    3  A    between atoms: O_4  and  C_5
REMARK    4  A    between atoms: C_5  and  C_6
REMARK    5  A    between atoms: C_6  and  O_7
REMARK    6  A    between atoms: C_6  and  C_8
REMARK    7  A    between atoms: C_8  and  N_9
REMARK    8  A    between atoms: N_9  and  C_10
REMARK    9  A    between atoms: N_9  and  C_14
REMARK   10  A    between atoms: C_10  and  C_11
REMARK   11  A    between atoms: C_11  and  O_12
REMARK   12  A    between atoms: O_12  and  C_13
REMARK   13  A    between atoms: C_14  and  C_15
REMARK   14  A    between atoms: C_16  and  C_17
REMARK   15  A    between atoms: C_25  and  N_26
REMARK   16  A    between atoms: N_26  and  C_27
REMARK   17  A    between atoms: N_26  and  C_28
REMARK                            x       y       z     vdW  Elec       q    Type
REMARK                         _______ _______ _______ _____ _____    ______ ____
ROOT
ATOM      1  C   UNL     1       3.157   7.029  18.052  0.00  0.00    +0.000 A 
ATOM      2  C   UNL     1       3.082   5.836  18.878  0.00  0.00    +0.000 A 
ATOM      3  N   UNL     1       2.653   6.150  20.101  0.00  0.00    +0.000 NA
ATOM      4  O   UNL     1       2.243   7.434  20.037  0.00  0.00    +0.000 OA
ATOM      5  C   UNL     1       2.400   7.980  18.783  0.00  0.00    +0.000 A 
ENDROOT
BRANCH   2   6
ATOM      6  C   UNL     1       3.284   4.412  18.590  0.00  0.00    +0.000 A 
ATOM      7  C   UNL     1       4.196   3.659  19.353  0.00  0.00    +0.000 A 
ATOM      8  C   UNL     1       4.243   2.267  19.253  0.00  0.00    +0.000 A 
ATOM      9  C   UNL     1       3.378   1.606  18.383  0.00  0.00    +0.000 A 
ATOM     10  C   UNL     1       2.475   2.338  17.614  0.00  0.00    +0.000 A 
ATOM     11  C   UNL     1       2.425   3.732  17.718  0.00  0.00    +0.000 A 
ENDBRANCH   2   6
BRANCH   5  12
ATOM     12  N   UNL     1       1.753   9.209  18.672  0.00  0.00    +0.000 N 
ATOM     13  C   UNL     1       2.428  10.185  17.773  0.00  0.00    +0.000 C 
BRANCH  12  14
ATOM     14  C   UNL     1       0.351   9.559  19.038  0.00  0.00    +0.000 C 
ATOM     15  C   UNL     1      -0.009   9.397  20.512  0.00  0.00    +0.000 C 
ATOM     16  C   UNL     1       0.749  10.352  21.428  0.00  0.00    +0.000 C 
ATOM     17  C   UNL     1       0.422  11.798  21.080  0.00  0.00    +0.000 C 
ATOM     18  C   UNL     1       0.672  12.079  19.600  0.00  0.00    +0.000 C 
ATOM     19  C   UNL     1      -0.028  11.047  18.703  0.00  0.00    +0.000 C 
ENDBRANCH  12  14
ENDBRANCH   5  12
BRANCH   1  20
ATOM     20  C   UNL     1       3.778   7.110  16.682  0.00  0.00    +0.000 C 
BRANCH  20  21
ATOM     21  N   UNL     1       5.192   6.640  16.533  0.00  0.00    +0.000 NA
BRANCH  21  22
ATOM     22  C   UNL     1       5.957   7.020  17.744  0.00  0.00    +0.000 C 
BRANCH  22  23
ATOM     23  C   UNL     1       7.460   7.420  17.708  0.00  0.00    +0.000 C 
BRANCH  23  24
ATOM     24  O   UNL     1       8.066   6.770  18.853  0.00  0.00    +0.000 OA
ATOM     25  H   UNL     1       7.378   6.650  19.527  0.00  0.00    +0.000 HD
ENDBRANCH  23  24
BRANCH  23  26
ATOM     26  C   UNL     1       7.784   8.928  17.743  0.00  0.00    +0.000 C 
BRANCH  26  27
ATOM     27  O   UNL     1       8.753   9.146  18.788  0.00  0.00    +0.000 OA
BRANCH  27  28
ATOM     28  C   UNL     1       9.249  10.482  18.846  0.00  0.00    +0.000 C 
BRANCH  28  30
ATOM     29  C   UNL     1       9.157  11.744  21.031  0.00  0.00    +0.000 C 
ATOM     30  C   UNL     1       9.636  10.750  20.271  0.00  0.00    +0.000 C 
ENDBRANCH  28  30
ENDBRANCH  27  28
ENDBRANCH  26  27
ENDBRANCH  23  26
ENDBRANCH  22  23
ENDBRANCH  21  22
BRANCH  21  31
ATOM     31  C   UNL     1       5.335   5.218  16.164  0.00  0.00    +0.000 C 
BRANCH  31  32
ATOM     32  C   UNL     1       6.606   4.397  16.486  0.00  0.00    +0.000 C 
BRANCH  32  33
ATOM     33  O   UNL     1       7.543   4.685  15.432  0.00  0.00    +0.000 OA
ATOM     34  C   UNL     1       6.964   4.768  14.142  0.00  0.00    +0.000 C 
ENDBRANCH  32  33
ENDBRANCH  31  32
ENDBRANCH  21  31
ENDBRANCH  20  21
ENDBRANCH   1  20
TORSDOF 15
ENDMDL
MODEL 9
REMARK VINA RESULT:      -6.7      0.890      1.098
REMARK  Name = 
REMARK  17 active torsions:
REMARK  status: ('A' for Active; 'I' for Inactive)
REMARK    1  A    between atoms: C_2  and  C_3
REMARK    2  A    between atoms: C_3  and  O_4
REMARK    3  A    between atoms: O_4  and  C_5
REMARK    4  A    between atoms: C_5  and  C_6
REMARK    5  A    between atoms: C_6  and  O_7
REMARK    6  A    between atoms: C_6  and  C_8
REMARK    7  A    between atoms: C_8  and  N_9
REMARK    8  A    between atoms: N_9  and  C_10
REMARK    9  A    between atoms: N_9  and  C_14
REMARK   10  A    between atoms: C_10  and  C_11
REMARK   11  A    between atoms: C_11  and  O_12
REMARK   12  A    between atoms: O_12  and  C_13
REMARK   13  A    between atoms: C_14  and  C_15
REMARK   14  A    between atoms: C_16  and  C_17
REMARK   15  A    between atoms: C_25  and  N_26
REMARK   16  A    between atoms: N_26  and  C_27
REMARK   17  A    between atoms: N_26  and  C_28
REMARK                            x       y       z     vdW  Elec       q    Type
REMARK                         _______ _______ _______ _____ _____    ______ ____
ROOT
ATOM      1  C   UNL     1       2.893   7.016  18.498  0.00  0.00    +0.000 A 
ATOM      2  C   UNL     1       2.642   5.820  19.283  0.00  0.00    +0.000 A 
ATOM      3  N   UNL     1       2.196   6.152  20.495  0.00  0.00    +0.000 NA
ATOM      4  O   UNL     1       1.943   7.476  20.453  0.00  0.00    +0.000 OA
ATOM      5  C   UNL     1       2.219   8.031  19.225  0.00  0.00    +0.000 A 
ENDROOT
BRANCH   2   6
ATOM      6  C   UNL     1       2.689   4.390  18.960  0.00  0.00    +0.000 A 
ATOM      7  C   UNL     1       2.147   3.922  17.749  0.00  0.00    +0.000 A 
ATOM      8  C   UNL     1       2.376   2.615  17.314  0.00  0.00    +0.000 A 
ATOM      9  C   UNL     1       3.151   1.754  18.088  0.00  0.00    +0.000 A 
ATOM     10  C   UNL     1       3.689   2.200  19.294  0.00  0.00    +0.000 A 
ATOM     11  C   UNL     1       3.464   3.510  19.727  0.00  0.00    +0.000 A 
ENDBRANCH   2   6
BRANCH   5  12
ATOM     12  N   UNL     1       1.727   9.331  19.124  0.00  0.00    +0.000 N 
ATOM     13  C   UNL     1       1.807   9.920  17.759  0.00  0.00    +0.000 C 
BRANCH  12  14
ATOM     14  C   UNL     1       0.845  10.068  20.074  0.00  0.00    +0.000 C 
ATOM     15  C   UNL     1       1.007  11.585  20.085  0.00  0.00    +0.000 C 
ATOM     16  C   UNL     1       0.594  12.247  18.774  0.00  0.00    +0.000 C 
ATOM     17  C   UNL     1      -0.879  11.991  18.487  0.00  0.00    +0.000 C 
ATOM     18  C   UNL     1      -1.196  10.497  18.519  0.00  0.00    +0.000 C 
ATOM     19  C   UNL     1      -0.687   9.839  19.810  0.00  0.00    +0.000 C 
ENDBRANCH  12  14
ENDBRANCH   5  12
BRANCH   1  20
ATOM     20  C   UNL     1       3.582   7.059  17.159  0.00  0.00    +0.000 C 
BRANCH  20  21
ATOM     21  N   UNL     1       4.971   6.507  17.076  0.00  0.00    +0.000 NA
BRANCH  21  22
ATOM     22  C   UNL     1       5.053   5.578  15.924  0.00  0.00    +0.000 C 
BRANCH  22  23
ATOM     23  C   UNL     1       5.367   4.062  16.077  0.00  0.00    +0.000 C 
BRANCH  23  24
ATOM     24  O   UNL     1       5.916   3.909  17.410  0.00  0.00    +0.000 OA
ATOM     25  H   UNL     1       5.927   4.784  17.831  0.00  0.00    +0.000 HD
ENDBRANCH  23  24
BRANCH  23  26
ATOM     26  C   UNL     1       6.337   3.441  15.050  0.00  0.00    +0.000 C 
BRANCH  26  27
ATOM     27  O   UNL     1       6.536   4.403  13.994  0.00  0.00    +0.000 OA
BRANCH  27  28
ATOM     28  C   UNL     1       6.408   3.856  12.683  0.00  0.00    +0.000 C 
BRANCH  28  30
ATOM     29  C   UNL     1       4.375   3.206  11.334  0.00  0.00    +0.000 C 
ATOM     30  C   UNL     1       4.973   3.456  12.507  0.00  0.00    +0.000 C 
ENDBRANCH  28  30
ENDBRANCH  27  28
ENDBRANCH  26  27
ENDBRANCH  23  26
ENDBRANCH  22  23
ENDBRANCH  21  22
BRANCH  21  31
ATOM     31  C   UNL     1       6.043   7.522  17.095  0.00  0.00    +0.000 C 
BRANCH  31  32
ATOM     32  C   UNL     1       7.321   7.370  17.953  0.00  0.00    +0.000 C 
BRANCH  32  33
ATOM     33  O   UNL     1       7.437   5.966  18.248  0.00  0.00    +0.000 OA
ATOM     34  C   UNL     1       7.882   5.681  19.562  0.00  0.00    +0.000 C 
ENDBRANCH  32  33
ENDBRANCH  31  32
ENDBRANCH  21  31
ENDBRANCH  20  21
ENDBRANCH   1  20
TORSDOF 15
ENDMDL
