MODEL 1
REMARK VINA RESULT:      -7.7      0.000      0.000
REMARK  Name = 
REMARK  11 active torsions:
REMARK  status: ('A' for Active; 'I' for Inactive)
REMARK    1  A    between atoms: C_1  and  C_2
REMARK    2  A    between atoms: C_6  and  N_7
REMARK    3  A    between atoms: C_9  and  C_10
REMARK    4  A    between atoms: C_10  and  N_11
REMARK    5  A    between atoms: N_11  and  C_12
REMARK    6  A    between atoms: C_13  and  C_15
REMARK    7  A    between atoms: C_15  and  O_16
REMARK    8  A    between atoms: C_15  and  C_17
REMARK    9  A    between atoms: C_17  and  O_18
REMARK   10  A    between atoms: O_18  and  C_19
REMARK   11  A    between atoms: C_24  and  C_25
REMARK                            x       y       z     vdW  Elec       q    Type
REMARK                         _______ _______ _______ _____ _____    ______ ____
ROOT
ATOM      1  N   UNL     1       6.753   4.819  17.832  0.00  0.00    +0.000 N 
ATOM      2  C   UNL     1       7.250   4.599  16.480  0.00  0.00    +0.000 C 
ATOM      3  C   UNL     1       5.604   4.216  18.343  0.00  0.00    +0.000 C 
ATOM      4  O   UNL     1       5.324   4.317  19.540  0.00  0.00    +0.000 OA
ENDROOT
BRANCH   1   5
ATOM      5  C   UNL     1       7.637   5.501  18.774  0.00  0.00    +0.000 C 
BRANCH   5   8
ATOM      6  N   UNL     1       8.522   9.051  18.384  0.00  0.00    +0.000 N 
ATOM      7  C   UNL     1       8.743   7.818  18.960  0.00  0.00    +0.000 A 
ATOM      8  C   UNL     1       7.873   6.917  18.383  0.00  0.00    +0.000 A 
ATOM      9  C   UNL     1       7.214   7.683  17.400  0.00  0.00    +0.000 A 
ATOM     10  N   UNL     1       7.607   8.959  17.384  0.00  0.00    +0.000 NA
BRANCH   6  16
ATOM     11  C   UNL     1       9.573  12.450  21.862  0.00  0.00    +0.000 C 
ATOM     12  C   UNL     1       9.641  11.971  20.441  0.00  0.00    +0.000 A 
ATOM     13  C   UNL     1      10.253  12.758  19.459  0.00  0.00    +0.000 A 
ATOM     14  C   UNL     1      10.319  12.314  18.141  0.00  0.00    +0.000 A 
ATOM     15  C   UNL     1       9.758  11.087  17.784  0.00  0.00    +0.000 A 
ATOM     16  C   UNL     1       9.117  10.294  18.748  0.00  0.00    +0.000 A 
ATOM     17  C   UNL     1       9.073  10.737  20.080  0.00  0.00    +0.000 A 
ENDBRANCH   6  16
ENDBRANCH   5   8
ENDBRANCH   1   5
BRANCH   3  18
ATOM     18  C   UNL     1       4.665   3.433  17.373  0.00  0.00    +0.000 C 
BRANCH  18  19
ATOM     19  O   UNL     1       4.134   2.223  17.920  0.00  0.00    +0.000 OA
ATOM     20  H   UNL     1       4.199   1.540  17.229  0.00  0.00    +0.000 HD
ENDBRANCH  18  19
BRANCH  18  21
ATOM     21  C   UNL     1       3.456   4.308  17.005  0.00  0.00    +0.000 C 
BRANCH  21  22
ATOM     22  O   UNL     1       2.388   4.234  17.949  0.00  0.00    +0.000 OA
BRANCH  22  23
ATOM     23  C   UNL     1       2.202   5.384  18.683  0.00  0.00    +0.000 A 
ATOM     24  C   UNL     1       2.399   6.676  18.170  0.00  0.00    +0.000 A 
ATOM     25  C   UNL     1       2.229   7.800  18.974  0.00  0.00    +0.000 A 
ATOM     26  C   UNL     1       1.831   7.649  20.295  0.00  0.00    +0.000 A 
ATOM     27  C   UNL     1       1.586   6.375  20.806  0.00  0.00    +0.000 A 
ATOM     28  C   UNL     1       1.769   5.232  20.011  0.00  0.00    +0.000 A 
ATOM     29  C   UNL     1       1.463   3.876  20.584  0.00  0.00    +0.000 C 
ENDBRANCH  22  23
ENDBRANCH  21  22
ENDBRANCH  18  21
ENDBRANCH   3  18
TORSDOF 8
ENDMDL
MODEL 2
REMARK VINA RESULT:      -7.4      3.804      6.454
REMARK  Name = 
REMARK  11 active torsions:
REMARK  status: ('A' for Active; 'I' for Inactive)
REMARK    1  A    between atoms: C_1  and  C_2
REMARK    2  A    between atoms: C_6  and  N_7
REMARK    3  A    between atoms: C_9  and  C_10
REMARK    4  A    between atoms: C_10  and  N_11
REMARK    5  A    between atoms: N_11  and  C_12
REMARK    6  A    between atoms: C_13  and  C_15
REMARK    7  A    between atoms: C_15  and  O_16
REMARK    8  A    between atoms: C_15  and  C_17
REMARK    9  A    between atoms: C_17  and  O_18
REMARK   10  A    between atoms: O_18  and  C_19
REMARK   11  A    between atoms: C_24  and  C_25
REMARK                            x       y       z     vdW  Elec       q    Type
REMARK                         _______ _______ _______ _____ _____    ______ ____
ROOT
ATOM      1  N   UNL     1       3.848   5.256  19.057  0.00  0.00    +0.000 N 
ATOM      2  C   UNL     1       3.389   6.115  17.973  0.00  0.00    +0.000 C 
ATOM      3  C   UNL     1       2.992   4.618  19.955  0.00  0.00    +0.000 C 
ATOM      4  O   UNL     1       3.430   3.780  20.747  0.00  0.00    +0.000 OA
ENDROOT
BRANCH   1   5
ATOM      5  C   UNL     1       5.248   4.842  19.044  0.00  0.00    +0.000 C 
BRANCH   5   8
ATOM      6  N   UNL     1       6.615   5.180  15.644  0.00  0.00    +0.000 N 
ATOM      7  C   UNL     1       5.658   4.689  16.507  0.00  0.00    +0.000 A 
ATOM      8  C   UNL     1       5.917   5.196  17.762  0.00  0.00    +0.000 A 
ATOM      9  C   UNL     1       7.010   6.060  17.547  0.00  0.00    +0.000 A 
ATOM     10  N   UNL     1       7.426   6.067  16.278  0.00  0.00    +0.000 NA
BRANCH   6  16
ATOM     11  C   UNL     1       5.394   2.378  11.719  0.00  0.00    +0.000 C 
ATOM     12  C   UNL     1       6.215   3.471  12.339  0.00  0.00    +0.000 A 
ATOM     13  C   UNL     1       7.194   4.131  11.588  0.00  0.00    +0.000 A 
ATOM     14  C   UNL     1       7.955   5.147  12.160  0.00  0.00    +0.000 A 
ATOM     15  C   UNL     1       7.760   5.503  13.495  0.00  0.00    +0.000 A 
ATOM     16  C   UNL     1       6.801   4.837  14.274  0.00  0.00    +0.000 A 
ATOM     17  C   UNL     1       6.022   3.828  13.684  0.00  0.00    +0.000 A 
ENDBRANCH   6  16
ENDBRANCH   5   8
ENDBRANCH   1   5
BRANCH   3  18
ATOM     18  C   UNL     1       1.479   4.998  19.959  0.00  0.00    +0.000 C 
BRANCH  18  19
ATOM     19  O   UNL     1       0.612   3.951  20.406  0.00  0.00    +0.000 OA
ATOM     20  H   UNL     1       0.840   3.763  21.334  0.00  0.00    +0.000 HD
ENDBRANCH  18  19
BRANCH  18  21
ATOM     21  C   UNL     1       1.245   6.186  20.905  0.00  0.00    +0.000 C 
BRANCH  21  22
ATOM     22  O   UNL     1       1.887   7.388  20.483  0.00  0.00    +0.000 OA
BRANCH  22  23
ATOM     23  C   UNL     1       1.198   8.538  20.800  0.00  0.00    +0.000 A 
ATOM     24  C   UNL     1       0.778   8.860  22.099  0.00  0.00    +0.000 A 
ATOM     25  C   UNL     1       0.052  10.023  22.350  0.00  0.00    +0.000 A 
ATOM     26  C   UNL     1      -0.237  10.894  21.308  0.00  0.00    +0.000 A 
ATOM     27  C   UNL     1       0.216  10.611  20.020  0.00  0.00    +0.000 A 
ATOM     28  C   UNL     1       0.934   9.434  19.751  0.00  0.00    +0.000 A 
ATOM     29  C   UNL     1       1.434   9.177  18.356  0.00  0.00    +0.000 C 
ENDBRANCH  22  23
ENDBRANCH  21  22
ENDBRANCH  18  21
ENDBRANCH   3  18
TORSDOF 8
ENDMDL
MODEL 3
REMARK VINA RESULT:      -7.4      1.036      1.750
REMARK  Name = 
REMARK  11 active torsions:
REMARK  status: ('A' for Active; 'I' for Inactive)
REMARK    1  A    between atoms: C_1  and  C_2
REMARK    2  A    between atoms: C_6  and  N_7
REMARK    3  A    between atoms: C_9  and  C_10
REMARK    4  A    between atoms: C_10  and  N_11
REMARK    5  A    between atoms: N_11  and  C_12
REMARK    6  A    between atoms: C_13  and  C_15
REMARK    7  A    between atoms: C_15  and  O_16
REMARK    8  A    between atoms: C_15  and  C_17
REMARK    9  A    between atoms: C_17  and  O_18
REMARK   10  A    between atoms: O_18  and  C_19
REMARK   11  A    between atoms: C_24  and  C_25
REMARK                            x       y       z     vdW  Elec       q    Type
REMARK                         _______ _______ _______ _____ _____    ______ ____
ROOT
ATOM      1  N   UNL     1       6.775   5.382  17.500  0.00  0.00    +0.000 N 
ATOM      2  C   UNL     1       7.139   5.726  16.131  0.00  0.00    +0.000 C 
ATOM      3  C   UNL     1       5.855   4.387  17.830  0.00  0.00    +0.000 C 
ATOM      4  O   UNL     1       5.709   4.035  19.003  0.00  0.00    +0.000 OA
ENDROOT
BRANCH   1   5
ATOM      5  C   UNL     1       7.599   5.928  18.574  0.00  0.00    +0.000 C 
BRANCH   5   8
ATOM      6  N   UNL     1       8.732   9.429  18.573  0.00  0.00    +0.000 N 
ATOM      7  C   UNL     1       8.888   8.119  18.978  0.00  0.00    +0.000 A 
ATOM      8  C   UNL     1       7.923   7.363  18.348  0.00  0.00    +0.000 A 
ATOM      9  C   UNL     1       7.274   8.291  17.510  0.00  0.00    +0.000 A 
ATOM     10  N   UNL     1       7.762   9.529  17.627  0.00  0.00    +0.000 NA
BRANCH   6  16
ATOM     11  C   UNL     1      11.661  13.349  17.673  0.00  0.00    +0.000 C 
ATOM     12  C   UNL     1      10.875  12.497  18.627  0.00  0.00    +0.000 A 
ATOM     13  C   UNL     1      10.863  12.794  19.995  0.00  0.00    +0.000 A 
ATOM     14  C   UNL     1      10.133  12.007  20.881  0.00  0.00    +0.000 A 
ATOM     15  C   UNL     1       9.421  10.902  20.414  0.00  0.00    +0.000 A 
ATOM     16  C   UNL     1       9.439  10.570  19.051  0.00  0.00    +0.000 A 
ATOM     17  C   UNL     1      10.160  11.381  18.160  0.00  0.00    +0.000 A 
ENDBRANCH   6  16
ENDBRANCH   5   8
ENDBRANCH   1   5
BRANCH   3  18
ATOM     18  C   UNL     1       4.996   3.744  16.697  0.00  0.00    +0.000 C 
BRANCH  18  19
ATOM     19  O   UNL     1       5.698   2.784  15.901  0.00  0.00    +0.000 OA
ATOM     20  H   UNL     1       6.475   2.498  16.411  0.00  0.00    +0.000 HD
ENDBRANCH  18  19
BRANCH  18  21
ATOM     21  C   UNL     1       3.799   3.002  17.313  0.00  0.00    +0.000 C 
BRANCH  21  22
ATOM     22  O   UNL     1       2.570   3.721  17.217  0.00  0.00    +0.000 OA
BRANCH  22  23
ATOM     23  C   UNL     1       2.219   4.394  18.366  0.00  0.00    +0.000 A 
ATOM     24  C   UNL     1       2.630   5.703  18.658  0.00  0.00    +0.000 A 
ATOM     25  C   UNL     1       2.270   6.318  19.855  0.00  0.00    +0.000 A 
ATOM     26  C   UNL     1       1.469   5.641  20.764  0.00  0.00    +0.000 A 
ATOM     27  C   UNL     1       1.013   4.356  20.468  0.00  0.00    +0.000 A 
ATOM     28  C   UNL     1       1.382   3.719  19.271  0.00  0.00    +0.000 A 
ATOM     29  C   UNL     1       0.846   2.347  18.970  0.00  0.00    +0.000 C 
ENDBRANCH  22  23
ENDBRANCH  21  22
ENDBRANCH  18  21
ENDBRANCH   3  18
TORSDOF 8
ENDMDL
MODEL 4
REMARK VINA RESULT:      -7.2      4.056      7.653
REMARK  Name = 
REMARK  11 active torsions:
REMARK  status: ('A' for Active; 'I' for Inactive)
REMARK    1  A    between atoms: C_1  and  C_2
REMARK    2  A    between atoms: C_6  and  N_7
REMARK    3  A    between atoms: C_9  and  C_10
REMARK    4  A    between atoms: C_10  and  N_11
REMARK    5  A    between atoms: N_11  and  C_12
REMARK    6  A    between atoms: C_13  and  C_15
REMARK    7  A    between atoms: C_15  and  O_16
REMARK    8  A    between atoms: C_15  and  C_17
REMARK    9  A    between atoms: C_17  and  O_18
REMARK   10  A    between atoms: O_18  and  C_19
REMARK   11  A    between atoms: C_24  and  C_25
REMARK                            x       y       z     vdW  Elec       q    Type
REMARK                         _______ _______ _______ _____ _____    ______ ____
ROOT
ATOM      1  N   UNL     1       4.723   6.024  17.431  0.00  0.00    +0.000 N 
ATOM      2  C   UNL     1       4.226   4.662  17.281  0.00  0.00    +0.000 C 
ATOM      3  C   UNL     1       6.076   6.347  17.536  0.00  0.00    +0.000 C 
ATOM      4  O   UNL     1       6.442   7.525  17.501  0.00  0.00    +0.000 OA
ENDROOT
BRANCH   1   5
ATOM      5  C   UNL     1       3.781   7.116  17.204  0.00  0.00    +0.000 C 
BRANCH   5   8
ATOM      6  N   UNL     1       1.558   8.257  19.906  0.00  0.00    +0.000 N 
ATOM      7  C   UNL     1       2.090   8.419  18.644  0.00  0.00    +0.000 A 
ATOM      8  C   UNL     1       2.886   7.326  18.375  0.00  0.00    +0.000 A 
ATOM      9  C   UNL     1       2.710   6.506  19.508  0.00  0.00    +0.000 A 
ATOM     10  N   UNL     1       1.904   7.050  20.424  0.00  0.00    +0.000 NA
BRANCH   6  16
ATOM     11  C   UNL     1      -0.928  12.563  20.079  0.00  0.00    +0.000 C 
ATOM     12  C   UNL     1      -0.458  11.298  20.738  0.00  0.00    +0.000 A 
ATOM     13  C   UNL     1      -0.761  11.047  22.080  0.00  0.00    +0.000 A 
ATOM     14  C   UNL     1      -0.328   9.873  22.692  0.00  0.00    +0.000 A 
ATOM     15  C   UNL     1       0.428   8.946  21.975  0.00  0.00    +0.000 A 
ATOM     16  C   UNL     1       0.766   9.190  20.635  0.00  0.00    +0.000 A 
ATOM     17  C   UNL     1       0.307  10.365  20.018  0.00  0.00    +0.000 A 
ENDBRANCH   6  16
ENDBRANCH   5   8
ENDBRANCH   1   5
BRANCH   3  18
ATOM     18  C   UNL     1       7.116   5.200  17.726  0.00  0.00    +0.000 C 
BRANCH  18  19
ATOM     19  O   UNL     1       6.691   4.161  18.613  0.00  0.00    +0.000 OA
ATOM     20  H   UNL     1       5.953   4.515  19.140  0.00  0.00    +0.000 HD
ENDBRANCH  18  19
BRANCH  18  21
ATOM     21  C   UNL     1       7.395   4.525  16.373  0.00  0.00    +0.000 C 
BRANCH  21  22
ATOM     22  O   UNL     1       7.228   5.396  15.255  0.00  0.00    +0.000 OA
BRANCH  22  23
ATOM     23  C   UNL     1       6.832   4.760  14.098  0.00  0.00    +0.000 A 
ATOM     24  C   UNL     1       5.696   3.942  14.010  0.00  0.00    +0.000 A 
ATOM     25  C   UNL     1       5.368   3.297  12.819  0.00  0.00    +0.000 A 
ATOM     26  C   UNL     1       6.156   3.487  11.693  0.00  0.00    +0.000 A 
ATOM     27  C   UNL     1       7.262   4.335  11.752  0.00  0.00    +0.000 A 
ATOM     28  C   UNL     1       7.613   4.978  12.951  0.00  0.00    +0.000 A 
ATOM     29  C   UNL     1       8.792   5.911  12.970  0.00  0.00    +0.000 C 
ENDBRANCH  22  23
ENDBRANCH  21  22
ENDBRANCH  18  21
ENDBRANCH   3  18
TORSDOF 8
ENDMDL
MODEL 5
REMARK VINA RESULT:      -7.2      1.441      2.593
REMARK  Name = 
REMARK  11 active torsions:
REMARK  status: ('A' for Active; 'I' for Inactive)
REMARK    1  A    between atoms: C_1  and  C_2
REMARK    2  A    between atoms: C_6  and  N_7
REMARK    3  A    between atoms: C_9  and  C_10
REMARK    4  A    between atoms: C_10  and  N_11
REMARK    5  A    between atoms: N_11  and  C_12
REMARK    6  A    between atoms: C_13  and  C_15
REMARK    7  A    between atoms: C_15  and  O_16
REMARK    8  A    between atoms: C_15  and  C_17
REMARK    9  A    between atoms: C_17  and  O_18
REMARK   10  A    between atoms: O_18  and  C_19
REMARK   11  A    between atoms: C_24  and  C_25
REMARK                            x       y       z     vdW  Elec       q    Type
REMARK                         _______ _______ _______ _____ _____    ______ ____
ROOT
ATOM      1  N   UNL     1       6.552   5.306  18.206  0.00  0.00    +0.000 N 
ATOM      2  C   UNL     1       5.303   5.780  18.789  0.00  0.00    +0.000 C 
ATOM      3  C   UNL     1       6.633   4.649  16.979  0.00  0.00    +0.000 C 
ATOM      4  O   UNL     1       7.730   4.415  16.467  0.00  0.00    +0.000 OA
ENDROOT
BRANCH   1   5
ATOM      5  C   UNL     1       7.797   5.765  18.814  0.00  0.00    +0.000 C 
BRANCH   5   8
ATOM      6  N   UNL     1       8.694   9.327  18.585  0.00  0.00    +0.000 N 
ATOM      7  C   UNL     1       8.807   8.101  19.206  0.00  0.00    +0.000 A 
ATOM      8  C   UNL     1       8.091   7.183  18.468  0.00  0.00    +0.000 A 
ATOM      9  C   UNL     1       7.643   7.931  17.361  0.00  0.00    +0.000 A 
ATOM     10  N   UNL     1       8.012   9.214  17.416  0.00  0.00    +0.000 NA
BRANCH   6  16
ATOM     11  C   UNL     1       9.853  14.083  17.698  0.00  0.00    +0.000 C 
ATOM     12  C   UNL     1       9.755  12.915  18.636  0.00  0.00    +0.000 A 
ATOM     13  C   UNL     1      10.177  13.040  19.965  0.00  0.00    +0.000 A 
ATOM     14  C   UNL     1      10.085  11.959  20.837  0.00  0.00    +0.000 A 
ATOM     15  C   UNL     1       9.587  10.735  20.388  0.00  0.00    +0.000 A 
ATOM     16  C   UNL     1       9.181  10.580  19.054  0.00  0.00    +0.000 A 
ATOM     17  C   UNL     1       9.257  11.681  18.185  0.00  0.00    +0.000 A 
ENDBRANCH   6  16
ENDBRANCH   5   8
ENDBRANCH   1   5
BRANCH   3  18
ATOM     18  C   UNL     1       5.317   4.192  16.276  0.00  0.00    +0.000 C 
BRANCH  18  19
ATOM     19  O   UNL     1       5.521   3.504  15.037  0.00  0.00    +0.000 OA
ATOM     20  H   UNL     1       5.812   2.600  15.252  0.00  0.00    +0.000 HD
ENDBRANCH  18  19
BRANCH  18  21
ATOM     21  C   UNL     1       4.553   3.219  17.188  0.00  0.00    +0.000 C 
BRANCH  21  22
ATOM     22  O   UNL     1       3.135   3.357  17.109  0.00  0.00    +0.000 OA
BRANCH  22  23
ATOM     23  C   UNL     1       2.494   3.315  18.328  0.00  0.00    +0.000 A 
ATOM     24  C   UNL     1       2.460   2.179  19.151  0.00  0.00    +0.000 A 
ATOM     25  C   UNL     1       1.765   2.188  20.358  0.00  0.00    +0.000 A 
ATOM     26  C   UNL     1       1.117   3.344  20.771  0.00  0.00    +0.000 A 
ATOM     27  C   UNL     1       1.181   4.495  19.987  0.00  0.00    +0.000 A 
ATOM     28  C   UNL     1       1.865   4.494  18.760  0.00  0.00    +0.000 A 
ATOM     29  C   UNL     1       1.941   5.763  17.956  0.00  0.00    +0.000 C 
ENDBRANCH  22  23
ENDBRANCH  21  22
ENDBRANCH  18  21
ENDBRANCH   3  18
TORSDOF 8
ENDMDL
MODEL 6
REMARK VINA RESULT:      -7.2      3.430      6.451
REMARK  Name = 
REMARK  11 active torsions:
REMARK  status: ('A' for Active; 'I' for Inactive)
REMARK    1  A    between atoms: C_1  and  C_2
REMARK    2  A    between atoms: C_6  and  N_7
REMARK    3  A    between atoms: C_9  and  C_10
REMARK    4  A    between atoms: C_10  and  N_11
REMARK    5  A    between atoms: N_11  and  C_12
REMARK    6  A    between atoms: C_13  and  C_15
REMARK    7  A    between atoms: C_15  and  O_16
REMARK    8  A    between atoms: C_15  and  C_17
REMARK    9  A    between atoms: C_17  and  O_18
REMARK   10  A    between atoms: O_18  and  C_19
REMARK   11  A    between atoms: C_24  and  C_25
REMARK                            x       y       z     vdW  Elec       q    Type
REMARK                         _______ _______ _______ _____ _____    ______ ____
ROOT
ATOM      1  N   UNL     1       3.359   5.256  19.208  0.00  0.00    +0.000 N 
ATOM      2  C   UNL     1       4.684   5.436  19.789  0.00  0.00    +0.000 C 
ATOM      3  C   UNL     1       3.032   4.218  18.336  0.00  0.00    +0.000 C 
ATOM      4  O   UNL     1       1.859   4.027  18.004  0.00  0.00    +0.000 OA
ENDROOT
BRANCH   1   5
ATOM      5  C   UNL     1       2.265   6.047  19.763  0.00  0.00    +0.000 C 
BRANCH   5   8
ATOM      6  N   UNL     1       1.562   9.471  18.613  0.00  0.00    +0.000 N 
ATOM      7  C   UNL     1       1.518   8.505  19.596  0.00  0.00    +0.000 A 
ATOM      8  C   UNL     1       2.174   7.388  19.124  0.00  0.00    +0.000 A 
ATOM      9  C   UNL     1       2.658   7.801  17.866  0.00  0.00    +0.000 A 
ATOM     10  N   UNL     1       2.308   9.052  17.558  0.00  0.00    +0.000 NA
BRANCH   6  16
ATOM     11  C   UNL     1       1.882  14.436  18.685  0.00  0.00    +0.000 C 
ATOM     12  C   UNL     1       1.060  13.180  18.659  0.00  0.00    +0.000 A 
ATOM     13  C   UNL     1      -0.337  13.250  18.685  0.00  0.00    +0.000 A 
ATOM     14  C   UNL     1      -1.101  12.087  18.658  0.00  0.00    +0.000 A 
ATOM     15  C   UNL     1      -0.479  10.838  18.624  0.00  0.00    +0.000 A 
ATOM     16  C   UNL     1       0.921  10.744  18.624  0.00  0.00    +0.000 A 
ATOM     17  C   UNL     1       1.686  11.922  18.629  0.00  0.00    +0.000 A 
ENDBRANCH   6  16
ENDBRANCH   5   8
ENDBRANCH   1   5
BRANCH   3  18
ATOM     18  C   UNL     1       4.172   3.319  17.766  0.00  0.00    +0.000 C 
BRANCH  18  19
ATOM     19  O   UNL     1       3.845   1.927  17.700  0.00  0.00    +0.000 OA
ATOM     20  H   UNL     1       2.893   1.844  17.886  0.00  0.00    +0.000 HD
ENDBRANCH  18  19
BRANCH  18  21
ATOM     21  C   UNL     1       4.507   3.753  16.331  0.00  0.00    +0.000 C 
BRANCH  21  22
ATOM     22  O   UNL     1       5.907   3.856  16.076  0.00  0.00    +0.000 OA
BRANCH  22  23
ATOM     23  C   UNL     1       6.545   4.829  16.814  0.00  0.00    +0.000 A 
ATOM     24  C   UNL     1       7.513   4.554  17.792  0.00  0.00    +0.000 A 
ATOM     25  C   UNL     1       8.097   5.581  18.530  0.00  0.00    +0.000 A 
ATOM     26  C   UNL     1       7.742   6.899  18.279  0.00  0.00    +0.000 A 
ATOM     27  C   UNL     1       6.817   7.191  17.278  0.00  0.00    +0.000 A 
ATOM     28  C   UNL     1       6.208   6.164  16.537  0.00  0.00    +0.000 A 
ATOM     29  C   UNL     1       5.240   6.518  15.443  0.00  0.00    +0.000 C 
ENDBRANCH  22  23
ENDBRANCH  21  22
ENDBRANCH  18  21
ENDBRANCH   3  18
TORSDOF 8
ENDMDL
MODEL 7
REMARK VINA RESULT:      -7.2      4.429      6.400
REMARK  Name = 
REMARK  11 active torsions:
REMARK  status: ('A' for Active; 'I' for Inactive)
REMARK    1  A    between atoms: C_1  and  C_2
REMARK    2  A    between atoms: C_6  and  N_7
REMARK    3  A    between atoms: C_9  and  C_10
REMARK    4  A    between atoms: C_10  and  N_11
REMARK    5  A    between atoms: N_11  and  C_12
REMARK    6  A    between atoms: C_13  and  C_15
REMARK    7  A    between atoms: C_15  and  O_16
REMARK    8  A    between atoms: C_15  and  C_17
REMARK    9  A    between atoms: C_17  and  O_18
REMARK   10  A    between atoms: O_18  and  C_19
REMARK   11  A    between atoms: C_24  and  C_25
REMARK                            x       y       z     vdW  Elec       q    Type
REMARK                         _______ _______ _______ _____ _____    ______ ____
ROOT
ATOM      1  N   UNL     1       3.936   6.189  17.539  0.00  0.00    +0.000 N 
ATOM      2  C   UNL     1       2.886   5.183  17.448  0.00  0.00    +0.000 C 
ATOM      3  C   UNL     1       5.279   5.888  17.769  0.00  0.00    +0.000 C 
ATOM      4  O   UNL     1       6.140   6.766  17.678  0.00  0.00    +0.000 OA
ENDROOT
BRANCH   1   5
ATOM      5  C   UNL     1       3.608   7.548  17.119  0.00  0.00    +0.000 C 
BRANCH   5   8
ATOM      6  N   UNL     1       1.227   9.641  18.987  0.00  0.00    +0.000 N 
ATOM      7  C   UNL     1       1.908   9.348  17.825  0.00  0.00    +0.000 A 
ATOM      8  C   UNL     1       2.616   8.183  18.029  0.00  0.00    +0.000 A 
ATOM      9  C   UNL     1       2.235   7.792  19.329  0.00  0.00    +0.000 A 
ATOM     10  N   UNL     1       1.391   8.653  19.905  0.00  0.00    +0.000 NA
BRANCH   6  16
ATOM     11  C   UNL     1       0.742  14.592  18.886  0.00  0.00    +0.000 C 
ATOM     12  C   UNL     1       0.202  13.233  19.225  0.00  0.00    +0.000 A 
ATOM     13  C   UNL     1      -1.044  13.104  19.851  0.00  0.00    +0.000 A 
ATOM     14  C   UNL     1      -1.548  11.845  20.163  0.00  0.00    +0.000 A 
ATOM     15  C   UNL     1      -0.806  10.699  19.870  0.00  0.00    +0.000 A 
ATOM     16  C   UNL     1       0.456  10.806  19.266  0.00  0.00    +0.000 A 
ATOM     17  C   UNL     1       0.949  12.078  18.934  0.00  0.00    +0.000 A 
ENDBRANCH   6  16
ENDBRANCH   5   8
ENDBRANCH   1   5
BRANCH   3  18
ATOM     18  C   UNL     1       5.671   4.432  18.167  0.00  0.00    +0.000 C 
BRANCH  18  19
ATOM     19  O   UNL     1       7.040   4.102  17.913  0.00  0.00    +0.000 OA
ATOM     20  H   UNL     1       7.157   3.161  18.134  0.00  0.00    +0.000 HD
ENDBRANCH  18  19
BRANCH  18  21
ATOM     21  C   UNL     1       5.451   4.229  19.675  0.00  0.00    +0.000 C 
BRANCH  21  22
ATOM     22  O   UNL     1       4.842   2.981  20.001  0.00  0.00    +0.000 OA
BRANCH  22  23
ATOM     23  C   UNL     1       3.465   3.007  19.999  0.00  0.00    +0.000 A 
ATOM     24  C   UNL     1       2.700   3.839  20.830  0.00  0.00    +0.000 A 
ATOM     25  C   UNL     1       1.308   3.793  20.806  0.00  0.00    +0.000 A 
ATOM     26  C   UNL     1       0.662   2.934  19.928  0.00  0.00    +0.000 A 
ATOM     27  C   UNL     1       1.407   2.134  19.062  0.00  0.00    +0.000 A 
ATOM     28  C   UNL     1       2.811   2.159  19.088  0.00  0.00    +0.000 A 
ATOM     29  C   UNL     1       3.583   1.308  18.118  0.00  0.00    +0.000 C 
ENDBRANCH  22  23
ENDBRANCH  21  22
ENDBRANCH  18  21
ENDBRANCH   3  18
TORSDOF 8
ENDMDL
MODEL 8
REMARK VINA RESULT:      -7.2      6.226     10.126
REMARK  Name = 
REMARK  11 active torsions:
REMARK  status: ('A' for Active; 'I' for Inactive)
REMARK    1  A    between atoms: C_1  and  C_2
REMARK    2  A    between atoms: C_6  and  N_7
REMARK    3  A    between atoms: C_9  and  C_10
REMARK    4  A    between atoms: C_10  and  N_11
REMARK    5  A    between atoms: N_11  and  C_12
REMARK    6  A    between atoms: C_13  and  C_15
REMARK    7  A    between atoms: C_15  and  O_16
REMARK    8  A    between atoms: C_15  and  C_17
REMARK    9  A    between atoms: C_17  and  O_18
REMARK   10  A    between atoms: O_18  and  C_19
REMARK   11  A    between atoms: C_24  and  C_25
REMARK                            x       y       z     vdW  Elec       q    Type
REMARK                         _______ _______ _______ _____ _____    ______ ____
ROOT
ATOM      1  N   UNL     1       0.770  10.344  19.769  0.00  0.00    +0.000 N 
ATOM      2  C   UNL     1       0.343  10.620  21.135  0.00  0.00    +0.000 C 
ATOM      3  C   UNL     1       1.319   9.128  19.361  0.00  0.00    +0.000 C 
ATOM      4  O   UNL     1       1.512   8.900  18.164  0.00  0.00    +0.000 OA
ENDROOT
BRANCH   1   5
ATOM      5  C   UNL     1       0.369  11.289  18.731  0.00  0.00    +0.000 C 
BRANCH   5   8
ATOM      6  N   UNL     1      -3.291  11.293  18.347  0.00  0.00    +0.000 N 
ATOM      7  C   UNL     1      -2.135  11.881  18.817  0.00  0.00    +0.000 A 
ATOM      8  C   UNL     1      -1.066  11.135  18.368  0.00  0.00    +0.000 A 
ATOM      9  C   UNL     1      -1.669  10.154  17.556  0.00  0.00    +0.000 A 
ATOM     10  N   UNL     1      -3.001  10.250  17.526  0.00  0.00    +0.000 NA
BRANCH   6  16
ATOM     11  C   UNL     1      -6.534  13.602  21.330  0.00  0.00    +0.000 C 
ATOM     12  C   UNL     1      -6.237  12.788  20.104  0.00  0.00    +0.000 A 
ATOM     13  C   UNL     1      -7.278  12.354  19.276  0.00  0.00    +0.000 A 
ATOM     14  C   UNL     1      -7.005  11.601  18.137  0.00  0.00    +0.000 A 
ATOM     15  C   UNL     1      -5.690  11.258  17.822  0.00  0.00    +0.000 A 
ATOM     16  C   UNL     1      -4.633  11.661  18.652  0.00  0.00    +0.000 A 
ATOM     17  C   UNL     1      -4.913  12.439  19.787  0.00  0.00    +0.000 A 
ENDBRANCH   6  16
ENDBRANCH   5   8
ENDBRANCH   1   5
BRANCH   3  18
ATOM     18  C   UNL     1       1.709   8.073  20.441  0.00  0.00    +0.000 C 
BRANCH  18  19
ATOM     19  O   UNL     1       0.600   7.547  21.176  0.00  0.00    +0.000 OA
ATOM     20  H   UNL     1       0.179   8.293  21.638  0.00  0.00    +0.000 HD
ENDBRANCH  18  19
BRANCH  18  21
ATOM     21  C   UNL     1       2.390   6.870  19.769  0.00  0.00    +0.000 C 
BRANCH  21  22
ATOM     22  O   UNL     1       2.026   5.614  20.340  0.00  0.00    +0.000 OA
BRANCH  22  23
ATOM     23  C   UNL     1       2.133   4.548  19.474  0.00  0.00    +0.000 A 
ATOM     24  C   UNL     1       2.516   4.671  18.130  0.00  0.00    +0.000 A 
ATOM     25  C   UNL     1       2.571   3.557  17.295  0.00  0.00    +0.000 A 
ATOM     26  C   UNL     1       2.271   2.300  17.801  0.00  0.00    +0.000 A 
ATOM     27  C   UNL     1       1.935   2.155  19.147  0.00  0.00    +0.000 A 
ATOM     28  C   UNL     1       1.859   3.272  19.995  0.00  0.00    +0.000 A 
ATOM     29  C   UNL     1       1.525   3.074  21.448  0.00  0.00    +0.000 C 
ENDBRANCH  22  23
ENDBRANCH  21  22
ENDBRANCH  18  21
ENDBRANCH   3  18
TORSDOF 8
ENDMDL
MODEL 9
REMARK VINA RESULT:      -7.0      3.631      6.815
REMARK  Name = 
REMARK  11 active torsions:
REMARK  status: ('A' for Active; 'I' for Inactive)
REMARK    1  A    between atoms: C_1  and  C_2
REMARK    2  A    between atoms: C_6  and  N_7
REMARK    3  A    between atoms: C_9  and  C_10
REMARK    4  A    between atoms: C_10  and  N_11
REMARK    5  A    between atoms: N_11  and  C_12
REMARK    6  A    between atoms: C_13  and  C_15
REMARK    7  A    between atoms: C_15  and  O_16
REMARK    8  A    between atoms: C_15  and  C_17
REMARK    9  A    between atoms: C_17  and  O_18
REMARK   10  A    between atoms: O_18  and  C_19
REMARK   11  A    between atoms: C_24  and  C_25
REMARK                            x       y       z     vdW  Elec       q    Type
REMARK                         _______ _______ _______ _____ _____    ______ ____
ROOT
ATOM      1  N   UNL     1       2.248   3.816  19.971  0.00  0.00    +0.000 N 
ATOM      2  C   UNL     1       3.287   3.313  20.860  0.00  0.00    +0.000 C 
ATOM      3  C   UNL     1       2.116   3.427  18.638  0.00  0.00    +0.000 C 
ATOM      4  O   UNL     1       1.126   3.765  17.984  0.00  0.00    +0.000 OA
ENDROOT
BRANCH   1   5
ATOM      5  C   UNL     1       1.148   4.564  20.572  0.00  0.00    +0.000 C 
BRANCH   5   8
ATOM      6  N   UNL     1       1.146   8.240  20.728  0.00  0.00    +0.000 N 
ATOM      7  C   UNL     1       0.711   7.021  21.203  0.00  0.00    +0.000 A 
ATOM      8  C   UNL     1       1.381   6.032  20.514  0.00  0.00    +0.000 A 
ATOM      9  C   UNL     1       2.272   6.752  19.693  0.00  0.00    +0.000 A 
ATOM     10  N   UNL     1       2.148   8.076  19.825  0.00  0.00    +0.000 NA
BRANCH   6  16
ATOM     11  C   UNL     1       0.701  13.086  19.694  0.00  0.00    +0.000 C 
ATOM     12  C   UNL     1       0.421  11.909  20.582  0.00  0.00    +0.000 A 
ATOM     13  C   UNL     1      -0.294  12.077  21.774  0.00  0.00    +0.000 A 
ATOM     14  C   UNL     1      -0.555  10.986  22.598  0.00  0.00    +0.000 A 
ATOM     15  C   UNL     1      -0.091   9.717  22.251  0.00  0.00    +0.000 A 
ATOM     16  C   UNL     1       0.650   9.530  21.074  0.00  0.00    +0.000 A 
ATOM     17  C   UNL     1       0.892  10.631  20.236  0.00  0.00    +0.000 A 
ENDBRANCH   6  16
ENDBRANCH   5   8
ENDBRANCH   1   5
BRANCH   3  18
ATOM     18  C   UNL     1       3.249   2.581  17.979  0.00  0.00    +0.000 C 
BRANCH  18  19
ATOM     19  O   UNL     1       2.780   1.553  17.102  0.00  0.00    +0.000 OA
ATOM     20  H   UNL     1       1.822   1.681  16.992  0.00  0.00    +0.000 HD
ENDBRANCH  18  19
BRANCH  18  21
ATOM     21  C   UNL     1       4.151   3.493  17.133  0.00  0.00    +0.000 C 
BRANCH  21  22
ATOM     22  O   UNL     1       4.101   4.866  17.520  0.00  0.00    +0.000 OA
BRANCH  22  23
ATOM     23  C   UNL     1       5.323   5.402  17.860  0.00  0.00    +0.000 A 
ATOM     24  C   UNL     1       6.041   5.037  19.009  0.00  0.00    +0.000 A 
ATOM     25  C   UNL     1       7.257   5.642  19.318  0.00  0.00    +0.000 A 
ATOM     26  C   UNL     1       7.785   6.602  18.465  0.00  0.00    +0.000 A 
ATOM     27  C   UNL     1       7.107   6.942  17.295  0.00  0.00    +0.000 A 
ATOM     28  C   UNL     1       5.872   6.350  16.981  0.00  0.00    +0.000 A 
ATOM     29  C   UNL     1       5.184   6.716  15.694  0.00  0.00    +0.000 C 
ENDBRANCH  22  23
ENDBRANCH  21  22
ENDBRANCH  18  21
ENDBRANCH   3  18
TORSDOF 8
ENDMDL
