MODEL 1
REMARK VINA RESULT:      -7.0      0.000      0.000
REMARK  Name = 
REMARK  7 active torsions:
REMARK  status: ('A' for Active; 'I' for Inactive)
REMARK    1  A    between atoms: C_1  and  C_2
REMARK    2  A    between atoms: C_5  and  S_6
REMARK    3  A    between atoms: S_6  and  C_7
REMARK    4  A    between atoms: C_7  and  C_8
REMARK    5  A    between atoms: N_10  and  C_11
REMARK    6  A    between atoms: C_14  and  S_15
REMARK    7  A    between atoms: S_15  and  N_16
REMARK                            x       y       z     vdW  Elec       q    Type
REMARK                         _______ _______ _______ _____ _____    ______ ____
ROOT
ATOM      1  C   UNL     1       2.423   4.996  18.622  0.00  0.00    +0.000 C 
ATOM      2  O   UNL     1       1.522   4.951  17.784  0.00  0.00    +0.000 OA
ATOM      3  N   UNL     1       2.881   6.146  19.247  0.00  0.00    +0.000 N 
ATOM      4  H   UNL     1       3.727   6.052  19.794  0.00  0.00    +0.000 HD
ENDROOT
BRANCH   3   5
ATOM      5  C   UNL     1       2.269   7.416  19.230  0.00  0.00    +0.000 A 
ATOM      6  C   UNL     1       1.563   7.932  20.321  0.00  0.00    +0.000 A 
ATOM      7  C   UNL     1       0.990   9.205  20.266  0.00  0.00    +0.000 A 
ATOM      8  C   UNL     1       1.130   9.973  19.111  0.00  0.00    +0.000 A 
ATOM      9  C   UNL     1       1.828   9.478  18.011  0.00  0.00    +0.000 A 
ATOM     10  C   UNL     1       2.410   8.204  18.079  0.00  0.00    +0.000 A 
BRANCH   8  11
ATOM     11  S   UNL     1       0.379  11.572  19.052  0.00  0.00    +0.000 S 
ATOM     12  O   UNL     1      -0.863  11.486  18.318  0.00  0.00    +0.000 OA
ATOM     13  O   UNL     1       0.469  12.195  20.353  0.00  0.00    +0.000 OA
BRANCH  11  14
ATOM     14  N   UNL     1       1.443  12.413  18.063  0.00  0.00    +0.000 NA
ATOM     15  H   UNL     1       1.250  13.413  18.117  0.00  0.00    +0.000 HD
ATOM     16  H   UNL     1       2.405  12.162  18.293  0.00  0.00    +0.000 HD
ENDBRANCH  11  14
ENDBRANCH   8  11
ENDBRANCH   3   5
BRANCH   1  17
ATOM     17  C   UNL     1       3.195   3.724  18.961  0.00  0.00    +0.000 C 
BRANCH  17  18
ATOM     18  S   UNL     1       4.371   3.291  17.636  0.00  0.00    +0.000 S 
BRANCH  18  23
ATOM     19  C   UNL     1       7.955   8.227  17.636  0.00  0.00    +0.000 C 
ATOM     20  C   UNL     1       7.123   6.980  17.626  0.00  0.00    +0.000 A 
ATOM     21  C   UNL     1       6.134   6.791  16.659  0.00  0.00    +0.000 A 
ATOM     22  C   UNL     1       5.339   5.642  16.678  0.00  0.00    +0.000 A 
ATOM     23  C   UNL     1       5.516   4.659  17.656  0.00  0.00    +0.000 A 
ATOM     24  C   UNL     1       6.510   4.844  18.623  0.00  0.00    +0.000 A 
ATOM     25  C   UNL     1       7.309   5.996  18.605  0.00  0.00    +0.000 A 
ENDBRANCH  18  23
ENDBRANCH  17  18
ENDBRANCH   1  17
TORSDOF 6
ENDMDL
MODEL 2
REMARK VINA RESULT:      -6.9      4.629      7.592
REMARK  Name = 
REMARK  7 active torsions:
REMARK  status: ('A' for Active; 'I' for Inactive)
REMARK    1  A    between atoms: C_1  and  C_2
REMARK    2  A    between atoms: C_5  and  S_6
REMARK    3  A    between atoms: S_6  and  C_7
REMARK    4  A    between atoms: C_7  and  C_8
REMARK    5  A    between atoms: N_10  and  C_11
REMARK    6  A    between atoms: C_14  and  S_15
REMARK    7  A    between atoms: S_15  and  N_16
REMARK                            x       y       z     vdW  Elec       q    Type
REMARK                         _______ _______ _______ _____ _____    ______ ____
ROOT
ATOM      1  C   UNL     1       7.611   7.664  17.882  0.00  0.00    +0.000 C 
ATOM      2  O   UNL     1       8.223   6.941  18.668  0.00  0.00    +0.000 OA
ATOM      3  N   UNL     1       6.468   7.302  17.184  0.00  0.00    +0.000 N 
ATOM      4  H   UNL     1       6.166   7.940  16.458  0.00  0.00    +0.000 HD
ENDROOT
BRANCH   3   5
ATOM      5  C   UNL     1       5.667   6.164  17.407  0.00  0.00    +0.000 A 
ATOM      6  C   UNL     1       5.675   5.054  16.557  0.00  0.00    +0.000 A 
ATOM      7  C   UNL     1       4.878   3.938  16.829  0.00  0.00    +0.000 A 
ATOM      8  C   UNL     1       4.071   3.930  17.967  0.00  0.00    +0.000 A 
ATOM      9  C   UNL     1       4.047   5.027  18.826  0.00  0.00    +0.000 A 
ATOM     10  C   UNL     1       4.859   6.137  18.552  0.00  0.00    +0.000 A 
BRANCH   8  11
ATOM     11  S   UNL     1       3.054   2.520  18.282  0.00  0.00    +0.000 S 
ATOM     12  O   UNL     1       2.643   2.531  19.668  0.00  0.00    +0.000 OA
ATOM     13  O   UNL     1       2.115   2.351  17.197  0.00  0.00    +0.000 OA
BRANCH  11  14
ATOM     14  N   UNL     1       4.157   1.264  18.137  0.00  0.00    +0.000 NA
ATOM     15  H   UNL     1       4.168   0.920  17.176  0.00  0.00    +0.000 HD
ATOM     16  H   UNL     1       5.071   1.561  18.482  0.00  0.00    +0.000 HD
ENDBRANCH  11  14
ENDBRANCH   8  11
ENDBRANCH   3   5
BRANCH   1  17
ATOM     17  C   UNL     1       8.171   9.040  17.539  0.00  0.00    +0.000 C 
BRANCH  17  18
ATOM     18  S   UNL     1       8.993   9.799  18.979  0.00  0.00    +0.000 S 
BRANCH  18  23
ATOM     19  C   UNL     1      11.191  15.126  16.978  0.00  0.00    +0.000 C 
ATOM     20  C   UNL     1      10.660  13.794  17.415  0.00  0.00    +0.000 A 
ATOM     21  C   UNL     1       9.337  13.659  17.840  0.00  0.00    +0.000 A 
ATOM     22  C   UNL     1       8.860  12.421  18.279  0.00  0.00    +0.000 A 
ATOM     23  C   UNL     1       9.688  11.295  18.299  0.00  0.00    +0.000 A 
ATOM     24  C   UNL     1      11.012  11.427  17.868  0.00  0.00    +0.000 A 
ATOM     25  C   UNL     1      11.492  12.668  17.426  0.00  0.00    +0.000 A 
ENDBRANCH  18  23
ENDBRANCH  17  18
ENDBRANCH   1  17
TORSDOF 6
ENDMDL
MODEL 3
REMARK VINA RESULT:      -6.9      1.028      1.460
REMARK  Name = 
REMARK  7 active torsions:
REMARK  status: ('A' for Active; 'I' for Inactive)
REMARK    1  A    between atoms: C_1  and  C_2
REMARK    2  A    between atoms: C_5  and  S_6
REMARK    3  A    between atoms: S_6  and  C_7
REMARK    4  A    between atoms: C_7  and  C_8
REMARK    5  A    between atoms: N_10  and  C_11
REMARK    6  A    between atoms: C_14  and  S_15
REMARK    7  A    between atoms: S_15  and  N_16
REMARK                            x       y       z     vdW  Elec       q    Type
REMARK                         _______ _______ _______ _____ _____    ______ ____
ROOT
ATOM      1  C   UNL     1       2.376   4.842  19.690  0.00  0.00    +0.000 C 
ATOM      2  O   UNL     1       1.359   4.591  19.043  0.00  0.00    +0.000 OA
ATOM      3  N   UNL     1       2.854   6.114  19.970  0.00  0.00    +0.000 N 
ATOM      4  H   UNL     1       3.780   6.165  20.374  0.00  0.00    +0.000 HD
ENDROOT
BRANCH   3   5
ATOM      5  C   UNL     1       2.168   7.332  19.787  0.00  0.00    +0.000 A 
ATOM      6  C   UNL     1       1.383   7.917  20.784  0.00  0.00    +0.000 A 
ATOM      7  C   UNL     1       0.738   9.137  20.564  0.00  0.00    +0.000 A 
ATOM      8  C   UNL     1       0.886   9.782  19.337  0.00  0.00    +0.000 A 
ATOM      9  C   UNL     1       1.663   9.216  18.328  0.00  0.00    +0.000 A 
ATOM     10  C   UNL     1       2.317   7.997  18.562  0.00  0.00    +0.000 A 
BRANCH   8  11
ATOM     11  S   UNL     1       0.044  11.313  19.070  0.00  0.00    +0.000 S 
ATOM     12  O   UNL     1      -0.890  11.535  20.150  0.00  0.00    +0.000 OA
ATOM     13  O   UNL     1       0.993  12.317  18.647  0.00  0.00    +0.000 OA
BRANCH  11  14
ATOM     14  N   UNL     1      -0.887  10.959  17.719  0.00  0.00    +0.000 NA
ATOM     15  H   UNL     1      -0.305  10.983  16.881  0.00  0.00    +0.000 HD
ATOM     16  H   UNL     1      -1.380  10.076  17.857  0.00  0.00    +0.000 HD
ENDBRANCH  11  14
ENDBRANCH   8  11
ENDBRANCH   3   5
BRANCH   1  17
ATOM     17  C   UNL     1       3.270   3.697  20.156  0.00  0.00    +0.000 C 
BRANCH  17  18
ATOM     18  S   UNL     1       4.348   3.108  18.808  0.00  0.00    +0.000 S 
BRANCH  18  23
ATOM     19  C   UNL     1       7.844   7.903  17.392  0.00  0.00    +0.000 C 
ATOM     20  C   UNL     1       6.937   6.761  17.743  0.00  0.00    +0.000 A 
ATOM     21  C   UNL     1       7.131   6.034  18.920  0.00  0.00    +0.000 A 
ATOM     22  C   UNL     1       6.303   4.949  19.222  0.00  0.00    +0.000 A 
ATOM     23  C   UNL     1       5.267   4.572  18.363  0.00  0.00    +0.000 A 
ATOM     24  C   UNL     1       5.068   5.303  17.187  0.00  0.00    +0.000 A 
ATOM     25  C   UNL     1       5.897   6.391  16.883  0.00  0.00    +0.000 A 
ENDBRANCH  18  23
ENDBRANCH  17  18
ENDBRANCH   1  17
TORSDOF 6
ENDMDL
MODEL 4
REMARK VINA RESULT:      -6.9      2.357      4.036
REMARK  Name = 
REMARK  7 active torsions:
REMARK  status: ('A' for Active; 'I' for Inactive)
REMARK    1  A    between atoms: C_1  and  C_2
REMARK    2  A    between atoms: C_5  and  S_6
REMARK    3  A    between atoms: S_6  and  C_7
REMARK    4  A    between atoms: C_7  and  C_8
REMARK    5  A    between atoms: N_10  and  C_11
REMARK    6  A    between atoms: C_14  and  S_15
REMARK    7  A    between atoms: S_15  and  N_16
REMARK                            x       y       z     vdW  Elec       q    Type
REMARK                         _______ _______ _______ _____ _____    ______ ____
ROOT
ATOM      1  C   UNL     1       4.748   6.705  17.012  0.00  0.00    +0.000 C 
ATOM      2  O   UNL     1       5.569   7.382  17.632  0.00  0.00    +0.000 OA
ATOM      3  N   UNL     1       3.391   6.637  17.291  0.00  0.00    +0.000 N 
ATOM      4  H   UNL     1       2.868   5.922  16.801  0.00  0.00    +0.000 HD
ENDROOT
BRANCH   3   5
ATOM      5  C   UNL     1       2.663   7.483  18.152  0.00  0.00    +0.000 A 
ATOM      6  C   UNL     1       2.143   8.714  17.743  0.00  0.00    +0.000 A 
ATOM      7  C   UNL     1       1.409   9.511  18.627  0.00  0.00    +0.000 A 
ATOM      8  C   UNL     1       1.188   9.068  19.930  0.00  0.00    +0.000 A 
ATOM      9  C   UNL     1       1.699   7.845  20.360  0.00  0.00    +0.000 A 
ATOM     10  C   UNL     1       2.424   7.047  19.463  0.00  0.00    +0.000 A 
BRANCH   8  11
ATOM     11  S   UNL     1       0.278  10.100  21.040  0.00  0.00    +0.000 S 
ATOM     12  O   UNL     1       1.203  10.886  21.824  0.00  0.00    +0.000 OA
ATOM     13  O   UNL     1      -0.841  10.690  20.341  0.00  0.00    +0.000 OA
BRANCH  11  14
ATOM     14  N   UNL     1      -0.380   8.971  22.094  0.00  0.00    +0.000 NA
ATOM     15  H   UNL     1      -0.029   9.133  23.038  0.00  0.00    +0.000 HD
ATOM     16  H   UNL     1      -1.398   8.978  22.021  0.00  0.00    +0.000 HD
ENDBRANCH  11  14
ENDBRANCH   8  11
ENDBRANCH   3   5
BRANCH   1  17
ATOM     17  C   UNL     1       5.229   5.773  15.905  0.00  0.00    +0.000 C 
BRANCH  17  18
ATOM     18  S   UNL     1       5.732   4.153  16.575  0.00  0.00    +0.000 S 
BRANCH  18  23
ATOM     19  C   UNL     1       1.108   2.946  20.366  0.00  0.00    +0.000 C 
ATOM     20  C   UNL     1       2.241   3.186  19.413  0.00  0.00    +0.000 A 
ATOM     21  C   UNL     1       3.518   3.493  19.888  0.00  0.00    +0.000 A 
ATOM     22  C   UNL     1       4.559   3.750  18.992  0.00  0.00    +0.000 A 
ATOM     23  C   UNL     1       4.351   3.703  17.611  0.00  0.00    +0.000 A 
ATOM     24  C   UNL     1       3.074   3.391  17.134  0.00  0.00    +0.000 A 
ATOM     25  C   UNL     1       2.028   3.132  18.030  0.00  0.00    +0.000 A 
ENDBRANCH  18  23
ENDBRANCH  17  18
ENDBRANCH   1  17
TORSDOF 6
ENDMDL
MODEL 5
REMARK VINA RESULT:      -6.9      0.700      1.239
REMARK  Name = 
REMARK  7 active torsions:
REMARK  status: ('A' for Active; 'I' for Inactive)
REMARK    1  A    between atoms: C_1  and  C_2
REMARK    2  A    between atoms: C_5  and  S_6
REMARK    3  A    between atoms: S_6  and  C_7
REMARK    4  A    between atoms: C_7  and  C_8
REMARK    5  A    between atoms: N_10  and  C_11
REMARK    6  A    between atoms: C_14  and  S_15
REMARK    7  A    between atoms: S_15  and  N_16
REMARK                            x       y       z     vdW  Elec       q    Type
REMARK                         _______ _______ _______ _____ _____    ______ ____
ROOT
ATOM      1  C   UNL     1       2.398   4.965  18.626  0.00  0.00    +0.000 C 
ATOM      2  O   UNL     1       1.482   4.961  17.804  0.00  0.00    +0.000 OA
ATOM      3  N   UNL     1       2.855   6.081  19.311  0.00  0.00    +0.000 N 
ATOM      4  H   UNL     1       3.713   5.965  19.835  0.00  0.00    +0.000 HD
ENDROOT
BRANCH   3   5
ATOM      5  C   UNL     1       2.228   7.342  19.383  0.00  0.00    +0.000 A 
ATOM      6  C   UNL     1       2.130   8.203  18.287  0.00  0.00    +0.000 A 
ATOM      7  C   UNL     1       1.481   9.436  18.400  0.00  0.00    +0.000 A 
ATOM      8  C   UNL     1       0.921   9.808  19.622  0.00  0.00    +0.000 A 
ATOM      9  C   UNL     1       1.009   8.966  20.728  0.00  0.00    +0.000 A 
ATOM     10  C   UNL     1       1.651   7.725  20.602  0.00  0.00    +0.000 A 
BRANCH   8  11
ATOM     11  S   UNL     1       0.125  11.381  19.752  0.00  0.00    +0.000 S 
ATOM     12  O   UNL     1      -1.122  11.224  20.467  0.00  0.00    +0.000 OA
ATOM     13  O   UNL     1       1.100  12.386  20.107  0.00  0.00    +0.000 OA
BRANCH  11  14
ATOM     14  N   UNL     1      -0.292  11.686  18.155  0.00  0.00    +0.000 NA
ATOM     15  H   UNL     1       0.549  11.738  17.580  0.00  0.00    +0.000 HD
ATOM     16  H   UNL     1      -0.972  10.995  17.835  0.00  0.00    +0.000 HD
ENDBRANCH  11  14
ENDBRANCH   8  11
ENDBRANCH   3   5
BRANCH   1  17
ATOM     17  C   UNL     1       3.191   3.685  18.871  0.00  0.00    +0.000 C 
BRANCH  17  18
ATOM     18  S   UNL     1       4.301   3.315  17.473  0.00  0.00    +0.000 S 
BRANCH  18  23
ATOM     19  C   UNL     1       7.977   8.180  17.653  0.00  0.00    +0.000 C 
ATOM     20  C   UNL     1       7.120   6.951  17.591  0.00  0.00    +0.000 A 
ATOM     21  C   UNL     1       6.036   6.882  16.713  0.00  0.00    +0.000 A 
ATOM     22  C   UNL     1       5.222   5.747  16.686  0.00  0.00    +0.000 A 
ATOM     23  C   UNL     1       5.473   4.659  17.527  0.00  0.00    +0.000 A 
ATOM     24  C   UNL     1       6.562   4.724  18.403  0.00  0.00    +0.000 A 
ATOM     25  C   UNL     1       7.380   5.861  18.431  0.00  0.00    +0.000 A 
ENDBRANCH  18  23
ENDBRANCH  17  18
ENDBRANCH   1  17
TORSDOF 6
ENDMDL
MODEL 6
REMARK VINA RESULT:      -6.9      1.616      2.311
REMARK  Name = 
REMARK  7 active torsions:
REMARK  status: ('A' for Active; 'I' for Inactive)
REMARK    1  A    between atoms: C_1  and  C_2
REMARK    2  A    between atoms: C_5  and  S_6
REMARK    3  A    between atoms: S_6  and  C_7
REMARK    4  A    between atoms: C_7  and  C_8
REMARK    5  A    between atoms: N_10  and  C_11
REMARK    6  A    between atoms: C_14  and  S_15
REMARK    7  A    between atoms: S_15  and  N_16
REMARK                            x       y       z     vdW  Elec       q    Type
REMARK                         _______ _______ _______ _____ _____    ______ ____
ROOT
ATOM      1  C   UNL     1       1.802   4.542  20.654  0.00  0.00    +0.000 C 
ATOM      2  O   UNL     1       0.713   4.366  20.108  0.00  0.00    +0.000 OA
ATOM      3  N   UNL     1       2.527   5.725  20.634  0.00  0.00    +0.000 N 
ATOM      4  H   UNL     1       3.473   5.677  20.990  0.00  0.00    +0.000 HD
ENDROOT
BRANCH   3   5
ATOM      5  C   UNL     1       2.069   6.988  20.206  0.00  0.00    +0.000 A 
ATOM      6  C   UNL     1       2.307   7.485  18.922  0.00  0.00    +0.000 A 
ATOM      7  C   UNL     1       1.817   8.735  18.535  0.00  0.00    +0.000 A 
ATOM      8  C   UNL     1       1.074   9.492  19.440  0.00  0.00    +0.000 A 
ATOM      9  C   UNL     1       0.826   9.017  20.727  0.00  0.00    +0.000 A 
ATOM     10  C   UNL     1       1.312   7.756  21.102  0.00  0.00    +0.000 A 
BRANCH   8  11
ATOM     11  S   UNL     1       0.481  11.081  18.941  0.00  0.00    +0.000 S 
ATOM     12  O   UNL     1      -0.674  10.910  18.088  0.00  0.00    +0.000 OA
ATOM     13  O   UNL     1       0.481  11.974  20.076  0.00  0.00    +0.000 OA
BRANCH  11  14
ATOM     14  N   UNL     1       1.721  11.608  17.939  0.00  0.00    +0.000 NA
ATOM     15  H   UNL     1       1.496  12.530  17.565  0.00  0.00    +0.000 HD
ATOM     16  H   UNL     1       2.612  11.566  18.435  0.00  0.00    +0.000 HD
ENDBRANCH  11  14
ENDBRANCH   8  11
ENDBRANCH   3   5
BRANCH   1  17
ATOM     17  C   UNL     1       2.498   3.369  21.335  0.00  0.00    +0.000 C 
BRANCH  17  18
ATOM     18  S   UNL     1       3.139   2.177  20.112  0.00  0.00    +0.000 S 
BRANCH  18  23
ATOM     19  C   UNL     1       5.467   5.915  15.891  0.00  0.00    +0.000 C 
ATOM     20  C   UNL     1       4.946   4.965  16.928  0.00  0.00    +0.000 A 
ATOM     21  C   UNL     1       3.832   4.165  16.666  0.00  0.00    +0.000 A 
ATOM     22  C   UNL     1       3.332   3.309  17.650  0.00  0.00    +0.000 A 
ATOM     23  C   UNL     1       3.933   3.229  18.909  0.00  0.00    +0.000 A 
ATOM     24  C   UNL     1       5.053   4.025  19.172  0.00  0.00    +0.000 A 
ATOM     25  C   UNL     1       5.556   4.884  18.186  0.00  0.00    +0.000 A 
ENDBRANCH  18  23
ENDBRANCH  17  18
ENDBRANCH   1  17
TORSDOF 6
ENDMDL
MODEL 7
REMARK VINA RESULT:      -6.8      1.659      2.431
REMARK  Name = 
REMARK  7 active torsions:
REMARK  status: ('A' for Active; 'I' for Inactive)
REMARK    1  A    between atoms: C_1  and  C_2
REMARK    2  A    between atoms: C_5  and  S_6
REMARK    3  A    between atoms: S_6  and  C_7
REMARK    4  A    between atoms: C_7  and  C_8
REMARK    5  A    between atoms: N_10  and  C_11
REMARK    6  A    between atoms: C_14  and  S_15
REMARK    7  A    between atoms: S_15  and  N_16
REMARK                            x       y       z     vdW  Elec       q    Type
REMARK                         _______ _______ _______ _____ _____    ______ ____
ROOT
ATOM      1  C   UNL     1       1.895   4.872  20.568  0.00  0.00    +0.000 C 
ATOM      2  O   UNL     1       0.698   4.697  20.340  0.00  0.00    +0.000 OA
ATOM      3  N   UNL     1       2.597   6.041  20.316  0.00  0.00    +0.000 N 
ATOM      4  H   UNL     1       3.603   5.988  20.407  0.00  0.00    +0.000 HD
ENDROOT
BRANCH   3   5
ATOM      5  C   UNL     1       2.051   7.299  19.988  0.00  0.00    +0.000 A 
ATOM      6  C   UNL     1       2.196   7.881  18.726  0.00  0.00    +0.000 A 
ATOM      7  C   UNL     1       1.620   9.122  18.439  0.00  0.00    +0.000 A 
ATOM      8  C   UNL     1       0.886   9.783  19.423  0.00  0.00    +0.000 A 
ATOM      9  C   UNL     1       0.730   9.222  20.689  0.00  0.00    +0.000 A 
ATOM     10  C   UNL     1       1.302   7.971  20.964  0.00  0.00    +0.000 A 
BRANCH   8  11
ATOM     11  S   UNL     1       0.185  11.362  19.049  0.00  0.00    +0.000 S 
ATOM     12  O   UNL     1      -0.712  11.748  20.116  0.00  0.00    +0.000 OA
ATOM     13  O   UNL     1       1.216  12.241  18.548  0.00  0.00    +0.000 OA
BRANCH  11  14
ATOM     14  N   UNL     1      -0.791  10.999  17.733  0.00  0.00    +0.000 NA
ATOM     15  H   UNL     1      -0.520  10.098  17.338  0.00  0.00    +0.000 HD
ATOM     16  H   UNL     1      -1.774  11.056  18.002  0.00  0.00    +0.000 HD
ENDBRANCH  11  14
ENDBRANCH   8  11
ENDBRANCH   3   5
BRANCH   1  17
ATOM     17  C   UNL     1       2.739   3.706  21.073  0.00  0.00    +0.000 C 
BRANCH  17  18
ATOM     18  S   UNL     1       3.045   2.487  19.752  0.00  0.00    +0.000 S 
BRANCH  18  23
ATOM     19  C   UNL     1       6.818   5.423  15.962  0.00  0.00    +0.000 C 
ATOM     20  C   UNL     1       5.847   4.741  16.881  0.00  0.00    +0.000 A 
ATOM     21  C   UNL     1       6.107   4.651  18.250  0.00  0.00    +0.000 A 
ATOM     22  C   UNL     1       5.215   3.984  19.094  0.00  0.00    +0.000 A 
ATOM     23  C   UNL     1       4.048   3.399  18.592  0.00  0.00    +0.000 A 
ATOM     24  C   UNL     1       3.784   3.494  17.222  0.00  0.00    +0.000 A 
ATOM     25  C   UNL     1       4.677   4.163  16.374  0.00  0.00    +0.000 A 
ENDBRANCH  18  23
ENDBRANCH  17  18
ENDBRANCH   1  17
TORSDOF 6
ENDMDL
MODEL 8
REMARK VINA RESULT:      -6.8      1.589      2.258
REMARK  Name = 
REMARK  7 active torsions:
REMARK  status: ('A' for Active; 'I' for Inactive)
REMARK    1  A    between atoms: C_1  and  C_2
REMARK    2  A    between atoms: C_5  and  S_6
REMARK    3  A    between atoms: S_6  and  C_7
REMARK    4  A    between atoms: C_7  and  C_8
REMARK    5  A    between atoms: N_10  and  C_11
REMARK    6  A    between atoms: C_14  and  S_15
REMARK    7  A    between atoms: S_15  and  N_16
REMARK                            x       y       z     vdW  Elec       q    Type
REMARK                         _______ _______ _______ _____ _____    ______ ____
ROOT
ATOM      1  C   UNL     1       2.865   5.271  19.083  0.00  0.00    +0.000 C 
ATOM      2  O   UNL     1       1.896   4.909  18.416  0.00  0.00    +0.000 OA
ATOM      3  N   UNL     1       3.125   6.576  19.475  0.00  0.00    +0.000 N 
ATOM      4  H   UNL     1       4.035   6.749  19.883  0.00  0.00    +0.000 HD
ENDROOT
BRANCH   3   5
ATOM      5  C   UNL     1       2.241   7.672  19.401  0.00  0.00    +0.000 A 
ATOM      6  C   UNL     1       1.520   8.140  20.502  0.00  0.00    +0.000 A 
ATOM      7  C   UNL     1       0.670   9.243  20.386  0.00  0.00    +0.000 A 
ATOM      8  C   UNL     1       0.546   9.889  19.156  0.00  0.00    +0.000 A 
ATOM      9  C   UNL     1       1.254   9.438  18.044  0.00  0.00    +0.000 A 
ATOM     10  C   UNL     1       2.114   8.337  18.173  0.00  0.00    +0.000 A 
BRANCH   8  11
ATOM     11  S   UNL     1      -0.551  11.268  19.023  0.00  0.00    +0.000 S 
ATOM     12  O   UNL     1      -1.601  10.950  18.080  0.00  0.00    +0.000 OA
ATOM     13  O   UNL     1      -0.827  11.793  20.340  0.00  0.00    +0.000 OA
BRANCH  11  14
ATOM     14  N   UNL     1       0.422  12.406  18.266  0.00  0.00    +0.000 NA
ATOM     15  H   UNL     1       0.383  12.279  17.255  0.00  0.00    +0.000 HD
ATOM     16  H   UNL     1       0.167  13.345  18.577  0.00  0.00    +0.000 HD
ENDBRANCH  11  14
ENDBRANCH   8  11
ENDBRANCH   3   5
BRANCH   1  17
ATOM     17  C   UNL     1       3.947   4.259  19.446  0.00  0.00    +0.000 C 
BRANCH  17  18
ATOM     18  S   UNL     1       5.612   4.912  19.091  0.00  0.00    +0.000 S 
BRANCH  18  23
ATOM     19  C   UNL     1       6.536   3.944  13.139  0.00  0.00    +0.000 C 
ATOM     20  C   UNL     1       6.264   4.219  14.588  0.00  0.00    +0.000 A 
ATOM     21  C   UNL     1       7.233   4.822  15.393  0.00  0.00    +0.000 A 
ATOM     22  C   UNL     1       6.984   5.043  16.750  0.00  0.00    +0.000 A 
ATOM     23  C   UNL     1       5.767   4.673  17.330  0.00  0.00    +0.000 A 
ATOM     24  C   UNL     1       4.794   4.073  16.524  0.00  0.00    +0.000 A 
ATOM     25  C   UNL     1       5.041   3.852  15.163  0.00  0.00    +0.000 A 
ENDBRANCH  18  23
ENDBRANCH  17  18
ENDBRANCH   1  17
TORSDOF 6
ENDMDL
MODEL 9
REMARK VINA RESULT:      -6.8      3.676      8.477
REMARK  Name = 
REMARK  7 active torsions:
REMARK  status: ('A' for Active; 'I' for Inactive)
REMARK    1  A    between atoms: C_1  and  C_2
REMARK    2  A    between atoms: C_5  and  S_6
REMARK    3  A    between atoms: S_6  and  C_7
REMARK    4  A    between atoms: C_7  and  C_8
REMARK    5  A    between atoms: N_10  and  C_11
REMARK    6  A    between atoms: C_14  and  S_15
REMARK    7  A    between atoms: S_15  and  N_16
REMARK                            x       y       z     vdW  Elec       q    Type
REMARK                         _______ _______ _______ _____ _____    ______ ____
ROOT
ATOM      1  C   UNL     1       1.927   8.620  18.553  0.00  0.00    +0.000 C 
ATOM      2  O   UNL     1       2.052   9.189  17.469  0.00  0.00    +0.000 OA
ATOM      3  N   UNL     1       2.550   7.434  18.912  0.00  0.00    +0.000 N 
ATOM      4  H   UNL     1       2.233   7.003  19.771  0.00  0.00    +0.000 HD
ENDROOT
BRANCH   3   5
ATOM      5  C   UNL     1       3.603   6.793  18.227  0.00  0.00    +0.000 A 
ATOM      6  C   UNL     1       4.102   7.251  17.006  0.00  0.00    +0.000 A 
ATOM      7  C   UNL     1       5.161   6.595  16.372  0.00  0.00    +0.000 A 
ATOM      8  C   UNL     1       5.731   5.472  16.972  0.00  0.00    +0.000 A 
ATOM      9  C   UNL     1       5.247   4.996  18.189  0.00  0.00    +0.000 A 
ATOM     10  C   UNL     1       4.192   5.669  18.823  0.00  0.00    +0.000 A 
BRANCH   8  11
ATOM     11  S   UNL     1       7.053   4.641  16.145  0.00  0.00    +0.000 S 
ATOM     12  O   UNL     1       7.437   5.403  14.978  0.00  0.00    +0.000 OA
ATOM     13  O   UNL     1       8.016   4.179  17.119  0.00  0.00    +0.000 OA
BRANCH  11  14
ATOM     14  N   UNL     1       6.284   3.266  15.567  0.00  0.00    +0.000 NA
ATOM     15  H   UNL     1       5.501   3.025  16.175  0.00  0.00    +0.000 HD
ATOM     16  H   UNL     1       6.027   3.396  14.588  0.00  0.00    +0.000 HD
ENDBRANCH  11  14
ENDBRANCH   8  11
ENDBRANCH   3   5
BRANCH   1  17
ATOM     17  C   UNL     1       0.940   9.169  19.578  0.00  0.00    +0.000 C 
BRANCH  17  18
ATOM     18  S   UNL     1       0.732  10.971  19.399  0.00  0.00    +0.000 S 
BRANCH  18  23
ATOM     19  C   UNL     1      -5.090  11.074  17.581  0.00  0.00    +0.000 C 
ATOM     20  C   UNL     1      -3.653  11.105  18.008  0.00  0.00    +0.000 A 
ATOM     21  C   UNL     1      -2.724  10.227  17.446  0.00  0.00    +0.000 A 
ATOM     22  C   UNL     1      -1.394  10.238  17.875  0.00  0.00    +0.000 A 
ATOM     23  C   UNL     1      -0.963  11.126  18.865  0.00  0.00    +0.000 A 
ATOM     24  C   UNL     1      -1.891  12.010  19.425  0.00  0.00    +0.000 A 
ATOM     25  C   UNL     1      -3.225  12.001  18.996  0.00  0.00    +0.000 A 
ENDBRANCH  18  23
ENDBRANCH  17  18
ENDBRANCH   1  17
TORSDOF 6
ENDMDL
