MODEL 1
REMARK VINA RESULT:      -6.9      0.000      0.000
REMARK  Name = 
REMARK  10 active torsions:
REMARK  status: ('A' for Active; 'I' for Inactive)
REMARK    1  A    between atoms: C_1  and  N_2
REMARK    2  A    between atoms: C_3  and  C_4
REMARK    3  A    between atoms: C_4  and  S_5
REMARK    4  A    between atoms: S_5  and  C_6
REMARK    5  A    between atoms: C_17  and  S_18
REMARK    6  A    between atoms: S_18  and  C_19
REMARK    7  A    between atoms: C_19  and  C_20
REMARK    8  A    between atoms: N_22  and  C_23
REMARK    9  A    between atoms: C_23  and  C_24
REMARK   10  A    between atoms: C_24  and  N_25
REMARK                            x       y       z     vdW  Elec       q    Type
REMARK                         _______ _______ _______ _____ _____    ______ ____
ROOT
ATOM      1  C   UNL     1       1.107   8.378  21.246  0.00  0.00    +0.000 C 
ATOM      2  N   UNL     1       1.208   9.022  19.967  0.00  0.00    +0.000 N 
ATOM      3  C   UNL     1       0.761  10.282  19.619  0.00  0.00    +0.000 A 
ATOM      4  N   UNL     1       1.150  10.539  18.384  0.00  0.00    +0.000 NA
ATOM      5  N   UNL     1       1.815   9.441  17.898  0.00  0.00    +0.000 NA
ATOM      6  C   UNL     1       1.834   8.538  18.848  0.00  0.00    +0.000 A 
ENDROOT
BRANCH   3   7
ATOM      7  C   UNL     1       0.006  11.214  20.506  0.00  0.00    +0.000 C 
BRANCH   7   8
ATOM      8  S   UNL     1      -0.645  12.652  19.630  0.00  0.00    +0.000 S 
BRANCH   8   9
ATOM      9  C   UNL     1      -2.327  12.237  19.382  0.00  0.00    +0.000 A 
ATOM     10  N   UNL     1      -3.304  12.632  20.171  0.00  0.00    +0.000 NA
ATOM     11  C   UNL     1      -4.525  12.292  19.589  0.00  0.00    +0.000 A 
ATOM     12  C   UNL     1      -5.810  12.598  20.091  0.00  0.00    +0.000 A 
ATOM     13  C   UNL     1      -6.952  12.250  19.354  0.00  0.00    +0.000 A 
ATOM     14  C   UNL     1      -6.835  11.585  18.138  0.00  0.00    +0.000 A 
ATOM     15  C   UNL     1      -5.579  11.239  17.636  0.00  0.00    +0.000 A 
ATOM     16  C   UNL     1      -4.441  11.610  18.373  0.00  0.00    +0.000 A 
ATOM     17  S   UNL     1      -2.789  11.356  17.987  0.00  0.00    +0.000 S 
ENDBRANCH   8   9
ENDBRANCH   7   8
ENDBRANCH   3   7
BRANCH   6  18
ATOM     18  S   UNL     1       2.524   6.951  18.738  0.00  0.00    +0.000 S 
BRANCH  18  19
ATOM     19  C   UNL     1       3.822   7.247  17.502  0.00  0.00    +0.000 C 
BRANCH  19  20
ATOM     20  C   UNL     1       4.563   5.959  17.179  0.00  0.00    +0.000 C 
ATOM     21  O   UNL     1       5.624   5.952  16.559  0.00  0.00    +0.000 OA
ATOM     22  N   UNL     1       3.927   4.803  17.576  0.00  0.00    +0.000 N 
ATOM     23  H   UNL     1       3.313   4.881  18.380  0.00  0.00    +0.000 HD
BRANCH  22  24
ATOM     24  C   UNL     1       4.522   3.482  17.373  0.00  0.00    +0.000 C 
BRANCH  24  25
ATOM     25  C   UNL     1       3.567   2.343  17.796  0.00  0.00    +0.000 C 
BRANCH  25  26
ATOM     26  N   UNL     1       2.771   2.814  18.919  0.00  0.00    +0.000 NA
ATOM     27  C   UNL     1       1.341   2.488  18.876  0.00  0.00    +0.000 C 
ATOM     28  C   UNL     1       0.648   3.485  19.813  0.00  0.00    +0.000 C 
ATOM     29  O   UNL     1       1.126   3.336  21.161  0.00  0.00    +0.000 OA
ATOM     30  C   UNL     1       2.555   3.498  21.222  0.00  0.00    +0.000 C 
ATOM     31  C   UNL     1       3.289   2.544  20.261  0.00  0.00    +0.000 C 
ENDBRANCH  25  26
ENDBRANCH  24  25
ENDBRANCH  22  24
ENDBRANCH  19  20
ENDBRANCH  18  19
ENDBRANCH   6  18
TORSDOF 9
ENDMDL
MODEL 2
REMARK VINA RESULT:      -6.8      4.850     10.024
REMARK  Name = 
REMARK  10 active torsions:
REMARK  status: ('A' for Active; 'I' for Inactive)
REMARK    1  A    between atoms: C_1  and  N_2
REMARK    2  A    between atoms: C_3  and  C_4
REMARK    3  A    between atoms: C_4  and  S_5
REMARK    4  A    between atoms: S_5  and  C_6
REMARK    5  A    between atoms: C_17  and  S_18
REMARK    6  A    between atoms: S_18  and  C_19
REMARK    7  A    between atoms: C_19  and  C_20
REMARK    8  A    between atoms: N_22  and  C_23
REMARK    9  A    between atoms: C_23  and  C_24
REMARK   10  A    between atoms: C_24  and  N_25
REMARK                            x       y       z     vdW  Elec       q    Type
REMARK                         _______ _______ _______ _____ _____    ______ ____
ROOT
ATOM      1  C   UNL     1       3.004   4.298  17.276  0.00  0.00    +0.000 C 
ATOM      2  N   UNL     1       3.727   3.758  18.393  0.00  0.00    +0.000 N 
ATOM      3  C   UNL     1       4.876   4.255  18.973  0.00  0.00    +0.000 A 
ATOM      4  N   UNL     1       5.153   3.532  20.043  0.00  0.00    +0.000 NA
ATOM      5  N   UNL     1       4.217   2.534  20.150  0.00  0.00    +0.000 NA
ATOM      6  C   UNL     1       3.376   2.672  19.153  0.00  0.00    +0.000 A 
ENDROOT
BRANCH   3   7
ATOM      7  C   UNL     1       5.650   5.439  18.498  0.00  0.00    +0.000 C 
BRANCH   7   8
ATOM      8  S   UNL     1       7.284   5.007  17.862  0.00  0.00    +0.000 S 
BRANCH   8   9
ATOM      9  C   UNL     1       7.007   4.837  16.142  0.00  0.00    +0.000 A 
ATOM     10  N   UNL     1       7.633   5.543  15.224  0.00  0.00    +0.000 NA
ATOM     11  C   UNL     1       7.322   5.032  13.965  0.00  0.00    +0.000 A 
ATOM     12  C   UNL     1       7.842   5.472  12.727  0.00  0.00    +0.000 A 
ATOM     13  C   UNL     1       7.489   4.809  11.542  0.00  0.00    +0.000 A 
ATOM     14  C   UNL     1       6.611   3.731  11.569  0.00  0.00    +0.000 A 
ATOM     15  C   UNL     1       6.054   3.298  12.774  0.00  0.00    +0.000 A 
ATOM     16  C   UNL     1       6.430   3.957  13.957  0.00  0.00    +0.000 A 
ATOM     17  S   UNL     1       5.944   3.621  15.568  0.00  0.00    +0.000 S 
ENDBRANCH   8   9
ENDBRANCH   7   8
ENDBRANCH   3   7
BRANCH   6  18
ATOM     18  S   UNL     1       2.022   1.646  18.806  0.00  0.00    +0.000 S 
BRANCH  18  19
ATOM     19  C   UNL     1       0.654   2.745  19.278  0.00  0.00    +0.000 C 
BRANCH  19  20
ATOM     20  C   UNL     1       1.091   3.714  20.366  0.00  0.00    +0.000 C 
ATOM     21  O   UNL     1       1.331   3.345  21.512  0.00  0.00    +0.000 OA
ATOM     22  N   UNL     1       1.135   5.038  19.986  0.00  0.00    +0.000 N 
ATOM     23  H   UNL     1       1.315   5.219  19.004  0.00  0.00    +0.000 HD
BRANCH  22  24
ATOM     24  C   UNL     1       1.570   6.092  20.903  0.00  0.00    +0.000 C 
BRANCH  24  25
ATOM     25  C   UNL     1       2.100   7.334  20.150  0.00  0.00    +0.000 C 
BRANCH  25  26
ATOM     26  N   UNL     1       1.421   8.508  20.679  0.00  0.00    +0.000 NA
ATOM     27  C   UNL     1       0.952   9.482  19.687  0.00  0.00    +0.000 C 
ATOM     28  C   UNL     1       0.772  10.805  20.442  0.00  0.00    +0.000 C 
ATOM     29  O   UNL     1      -0.217  10.671  21.477  0.00  0.00    +0.000 OA
ATOM     30  C   UNL     1       0.132   9.615  22.391  0.00  0.00    +0.000 C 
ATOM     31  C   UNL     1       0.366   8.275  21.667  0.00  0.00    +0.000 C 
ENDBRANCH  25  26
ENDBRANCH  24  25
ENDBRANCH  22  24
ENDBRANCH  19  20
ENDBRANCH  18  19
ENDBRANCH   6  18
TORSDOF 9
ENDMDL
MODEL 3
REMARK VINA RESULT:      -6.7      3.293      9.914
REMARK  Name = 
REMARK  10 active torsions:
REMARK  status: ('A' for Active; 'I' for Inactive)
REMARK    1  A    between atoms: C_1  and  N_2
REMARK    2  A    between atoms: C_3  and  C_4
REMARK    3  A    between atoms: C_4  and  S_5
REMARK    4  A    between atoms: S_5  and  C_6
REMARK    5  A    between atoms: C_17  and  S_18
REMARK    6  A    between atoms: S_18  and  C_19
REMARK    7  A    between atoms: C_19  and  C_20
REMARK    8  A    between atoms: N_22  and  C_23
REMARK    9  A    between atoms: C_23  and  C_24
REMARK   10  A    between atoms: C_24  and  N_25
REMARK                            x       y       z     vdW  Elec       q    Type
REMARK                         _______ _______ _______ _____ _____    ______ ____
ROOT
ATOM      1  C   UNL     1       2.091   4.151  21.118  0.00  0.00    +0.000 C 
ATOM      2  N   UNL     1       1.937   4.560  19.750  0.00  0.00    +0.000 N 
ATOM      3  C   UNL     1       1.829   3.753  18.635  0.00  0.00    +0.000 A 
ATOM      4  N   UNL     1       1.586   4.517  17.586  0.00  0.00    +0.000 NA
ATOM      5  N   UNL     1       1.574   5.828  17.994  0.00  0.00    +0.000 NA
ATOM      6  C   UNL     1       1.795   5.842  19.286  0.00  0.00    +0.000 A 
ENDROOT
BRANCH   3   7
ATOM      7  C   UNL     1       1.924   2.265  18.625  0.00  0.00    +0.000 C 
BRANCH   7   8
ATOM      8  S   UNL     1       3.626   1.665  18.563  0.00  0.00    +0.000 S 
BRANCH   8   9
ATOM      9  C   UNL     1       4.552   3.127  18.298  0.00  0.00    +0.000 A 
ATOM     10  N   UNL     1       5.252   3.732  19.235  0.00  0.00    +0.000 NA
ATOM     11  C   UNL     1       6.013   4.745  18.652  0.00  0.00    +0.000 A 
ATOM     12  C   UNL     1       6.943   5.581  19.309  0.00  0.00    +0.000 A 
ATOM     13  C   UNL     1       7.691   6.513  18.573  0.00  0.00    +0.000 A 
ATOM     14  C   UNL     1       7.511   6.638  17.199  0.00  0.00    +0.000 A 
ATOM     15  C   UNL     1       6.573   5.849  16.530  0.00  0.00    +0.000 A 
ATOM     16  C   UNL     1       5.843   4.906  17.275  0.00  0.00    +0.000 A 
ATOM     17  S   UNL     1       4.667   3.787  16.721  0.00  0.00    +0.000 S 
ENDBRANCH   8   9
ENDBRANCH   7   8
ENDBRANCH   3   7
BRANCH   6  18
ATOM     18  S   UNL     1       1.914   7.251  20.289  0.00  0.00    +0.000 S 
BRANCH  18  19
ATOM     19  C   UNL     1       1.962   8.550  19.018  0.00  0.00    +0.000 C 
BRANCH  19  20
ATOM     20  C   UNL     1       1.095   9.732  19.423  0.00  0.00    +0.000 C 
ATOM     21  O   UNL     1       0.852   9.993  20.598  0.00  0.00    +0.000 OA
ATOM     22  N   UNL     1       0.554  10.445  18.375  0.00  0.00    +0.000 N 
ATOM     23  H   UNL     1       1.079  10.438  17.507  0.00  0.00    +0.000 HD
BRANCH  22  24
ATOM     24  C   UNL     1      -0.274  11.632  18.592  0.00  0.00    +0.000 C 
BRANCH  24  25
ATOM     25  C   UNL     1      -1.708  11.267  19.040  0.00  0.00    +0.000 C 
BRANCH  25  26
ATOM     26  N   UNL     1      -2.558  11.241  17.859  0.00  0.00    +0.000 NA
ATOM     27  C   UNL     1      -2.291  10.166  16.897  0.00  0.00    +0.000 C 
ATOM     28  C   UNL     1      -2.894  10.628  15.564  0.00  0.00    +0.000 C 
ATOM     29  O   UNL     1      -4.315  10.813  15.684  0.00  0.00    +0.000 OA
ATOM     30  C   UNL     1      -4.627  11.753  16.729  0.00  0.00    +0.000 C 
ATOM     31  C   UNL     1      -4.002  11.349  18.078  0.00  0.00    +0.000 C 
ENDBRANCH  25  26
ENDBRANCH  24  25
ENDBRANCH  22  24
ENDBRANCH  19  20
ENDBRANCH  18  19
ENDBRANCH   6  18
TORSDOF 9
ENDMDL
MODEL 4
REMARK VINA RESULT:      -6.5      7.390     10.586
REMARK  Name = 
REMARK  10 active torsions:
REMARK  status: ('A' for Active; 'I' for Inactive)
REMARK    1  A    between atoms: C_1  and  N_2
REMARK    2  A    between atoms: C_3  and  C_4
REMARK    3  A    between atoms: C_4  and  S_5
REMARK    4  A    between atoms: S_5  and  C_6
REMARK    5  A    between atoms: C_17  and  S_18
REMARK    6  A    between atoms: S_18  and  C_19
REMARK    7  A    between atoms: C_19  and  C_20
REMARK    8  A    between atoms: N_22  and  C_23
REMARK    9  A    between atoms: C_23  and  C_24
REMARK   10  A    between atoms: C_24  and  N_25
REMARK                            x       y       z     vdW  Elec       q    Type
REMARK                         _______ _______ _______ _____ _____    ______ ____
ROOT
ATOM      1  C   UNL     1       8.350   5.988  19.674  0.00  0.00    +0.000 C 
ATOM      2  N   UNL     1       7.932   6.590  18.439  0.00  0.00    +0.000 N 
ATOM      3  C   UNL     1       7.287   5.983  17.381  0.00  0.00    +0.000 A 
ATOM      4  N   UNL     1       6.979   6.908  16.491  0.00  0.00    +0.000 NA
ATOM      5  N   UNL     1       7.454   8.117  16.935  0.00  0.00    +0.000 NA
ATOM      6  C   UNL     1       8.031   7.913  18.095  0.00  0.00    +0.000 A 
ENDROOT
BRANCH   3   7
ATOM      7  C   UNL     1       6.952   4.533  17.280  0.00  0.00    +0.000 C 
BRANCH   7   8
ATOM      8  S   UNL     1       5.521   4.209  16.228  0.00  0.00    +0.000 S 
BRANCH   8   9
ATOM      9  C   UNL     1       4.197   4.139  17.370  0.00  0.00    +0.000 A 
ATOM     10  N   UNL     1       3.112   3.414  17.192  0.00  0.00    +0.000 NA
ATOM     11  C   UNL     1       2.354   3.435  18.362  0.00  0.00    +0.000 A 
ATOM     12  C   UNL     1       1.153   2.730  18.599  0.00  0.00    +0.000 A 
ATOM     13  C   UNL     1       0.538   2.793  19.858  0.00  0.00    +0.000 A 
ATOM     14  C   UNL     1       1.089   3.563  20.877  0.00  0.00    +0.000 A 
ATOM     15  C   UNL     1       2.256   4.299  20.660  0.00  0.00    +0.000 A 
ATOM     16  C   UNL     1       2.874   4.212  19.400  0.00  0.00    +0.000 A 
ATOM     17  S   UNL     1       4.320   4.964  18.867  0.00  0.00    +0.000 S 
ENDBRANCH   8   9
ENDBRANCH   7   8
ENDBRANCH   3   7
BRANCH   6  18
ATOM     18  S   UNL     1       8.823   9.109  19.068  0.00  0.00    +0.000 S 
BRANCH  18  19
ATOM     19  C   UNL     1       8.544  10.590  18.053  0.00  0.00    +0.000 C 
BRANCH  19  20
ATOM     20  C   UNL     1       9.726  11.542  18.151  0.00  0.00    +0.000 C 
ATOM     21  O   UNL     1      10.870  11.195  17.869  0.00  0.00    +0.000 OA
ATOM     22  N   UNL     1       9.427  12.796  18.638  0.00  0.00    +0.000 N 
ATOM     23  H   UNL     1       8.483  13.130  18.475  0.00  0.00    +0.000 HD
BRANCH  22  24
ATOM     24  C   UNL     1      10.444  13.842  18.761  0.00  0.00    +0.000 C 
BRANCH  24  25
ATOM     25  C   UNL     1       9.825  15.219  19.090  0.00  0.00    +0.000 C 
BRANCH  25  26
ATOM     26  N   UNL     1       8.376  15.078  19.077  0.00  0.00    +0.000 NA
ATOM     27  C   UNL     1       7.667  15.616  20.244  0.00  0.00    +0.000 C 
ATOM     28  C   UNL     1       6.302  14.916  20.273  0.00  0.00    +0.000 C 
ATOM     29  O   UNL     1       5.550  15.213  19.084  0.00  0.00    +0.000 OA
ATOM     30  C   UNL     1       6.283  14.838  17.903  0.00  0.00    +0.000 C 
ATOM     31  C   UNL     1       7.680  15.486  17.856  0.00  0.00    +0.000 C 
ENDBRANCH  25  26
ENDBRANCH  24  25
ENDBRANCH  22  24
ENDBRANCH  19  20
ENDBRANCH  18  19
ENDBRANCH   6  18
TORSDOF 9
ENDMDL
MODEL 5
REMARK VINA RESULT:      -6.5      2.788      4.680
REMARK  Name = 
REMARK  10 active torsions:
REMARK  status: ('A' for Active; 'I' for Inactive)
REMARK    1  A    between atoms: C_1  and  N_2
REMARK    2  A    between atoms: C_3  and  C_4
REMARK    3  A    between atoms: C_4  and  S_5
REMARK    4  A    between atoms: S_5  and  C_6
REMARK    5  A    between atoms: C_17  and  S_18
REMARK    6  A    between atoms: S_18  and  C_19
REMARK    7  A    between atoms: C_19  and  C_20
REMARK    8  A    between atoms: N_22  and  C_23
REMARK    9  A    between atoms: C_23  and  C_24
REMARK   10  A    between atoms: C_24  and  N_25
REMARK                            x       y       z     vdW  Elec       q    Type
REMARK                         _______ _______ _______ _____ _____    ______ ____
ROOT
ATOM      1  C   UNL     1      -2.765   9.848  16.760  0.00  0.00    +0.000 C 
ATOM      2  N   UNL     1      -2.657  10.708  17.904  0.00  0.00    +0.000 N 
ATOM      3  C   UNL     1      -3.620  11.556  18.416  0.00  0.00    +0.000 A 
ATOM      4  N   UNL     1      -3.164  12.079  19.538  0.00  0.00    +0.000 NA
ATOM      5  N   UNL     1      -1.889  11.616  19.751  0.00  0.00    +0.000 NA
ATOM      6  C   UNL     1      -1.594  10.806  18.763  0.00  0.00    +0.000 A 
ENDROOT
BRANCH   3   7
ATOM      7  C   UNL     1      -4.967  11.802  17.825  0.00  0.00    +0.000 C 
BRANCH   7   8
ATOM      8  S   UNL     1      -6.255  10.760  18.543  0.00  0.00    +0.000 S 
BRANCH   8   9
ATOM      9  C   UNL     1      -6.841  11.722  19.883  0.00  0.00    +0.000 A 
ATOM     10  N   UNL     1      -6.747  11.357  21.145  0.00  0.00    +0.000 NA
ATOM     11  C   UNL     1      -7.132  12.423  21.957  0.00  0.00    +0.000 A 
ATOM     12  C   UNL     1      -7.110  12.454  23.370  0.00  0.00    +0.000 A 
ATOM     13  C   UNL     1      -7.460  13.629  24.051  0.00  0.00    +0.000 A 
ATOM     14  C   UNL     1      -7.852  14.765  23.349  0.00  0.00    +0.000 A 
ATOM     15  C   UNL     1      -7.917  14.751  21.954  0.00  0.00    +0.000 A 
ATOM     16  C   UNL     1      -7.544  13.574  21.282  0.00  0.00    +0.000 A 
ATOM     17  S   UNL     1      -7.488  13.282  19.592  0.00  0.00    +0.000 S 
ENDBRANCH   8   9
ENDBRANCH   7   8
ENDBRANCH   3   7
BRANCH   6  18
ATOM     18  S   UNL     1      -0.088   9.978  18.534  0.00  0.00    +0.000 S 
BRANCH  18  19
ATOM     19  C   UNL     1       0.626  10.138  20.197  0.00  0.00    +0.000 C 
BRANCH  19  20
ATOM     20  C   UNL     1       1.333   8.855  20.606  0.00  0.00    +0.000 C 
ATOM     21  O   UNL     1       1.465   8.528  21.783  0.00  0.00    +0.000 OA
ATOM     22  N   UNL     1       1.866   8.124  19.567  0.00  0.00    +0.000 N 
ATOM     23  H   UNL     1       1.406   8.219  18.668  0.00  0.00    +0.000 HD
BRANCH  22  24
ATOM     24  C   UNL     1       2.546   6.847  19.787  0.00  0.00    +0.000 C 
BRANCH  24  25
ATOM     25  C   UNL     1       1.562   5.730  20.204  0.00  0.00    +0.000 C 
BRANCH  25  26
ATOM     26  N   UNL     1       1.826   4.562  19.375  0.00  0.00    +0.000 NA
ATOM     27  C   UNL     1       1.068   3.352  19.709  0.00  0.00    +0.000 C 
ATOM     28  C   UNL     1       1.851   2.179  19.106  0.00  0.00    +0.000 C 
ATOM     29  O   UNL     1       1.936   2.304  17.676  0.00  0.00    +0.000 OA
ATOM     30  C   UNL     1       2.540   3.556  17.302  0.00  0.00    +0.000 C 
ATOM     31  C   UNL     1       1.808   4.761  17.924  0.00  0.00    +0.000 C 
ENDBRANCH  25  26
ENDBRANCH  24  25
ENDBRANCH  22  24
ENDBRANCH  19  20
ENDBRANCH  18  19
ENDBRANCH   6  18
TORSDOF 9
ENDMDL
MODEL 6
REMARK VINA RESULT:      -6.4      1.884      3.828
REMARK  Name = 
REMARK  10 active torsions:
REMARK  status: ('A' for Active; 'I' for Inactive)
REMARK    1  A    between atoms: C_1  and  N_2
REMARK    2  A    between atoms: C_3  and  C_4
REMARK    3  A    between atoms: C_4  and  S_5
REMARK    4  A    between atoms: S_5  and  C_6
REMARK    5  A    between atoms: C_17  and  S_18
REMARK    6  A    between atoms: S_18  and  C_19
REMARK    7  A    between atoms: C_19  and  C_20
REMARK    8  A    between atoms: N_22  and  C_23
REMARK    9  A    between atoms: C_23  and  C_24
REMARK   10  A    between atoms: C_24  and  N_25
REMARK                            x       y       z     vdW  Elec       q    Type
REMARK                         _______ _______ _______ _____ _____    ______ ____
ROOT
ATOM      1  C   UNL     1       0.659  10.558  18.970  0.00  0.00    +0.000 C 
ATOM      2  N   UNL     1       0.743  10.197  20.356  0.00  0.00    +0.000 N 
ATOM      3  C   UNL     1       0.331  10.937  21.447  0.00  0.00    +0.000 A 
ATOM      4  N   UNL     1       0.478  10.201  22.533  0.00  0.00    +0.000 NA
ATOM      5  N   UNL     1       1.024   8.994  22.173  0.00  0.00    +0.000 NA
ATOM      6  C   UNL     1       1.187   9.007  20.871  0.00  0.00    +0.000 A 
ENDROOT
BRANCH   3   7
ATOM      7  C   UNL     1      -0.230  12.318  21.401  0.00  0.00    +0.000 C 
BRANCH   7   8
ATOM      8  S   UNL     1      -1.405  12.649  22.732  0.00  0.00    +0.000 S 
BRANCH   8   9
ATOM      9  C   UNL     1      -2.956  12.550  21.926  0.00  0.00    +0.000 A 
ATOM     10  N   UNL     1      -4.106  12.454  22.558  0.00  0.00    +0.000 NA
ATOM     11  C   UNL     1      -5.144  12.588  21.637  0.00  0.00    +0.000 A 
ATOM     12  C   UNL     1      -6.528  12.606  21.925  0.00  0.00    +0.000 A 
ATOM     13  C   UNL     1      -7.456  12.821  20.896  0.00  0.00    +0.000 A 
ATOM     14  C   UNL     1      -7.030  12.996  19.583  0.00  0.00    +0.000 A 
ATOM     15  C   UNL     1      -5.672  12.946  19.264  0.00  0.00    +0.000 A 
ATOM     16  C   UNL     1      -4.749  12.750  20.307  0.00  0.00    +0.000 A 
ATOM     17  S   UNL     1      -3.037  12.686  20.220  0.00  0.00    +0.000 S 
ENDBRANCH   8   9
ENDBRANCH   7   8
ENDBRANCH   3   7
BRANCH   6  18
ATOM     18  S   UNL     1       1.874   7.736  19.914  0.00  0.00    +0.000 S 
BRANCH  18  19
ATOM     19  C   UNL     1       1.470   6.297  20.946  0.00  0.00    +0.000 C 
BRANCH  19  20
ATOM     20  C   UNL     1       1.768   5.002  20.207  0.00  0.00    +0.000 C 
ATOM     21  O   UNL     1       0.930   4.112  20.082  0.00  0.00    +0.000 OA
ATOM     22  N   UNL     1       3.061   4.875  19.746  0.00  0.00    +0.000 N 
ATOM     23  H   UNL     1       3.549   5.739  19.532  0.00  0.00    +0.000 HD
BRANCH  22  24
ATOM     24  C   UNL     1       3.501   3.706  18.984  0.00  0.00    +0.000 C 
BRANCH  24  25
ATOM     25  C   UNL     1       5.041   3.613  18.901  0.00  0.00    +0.000 C 
BRANCH  25  26
ATOM     26  N   UNL     1       5.507   4.631  17.970  0.00  0.00    +0.000 NA
ATOM     27  C   UNL     1       6.961   4.797  17.874  0.00  0.00    +0.000 C 
ATOM     28  C   UNL     1       7.192   6.197  17.291  0.00  0.00    +0.000 C 
ATOM     29  O   UNL     1       6.616   6.304  15.977  0.00  0.00    +0.000 OA
ATOM     30  C   UNL     1       5.210   5.997  16.004  0.00  0.00    +0.000 C 
ATOM     31  C   UNL     1       4.930   4.615  16.625  0.00  0.00    +0.000 C 
ENDBRANCH  25  26
ENDBRANCH  24  25
ENDBRANCH  22  24
ENDBRANCH  19  20
ENDBRANCH  18  19
ENDBRANCH   6  18
TORSDOF 9
ENDMDL
MODEL 7
REMARK VINA RESULT:      -6.4      3.946     10.988
REMARK  Name = 
REMARK  10 active torsions:
REMARK  status: ('A' for Active; 'I' for Inactive)
REMARK    1  A    between atoms: C_1  and  N_2
REMARK    2  A    between atoms: C_3  and  C_4
REMARK    3  A    between atoms: C_4  and  S_5
REMARK    4  A    between atoms: S_5  and  C_6
REMARK    5  A    between atoms: C_17  and  S_18
REMARK    6  A    between atoms: S_18  and  C_19
REMARK    7  A    between atoms: C_19  and  C_20
REMARK    8  A    between atoms: N_22  and  C_23
REMARK    9  A    between atoms: C_23  and  C_24
REMARK   10  A    between atoms: C_24  and  N_25
REMARK                            x       y       z     vdW  Elec       q    Type
REMARK                         _______ _______ _______ _____ _____    ______ ____
ROOT
ATOM      1  C   UNL     1       0.981  10.456  18.561  0.00  0.00    +0.000 C 
ATOM      2  N   UNL     1       0.745   9.674  19.741  0.00  0.00    +0.000 N 
ATOM      3  C   UNL     1       1.330   8.472  20.088  0.00  0.00    +0.000 A 
ATOM      4  N   UNL     1       0.927   8.144  21.302  0.00  0.00    +0.000 NA
ATOM      5  N   UNL     1       0.048   9.101  21.744  0.00  0.00    +0.000 NA
ATOM      6  C   UNL     1      -0.061  10.004  20.799  0.00  0.00    +0.000 A 
ENDROOT
BRANCH   3   7
ATOM      7  C   UNL     1       2.291   7.697  19.250  0.00  0.00    +0.000 C 
BRANCH   7   8
ATOM      8  S   UNL     1       2.434   5.969  19.754  0.00  0.00    +0.000 S 
BRANCH   8   9
ATOM      9  C   UNL     1       3.689   5.352  18.702  0.00  0.00    +0.000 A 
ATOM     10  N   UNL     1       3.492   5.010  17.447  0.00  0.00    +0.000 NA
ATOM     11  C   UNL     1       4.723   4.744  16.848  0.00  0.00    +0.000 A 
ATOM     12  C   UNL     1       4.945   4.407  15.494  0.00  0.00    +0.000 A 
ATOM     13  C   UNL     1       6.254   4.238  15.018  0.00  0.00    +0.000 A 
ATOM     14  C   UNL     1       7.342   4.379  15.873  0.00  0.00    +0.000 A 
ATOM     15  C   UNL     1       7.150   4.676  17.224  0.00  0.00    +0.000 A 
ATOM     16  C   UNL     1       5.835   4.862  17.685  0.00  0.00    +0.000 A 
ATOM     17  S   UNL     1       5.306   5.270  19.265  0.00  0.00    +0.000 S 
ENDBRANCH   8   9
ENDBRANCH   7   8
ENDBRANCH   3   7
BRANCH   6  18
ATOM     18  S   UNL     1      -1.076  11.409  20.840  0.00  0.00    +0.000 S 
BRANCH  18  19
ATOM     19  C   UNL     1      -0.099  12.483  21.932  0.00  0.00    +0.000 C 
BRANCH  19  20
ATOM     20  C   UNL     1      -1.000  13.453  22.681  0.00  0.00    +0.000 C 
ATOM     21  O   UNL     1      -0.666  14.614  22.907  0.00  0.00    +0.000 OA
ATOM     22  N   UNL     1      -2.183  12.916  23.140  0.00  0.00    +0.000 N 
ATOM     23  H   UNL     1      -2.558  12.136  22.610  0.00  0.00    +0.000 HD
BRANCH  22  24
ATOM     24  C   UNL     1      -3.177  13.724  23.848  0.00  0.00    +0.000 C 
BRANCH  24  25
ATOM     25  C   UNL     1      -4.165  14.410  22.877  0.00  0.00    +0.000 C 
BRANCH  25  26
ATOM     26  N   UNL     1      -5.359  13.582  22.787  0.00  0.00    +0.000 NA
ATOM     27  C   UNL     1      -5.434  12.688  21.626  0.00  0.00    +0.000 C 
ATOM     28  C   UNL     1      -6.918  12.340  21.453  0.00  0.00    +0.000 C 
ATOM     29  O   UNL     1      -7.421  11.653  22.612  0.00  0.00    +0.000 OA
ATOM     30  C   UNL     1      -7.225  12.440  23.802  0.00  0.00    +0.000 C 
ATOM     31  C   UNL     1      -5.751  12.849  23.991  0.00  0.00    +0.000 C 
ENDBRANCH  25  26
ENDBRANCH  24  25
ENDBRANCH  22  24
ENDBRANCH  19  20
ENDBRANCH  18  19
ENDBRANCH   6  18
TORSDOF 9
ENDMDL
MODEL 8
REMARK VINA RESULT:      -6.3      3.069      4.925
REMARK  Name = 
REMARK  10 active torsions:
REMARK  status: ('A' for Active; 'I' for Inactive)
REMARK    1  A    between atoms: C_1  and  N_2
REMARK    2  A    between atoms: C_3  and  C_4
REMARK    3  A    between atoms: C_4  and  S_5
REMARK    4  A    between atoms: S_5  and  C_6
REMARK    5  A    between atoms: C_17  and  S_18
REMARK    6  A    between atoms: S_18  and  C_19
REMARK    7  A    between atoms: C_19  and  C_20
REMARK    8  A    between atoms: N_22  and  C_23
REMARK    9  A    between atoms: C_23  and  C_24
REMARK   10  A    between atoms: C_24  and  N_25
REMARK                            x       y       z     vdW  Elec       q    Type
REMARK                         _______ _______ _______ _____ _____    ______ ____
ROOT
ATOM      1  C   UNL     1       1.515  10.116  18.194  0.00  0.00    +0.000 C 
ATOM      2  N   UNL     1       1.191   9.745  19.542  0.00  0.00    +0.000 N 
ATOM      3  C   UNL     1       0.518  10.495  20.485  0.00  0.00    +0.000 A 
ATOM      4  N   UNL     1       0.325   9.748  21.556  0.00  0.00    +0.000 NA
ATOM      5  N   UNL     1       0.902   8.521  21.343  0.00  0.00    +0.000 NA
ATOM      6  C   UNL     1       1.425   8.534  20.140  0.00  0.00    +0.000 A 
ENDROOT
BRANCH   3   7
ATOM      7  C   UNL     1       0.048  11.900  20.307  0.00  0.00    +0.000 C 
BRANCH   7   8
ATOM      8  S   UNL     1      -1.748  12.034  20.186  0.00  0.00    +0.000 S 
BRANCH   8   9
ATOM      9  C   UNL     1      -2.179  12.922  21.632  0.00  0.00    +0.000 A 
ATOM     10  N   UNL     1      -1.305  13.342  22.522  0.00  0.00    +0.000 NA
ATOM     11  C   UNL     1      -1.952  14.170  23.439  0.00  0.00    +0.000 A 
ATOM     12  C   UNL     1      -1.351  14.870  24.510  0.00  0.00    +0.000 A 
ATOM     13  C   UNL     1      -2.123  15.726  25.309  0.00  0.00    +0.000 A 
ATOM     14  C   UNL     1      -3.485  15.879  25.073  0.00  0.00    +0.000 A 
ATOM     15  C   UNL     1      -4.111  15.172  24.044  0.00  0.00    +0.000 A 
ATOM     16  C   UNL     1      -3.324  14.332  23.237  0.00  0.00    +0.000 A 
ATOM     17  S   UNL     1      -3.808  13.383  21.892  0.00  0.00    +0.000 S 
ENDBRANCH   8   9
ENDBRANCH   7   8
ENDBRANCH   3   7
BRANCH   6  18
ATOM     18  S   UNL     1       2.303   7.240  19.392  0.00  0.00    +0.000 S 
BRANCH  18  19
ATOM     19  C   UNL     1       1.894   5.876  20.522  0.00  0.00    +0.000 C 
BRANCH  19  20
ATOM     20  C   UNL     1       2.598   4.596  20.098  0.00  0.00    +0.000 C 
ATOM     21  O   UNL     1       2.077   3.491  20.224  0.00  0.00    +0.000 OA
ATOM     22  N   UNL     1       3.881   4.764  19.625  0.00  0.00    +0.000 N 
ATOM     23  H   UNL     1       4.088   5.658  19.191  0.00  0.00    +0.000 HD
BRANCH  22  24
ATOM     24  C   UNL     1       4.682   3.638  19.142  0.00  0.00    +0.000 C 
BRANCH  24  25
ATOM     25  C   UNL     1       4.499   3.402  17.626  0.00  0.00    +0.000 C 
BRANCH  25  26
ATOM     26  N   UNL     1       5.427   4.272  16.917  0.00  0.00    +0.000 NA
ATOM     27  C   UNL     1       6.607   4.705  17.674  0.00  0.00    +0.000 C 
ATOM     28  C   UNL     1       7.124   5.966  16.970  0.00  0.00    +0.000 C 
ATOM     29  O   UNL     1       7.512   5.672  15.616  0.00  0.00    +0.000 OA
ATOM     30  C   UNL     1       6.417   5.098  14.879  0.00  0.00    +0.000 C 
ATOM     31  C   UNL     1       5.838   3.853  15.576  0.00  0.00    +0.000 C 
ENDBRANCH  25  26
ENDBRANCH  24  25
ENDBRANCH  22  24
ENDBRANCH  19  20
ENDBRANCH  18  19
ENDBRANCH   6  18
TORSDOF 9
ENDMDL
MODEL 9
REMARK VINA RESULT:      -6.2      1.593      3.641
REMARK  Name = 
REMARK  10 active torsions:
REMARK  status: ('A' for Active; 'I' for Inactive)
REMARK    1  A    between atoms: C_1  and  N_2
REMARK    2  A    between atoms: C_3  and  C_4
REMARK    3  A    between atoms: C_4  and  S_5
REMARK    4  A    between atoms: S_5  and  C_6
REMARK    5  A    between atoms: C_17  and  S_18
REMARK    6  A    between atoms: S_18  and  C_19
REMARK    7  A    between atoms: C_19  and  C_20
REMARK    8  A    between atoms: N_22  and  C_23
REMARK    9  A    between atoms: C_23  and  C_24
REMARK   10  A    between atoms: C_24  and  N_25
REMARK                            x       y       z     vdW  Elec       q    Type
REMARK                         _______ _______ _______ _____ _____    ______ ____
ROOT
ATOM      1  C   UNL     1       1.403   9.721  17.888  0.00  0.00    +0.000 C 
ATOM      2  N   UNL     1       0.798   9.672  19.190  0.00  0.00    +0.000 N 
ATOM      3  C   UNL     1      -0.195  10.490  19.690  0.00  0.00    +0.000 A 
ATOM      4  N   UNL     1      -0.549  10.041  20.880  0.00  0.00    +0.000 NA
ATOM      5  N   UNL     1       0.233   8.956  21.187  0.00  0.00    +0.000 NA
ATOM      6  C   UNL     1       1.041   8.751  20.175  0.00  0.00    +0.000 A 
ENDROOT
BRANCH   3   7
ATOM      7  C   UNL     1      -0.799  11.658  18.985  0.00  0.00    +0.000 C 
BRANCH   7   8
ATOM      8  S   UNL     1      -1.806  11.182  17.564  0.00  0.00    +0.000 S 
BRANCH   8   9
ATOM      9  C   UNL     1      -3.432  11.569  18.082  0.00  0.00    +0.000 A 
ATOM     10  N   UNL     1      -3.725  12.080  19.259  0.00  0.00    +0.000 NA
ATOM     11  C   UNL     1      -5.072  12.442  19.276  0.00  0.00    +0.000 A 
ATOM     12  C   UNL     1      -5.757  13.081  20.334  0.00  0.00    +0.000 A 
ATOM     13  C   UNL     1      -7.102  13.450  20.177  0.00  0.00    +0.000 A 
ATOM     14  C   UNL     1      -7.779  13.172  18.994  0.00  0.00    +0.000 A 
ATOM     15  C   UNL     1      -7.136  12.509  17.946  0.00  0.00    +0.000 A 
ATOM     16  C   UNL     1      -5.783  12.163  18.107  0.00  0.00    +0.000 A 
ATOM     17  S   UNL     1      -4.739  11.387  16.988  0.00  0.00    +0.000 S 
ENDBRANCH   8   9
ENDBRANCH   7   8
ENDBRANCH   3   7
BRANCH   6  18
ATOM     18  S   UNL     1       2.258   7.520  20.070  0.00  0.00    +0.000 S 
BRANCH  18  19
ATOM     19  C   UNL     1       1.379   6.128  20.838  0.00  0.00    +0.000 C 
BRANCH  19  20
ATOM     20  C   UNL     1       1.745   4.818  20.158  0.00  0.00    +0.000 C 
ATOM     21  O   UNL     1       0.981   3.857  20.136  0.00  0.00    +0.000 OA
ATOM     22  N   UNL     1       3.016   4.770  19.628  0.00  0.00    +0.000 N 
ATOM     23  H   UNL     1       3.416   5.656  19.335  0.00  0.00    +0.000 HD
BRANCH  22  24
ATOM     24  C   UNL     1       3.512   3.595  18.909  0.00  0.00    +0.000 C 
BRANCH  24  25
ATOM     25  C   UNL     1       5.056   3.534  18.892  0.00  0.00    +0.000 C 
BRANCH  25  26
ATOM     26  N   UNL     1       5.539   4.553  17.971  0.00  0.00    +0.000 NA
ATOM     27  C   UNL     1       6.993   4.741  17.924  0.00  0.00    +0.000 C 
ATOM     28  C   UNL     1       7.223   6.140  17.341  0.00  0.00    +0.000 C 
ATOM     29  O   UNL     1       6.692   6.231  16.007  0.00  0.00    +0.000 OA
ATOM     30  C   UNL     1       5.290   5.903  15.987  0.00  0.00    +0.000 C 
ATOM     31  C   UNL     1       5.010   4.520  16.607  0.00  0.00    +0.000 C 
ENDBRANCH  25  26
ENDBRANCH  24  25
ENDBRANCH  22  24
ENDBRANCH  19  20
ENDBRANCH  18  19
ENDBRANCH   6  18
TORSDOF 9
ENDMDL
