MODEL 1
REMARK VINA RESULT:      -7.7      0.000      0.000
REMARK  Name = 
REMARK  5 active torsions:
REMARK  status: ('A' for Active; 'I' for Inactive)
REMARK    1  A    between atoms: C_1  and  N_2
REMARK    2  A    between atoms: C_4  and  C_5
REMARK    3  A    between atoms: C_8  and  S_9
REMARK    4  A    between atoms: C_12  and  C_13
REMARK    5  A    between atoms: C_16  and  C_17
REMARK                            x       y       z     vdW  Elec       q    Type
REMARK                         _______ _______ _______ _____ _____    ______ ____
ROOT
ATOM      1  C   UNL     1       3.225   4.549  19.726  0.00  0.00    +0.000 C 
ATOM      2  N   UNL     1       3.716   5.239  18.555  0.00  0.00    +0.000 N 
ATOM      3  N   UNL     1       4.544   4.559  17.730  0.00  0.00    +0.000 NA
ATOM      4  C   UNL     1       4.890   5.452  16.802  0.00  0.00    +0.000 A 
ATOM      5  C   UNL     1       4.262   6.693  17.023  0.00  0.00    +0.000 A 
ATOM      6  C   UNL     1       3.458   6.533  18.141  0.00  0.00    +0.000 A 
ENDROOT
BRANCH   6   7
ATOM      7  C   UNL     1       2.527   7.507  18.735  0.00  0.00    +0.000 A 
ATOM      8  C   UNL     1       2.064   8.579  17.950  0.00  0.00    +0.000 A 
ATOM      9  C   UNL     1       1.204   9.551  18.477  0.00  0.00    +0.000 A 
ATOM     10  C   UNL     1       0.776   9.472  19.803  0.00  0.00    +0.000 A 
ATOM     11  C   UNL     1       1.225   8.402  20.591  0.00  0.00    +0.000 A 
ATOM     12  C   UNL     1       2.100   7.445  20.063  0.00  0.00    +0.000 A 
BRANCH  10  13
ATOM     13  C   UNL     1      -0.142  10.507  20.402  0.00  0.00    +0.000 C 
ATOM     14  F   UNL     1       0.478  11.685  20.692  0.00  0.00    +0.000 F 
ATOM     15  F   UNL     1      -1.180  10.823  19.577  0.00  0.00    +0.000 F 
ATOM     16  F   UNL     1      -0.707  10.088  21.568  0.00  0.00    +0.000 F 
ENDBRANCH  10  13
ENDBRANCH   6   7
BRANCH   4  17
ATOM     17  C   UNL     1       5.814   5.160  15.660  0.00  0.00    +0.000 A 
ATOM     18  N   UNL     1       7.032   5.663  15.565  0.00  0.00    +0.000 NA
ATOM     19  N   UNL     1       7.561   5.205  14.378  0.00  0.00    +0.000 NA
ATOM     20  C   UNL     1       6.629   4.461  13.822  0.00  0.00    +0.000 A 
ATOM     21  O   UNL     1       5.499   4.369  14.580  0.00  0.00    +0.000 OA
BRANCH  20  22
ATOM     22  S   UNL     1       6.814   3.702  12.277  0.00  0.00    +0.000 S 
ATOM     23  H   UNL     1       5.781   2.858  12.415  0.00  0.00    +0.000 HD
ENDBRANCH  20  22
ENDBRANCH   4  17
TORSDOF 4
ENDMDL
MODEL 2
REMARK VINA RESULT:      -7.7      6.162      8.246
REMARK  Name = 
REMARK  5 active torsions:
REMARK  status: ('A' for Active; 'I' for Inactive)
REMARK    1  A    between atoms: C_1  and  N_2
REMARK    2  A    between atoms: C_4  and  C_5
REMARK    3  A    between atoms: C_8  and  S_9
REMARK    4  A    between atoms: C_12  and  C_13
REMARK    5  A    between atoms: C_16  and  C_17
REMARK                            x       y       z     vdW  Elec       q    Type
REMARK                         _______ _______ _______ _____ _____    ______ ____
ROOT
ATOM      1  C   UNL     1       2.253   4.915  20.779  0.00  0.00    +0.000 C 
ATOM      2  N   UNL     1       2.108   6.262  20.276  0.00  0.00    +0.000 N 
ATOM      3  N   UNL     1       1.451   7.152  21.054  0.00  0.00    +0.000 NA
ATOM      4  C   UNL     1       1.405   8.262  20.316  0.00  0.00    +0.000 A 
ATOM      5  C   UNL     1       2.054   8.085  19.079  0.00  0.00    +0.000 A 
ATOM      6  C   UNL     1       2.554   6.792  19.079  0.00  0.00    +0.000 A 
ENDROOT
BRANCH   6   7
ATOM      7  C   UNL     1       3.388   6.143  18.054  0.00  0.00    +0.000 A 
ATOM      8  C   UNL     1       4.304   6.921  17.322  0.00  0.00    +0.000 A 
ATOM      9  C   UNL     1       5.096   6.358  16.313  0.00  0.00    +0.000 A 
ATOM     10  C   UNL     1       4.999   4.998  16.014  0.00  0.00    +0.000 A 
ATOM     11  C   UNL     1       4.096   4.212  16.744  0.00  0.00    +0.000 A 
ATOM     12  C   UNL     1       3.293   4.786  17.738  0.00  0.00    +0.000 A 
BRANCH  10  13
ATOM     13  C   UNL     1       5.831   4.365  14.928  0.00  0.00    +0.000 C 
ATOM     14  F   UNL     1       5.152   4.166  13.764  0.00  0.00    +0.000 F 
ATOM     15  F   UNL     1       6.921   5.116  14.601  0.00  0.00    +0.000 F 
ATOM     16  F   UNL     1       6.316   3.145  15.290  0.00  0.00    +0.000 F 
ENDBRANCH  10  13
ENDBRANCH   6   7
BRANCH   4  17
ATOM     17  C   UNL     1       0.760   9.539  20.762  0.00  0.00    +0.000 A 
ATOM     18  N   UNL     1       1.102  10.177  21.867  0.00  0.00    +0.000 NA
ATOM     19  N   UNL     1       0.278  11.277  21.963  0.00  0.00    +0.000 NA
ATOM     20  C   UNL     1      -0.518  11.234  20.916  0.00  0.00    +0.000 A 
ATOM     21  O   UNL     1      -0.263  10.172  20.098  0.00  0.00    +0.000 OA
BRANCH  20  22
ATOM     22  S   UNL     1      -1.772  12.392  20.627  0.00  0.00    +0.000 S 
ATOM     23  H   UNL     1      -1.042  13.468  20.954  0.00  0.00    +0.000 HD
ENDBRANCH  20  22
ENDBRANCH   4  17
TORSDOF 4
ENDMDL
MODEL 3
REMARK VINA RESULT:      -7.7      0.544      1.417
REMARK  Name = 
REMARK  5 active torsions:
REMARK  status: ('A' for Active; 'I' for Inactive)
REMARK    1  A    between atoms: C_1  and  N_2
REMARK    2  A    between atoms: C_4  and  C_5
REMARK    3  A    between atoms: C_8  and  S_9
REMARK    4  A    between atoms: C_12  and  C_13
REMARK    5  A    between atoms: C_16  and  C_17
REMARK                            x       y       z     vdW  Elec       q    Type
REMARK                         _______ _______ _______ _____ _____    ______ ____
ROOT
ATOM      1  C   UNL     1       2.263   4.214  18.840  0.00  0.00    +0.000 C 
ATOM      2  N   UNL     1       3.135   5.029  18.026  0.00  0.00    +0.000 N 
ATOM      3  N   UNL     1       3.951   4.393  17.154  0.00  0.00    +0.000 NA
ATOM      4  C   UNL     1       4.677   5.371  16.610  0.00  0.00    +0.000 A 
ATOM      5  C   UNL     1       4.306   6.630  17.118  0.00  0.00    +0.000 A 
ATOM      6  C   UNL     1       3.266   6.406  18.006  0.00  0.00    +0.000 A 
ENDROOT
BRANCH   6   7
ATOM      7  C   UNL     1       2.468   7.403  18.738  0.00  0.00    +0.000 A 
ATOM      8  C   UNL     1       2.174   7.182  20.097  0.00  0.00    +0.000 A 
ATOM      9  C   UNL     1       1.391   8.084  20.828  0.00  0.00    +0.000 A 
ATOM     10  C   UNL     1       0.887   9.236  20.224  0.00  0.00    +0.000 A 
ATOM     11  C   UNL     1       1.182   9.470  18.873  0.00  0.00    +0.000 A 
ATOM     12  C   UNL     1       1.949   8.554  18.142  0.00  0.00    +0.000 A 
BRANCH  10  13
ATOM     13  C   UNL     1       0.033  10.220  20.983  0.00  0.00    +0.000 C 
ATOM     14  F   UNL     1      -0.539   9.698  22.103  0.00  0.00    +0.000 F 
ATOM     15  F   UNL     1       0.738  11.311  21.397  0.00  0.00    +0.000 F 
ATOM     16  F   UNL     1      -0.994  10.704  20.232  0.00  0.00    +0.000 F 
ENDBRANCH  10  13
ENDBRANCH   6   7
BRANCH   4  17
ATOM     17  C   UNL     1       5.737   5.151  15.575  0.00  0.00    +0.000 A 
ATOM     18  N   UNL     1       6.960   5.642  15.674  0.00  0.00    +0.000 NA
ATOM     19  N   UNL     1       7.634   5.266  14.532  0.00  0.00    +0.000 NA
ATOM     20  C   UNL     1       6.777   4.580  13.807  0.00  0.00    +0.000 A 
ATOM     21  O   UNL     1       5.559   4.448  14.408  0.00  0.00    +0.000 OA
BRANCH  20  22
ATOM     22  S   UNL     1       7.153   3.936  12.245  0.00  0.00    +0.000 S 
ATOM     23  H   UNL     1       8.427   4.354  12.229  0.00  0.00    +0.000 HD
ENDBRANCH  20  22
ENDBRANCH   4  17
TORSDOF 4
ENDMDL
MODEL 4
REMARK VINA RESULT:      -7.7      0.590      1.006
REMARK  Name = 
REMARK  5 active torsions:
REMARK  status: ('A' for Active; 'I' for Inactive)
REMARK    1  A    between atoms: C_1  and  N_2
REMARK    2  A    between atoms: C_4  and  C_5
REMARK    3  A    between atoms: C_8  and  S_9
REMARK    4  A    between atoms: C_12  and  C_13
REMARK    5  A    between atoms: C_16  and  C_17
REMARK                            x       y       z     vdW  Elec       q    Type
REMARK                         _______ _______ _______ _____ _____    ______ ____
ROOT
ATOM      1  C   UNL     1       1.951   4.310  18.704  0.00  0.00    +0.000 C 
ATOM      2  N   UNL     1       2.905   5.115  17.977  0.00  0.00    +0.000 N 
ATOM      3  N   UNL     1       3.728   4.479  17.112  0.00  0.00    +0.000 NA
ATOM      4  C   UNL     1       4.532   5.441  16.656  0.00  0.00    +0.000 A 
ATOM      5  C   UNL     1       4.204   6.692  17.214  0.00  0.00    +0.000 A 
ATOM      6  C   UNL     1       3.109   6.481  18.038  0.00  0.00    +0.000 A 
ENDROOT
BRANCH   6   7
ATOM      7  C   UNL     1       2.330   7.483  18.783  0.00  0.00    +0.000 A 
ATOM      8  C   UNL     1       1.858   8.625  18.110  0.00  0.00    +0.000 A 
ATOM      9  C   UNL     1       1.141   9.623  18.781  0.00  0.00    +0.000 A 
ATOM     10  C   UNL     1       0.868   9.502  20.145  0.00  0.00    +0.000 A 
ATOM     11  C   UNL     1       1.327   8.364  20.823  0.00  0.00    +0.000 A 
ATOM     12  C   UNL     1       2.060   7.379  20.149  0.00  0.00    +0.000 A 
BRANCH  10  13
ATOM     13  C   UNL     1       0.107  10.564  20.897  0.00  0.00    +0.000 C 
ATOM     14  F   UNL     1      -0.447  10.120  22.059  0.00  0.00    +0.000 F 
ATOM     15  F   UNL     1       0.892  11.625  21.239  0.00  0.00    +0.000 F 
ATOM     16  F   UNL     1      -0.921  11.081  20.168  0.00  0.00    +0.000 F 
ENDBRANCH  10  13
ENDBRANCH   6   7
BRANCH   4  17
ATOM     17  C   UNL     1       5.630   5.216  15.663  0.00  0.00    +0.000 A 
ATOM     18  N   UNL     1       6.852   5.696  15.810  0.00  0.00    +0.000 NA
ATOM     19  N   UNL     1       7.566   5.318  14.695  0.00  0.00    +0.000 NA
ATOM     20  C   UNL     1       6.732   4.641  13.935  0.00  0.00    +0.000 A 
ATOM     21  O   UNL     1       5.491   4.517  14.487  0.00  0.00    +0.000 OA
BRANCH  20  22
ATOM     22  S   UNL     1       7.164   3.998  12.386  0.00  0.00    +0.000 S 
ATOM     23  H   UNL     1       7.697   2.861  12.855  0.00  0.00    +0.000 HD
ENDBRANCH  20  22
ENDBRANCH   4  17
TORSDOF 4
ENDMDL
MODEL 5
REMARK VINA RESULT:      -7.6      6.178      8.309
REMARK  Name = 
REMARK  5 active torsions:
REMARK  status: ('A' for Active; 'I' for Inactive)
REMARK    1  A    between atoms: C_1  and  N_2
REMARK    2  A    between atoms: C_4  and  C_5
REMARK    3  A    between atoms: C_8  and  S_9
REMARK    4  A    between atoms: C_12  and  C_13
REMARK    5  A    between atoms: C_16  and  C_17
REMARK                            x       y       z     vdW  Elec       q    Type
REMARK                         _______ _______ _______ _____ _____    ______ ____
ROOT
ATOM      1  C   UNL     1       2.250   4.999  20.660  0.00  0.00    +0.000 C 
ATOM      2  N   UNL     1       2.102   6.357  20.190  0.00  0.00    +0.000 N 
ATOM      3  N   UNL     1       1.434   7.224  20.986  0.00  0.00    +0.000 NA
ATOM      4  C   UNL     1       1.387   8.353  20.276  0.00  0.00    +0.000 A 
ATOM      5  C   UNL     1       2.047   8.211  19.040  0.00  0.00    +0.000 A 
ATOM      6  C   UNL     1       2.554   6.921  19.011  0.00  0.00    +0.000 A 
ENDROOT
BRANCH   6   7
ATOM      7  C   UNL     1       3.400   6.303  17.977  0.00  0.00    +0.000 A 
ATOM      8  C   UNL     1       3.326   4.912  17.772  0.00  0.00    +0.000 A 
ATOM      9  C   UNL     1       4.134   4.271  16.824  0.00  0.00    +0.000 A 
ATOM     10  C   UNL     1       5.031   5.005  16.047  0.00  0.00    +0.000 A 
ATOM     11  C   UNL     1       5.105   6.393  16.237  0.00  0.00    +0.000 A 
ATOM     12  C   UNL     1       4.309   7.024  17.200  0.00  0.00    +0.000 A 
BRANCH  10  13
ATOM     13  C   UNL     1       5.920   4.343  15.025  0.00  0.00    +0.000 C 
ATOM     14  F   UNL     1       7.110   4.980  14.840  0.00  0.00    +0.000 F 
ATOM     15  F   UNL     1       6.230   3.059  15.359  0.00  0.00    +0.000 F 
ATOM     16  F   UNL     1       5.338   4.278  13.796  0.00  0.00    +0.000 F 
ENDBRANCH  10  13
ENDBRANCH   6   7
BRANCH   4  17
ATOM     17  C   UNL     1       0.732   9.614  20.749  0.00  0.00    +0.000 A 
ATOM     18  N   UNL     1       1.064  10.228  21.870  0.00  0.00    +0.000 NA
ATOM     19  N   UNL     1       0.232  11.320  21.989  0.00  0.00    +0.000 NA
ATOM     20  C   UNL     1      -0.559  11.296  20.938  0.00  0.00    +0.000 A 
ATOM     21  O   UNL     1      -0.293  10.256  20.096  0.00  0.00    +0.000 OA
BRANCH  20  22
ATOM     22  S   UNL     1      -1.820  12.452  20.670  0.00  0.00    +0.000 S 
ATOM     23  H   UNL     1      -1.593  13.162  21.785  0.00  0.00    +0.000 HD
ENDBRANCH  20  22
ENDBRANCH   4  17
TORSDOF 4
ENDMDL
MODEL 6
REMARK VINA RESULT:      -7.5      0.823      1.192
REMARK  Name = 
REMARK  5 active torsions:
REMARK  status: ('A' for Active; 'I' for Inactive)
REMARK    1  A    between atoms: C_1  and  N_2
REMARK    2  A    between atoms: C_4  and  C_5
REMARK    3  A    between atoms: C_8  and  S_9
REMARK    4  A    between atoms: C_12  and  C_13
REMARK    5  A    between atoms: C_16  and  C_17
REMARK                            x       y       z     vdW  Elec       q    Type
REMARK                         _______ _______ _______ _____ _____    ______ ____
ROOT
ATOM      1  C   UNL     1       2.888   3.600  19.080  0.00  0.00    +0.000 C 
ATOM      2  N   UNL     1       3.570   4.488  18.167  0.00  0.00    +0.000 N 
ATOM      3  N   UNL     1       4.366   3.928  17.227  0.00  0.00    +0.000 NA
ATOM      4  C   UNL     1       4.911   4.968  16.595  0.00  0.00    +0.000 A 
ATOM      5  C   UNL     1       4.442   6.190  17.117  0.00  0.00    +0.000 A 
ATOM      6  C   UNL     1       3.529   5.869  18.110  0.00  0.00    +0.000 A 
ENDROOT
BRANCH   6   7
ATOM      7  C   UNL     1       2.693   6.786  18.902  0.00  0.00    +0.000 A 
ATOM      8  C   UNL     1       2.322   8.026  18.349  0.00  0.00    +0.000 A 
ATOM      9  C   UNL     1       1.556   8.947  19.074  0.00  0.00    +0.000 A 
ATOM     10  C   UNL     1       1.131   8.649  20.370  0.00  0.00    +0.000 A 
ATOM     11  C   UNL     1       1.487   7.412  20.926  0.00  0.00    +0.000 A 
ATOM     12  C   UNL     1       2.271   6.504  20.203  0.00  0.00    +0.000 A 
BRANCH  10  13
ATOM     13  C   UNL     1       0.313   9.623  21.179  0.00  0.00    +0.000 C 
ATOM     14  F   UNL     1      -0.840  10.011  20.565  0.00  0.00    +0.000 F 
ATOM     15  F   UNL     1      -0.060   9.114  22.387  0.00  0.00    +0.000 F 
ATOM     16  F   UNL     1       0.993  10.771  21.452  0.00  0.00    +0.000 F 
ENDBRANCH  10  13
ENDBRANCH   6   7
BRANCH   4  17
ATOM     17  C   UNL     1       5.882   4.846  15.462  0.00  0.00    +0.000 A 
ATOM     18  N   UNL     1       7.057   5.450  15.444  0.00  0.00    +0.000 NA
ATOM     19  N   UNL     1       7.650   5.136  14.241  0.00  0.00    +0.000 NA
ATOM     20  C   UNL     1       6.795   4.368  13.599  0.00  0.00    +0.000 A 
ATOM     21  O   UNL     1       5.659   4.124  14.314  0.00  0.00    +0.000 OA
BRANCH  20  22
ATOM     22  S   UNL     1       7.078   3.756  12.005  0.00  0.00    +0.000 S 
ATOM     23  H   UNL     1       6.456   2.584  12.197  0.00  0.00    +0.000 HD
ENDBRANCH  20  22
ENDBRANCH   4  17
TORSDOF 4
ENDMDL
MODEL 7
REMARK VINA RESULT:      -7.4      1.070      1.712
REMARK  Name = 
REMARK  5 active torsions:
REMARK  status: ('A' for Active; 'I' for Inactive)
REMARK    1  A    between atoms: C_1  and  N_2
REMARK    2  A    between atoms: C_4  and  C_5
REMARK    3  A    between atoms: C_8  and  S_9
REMARK    4  A    between atoms: C_12  and  C_13
REMARK    5  A    between atoms: C_16  and  C_17
REMARK                            x       y       z     vdW  Elec       q    Type
REMARK                         _______ _______ _______ _____ _____    ______ ____
ROOT
ATOM      1  C   UNL     1       3.033   3.314  18.963  0.00  0.00    +0.000 C 
ATOM      2  N   UNL     1       3.680   4.260  18.083  0.00  0.00    +0.000 N 
ATOM      3  N   UNL     1       4.462   3.761  17.098  0.00  0.00    +0.000 NA
ATOM      4  C   UNL     1       4.977   4.842  16.509  0.00  0.00    +0.000 A 
ATOM      5  C   UNL     1       4.503   6.027  17.104  0.00  0.00    +0.000 A 
ATOM      6  C   UNL     1       3.618   5.641  18.099  0.00  0.00    +0.000 A 
ENDROOT
BRANCH   6   7
ATOM      7  C   UNL     1       2.787   6.502  18.956  0.00  0.00    +0.000 A 
ATOM      8  C   UNL     1       2.312   5.996  20.180  0.00  0.00    +0.000 A 
ATOM      9  C   UNL     1       1.490   6.763  21.016  0.00  0.00    +0.000 A 
ATOM     10  C   UNL     1       1.128   8.061  20.654  0.00  0.00    +0.000 A 
ATOM     11  C   UNL     1       1.605   8.578  19.441  0.00  0.00    +0.000 A 
ATOM     12  C   UNL     1       2.410   7.799  18.601  0.00  0.00    +0.000 A 
BRANCH  10  13
ATOM     13  C   UNL     1       0.238   8.908  21.528  0.00  0.00    +0.000 C 
ATOM     14  F   UNL     1      -0.157  10.073  20.942  0.00  0.00    +0.000 F 
ATOM     15  F   UNL     1      -0.908   8.262  21.886  0.00  0.00    +0.000 F 
ATOM     16  F   UNL     1       0.843   9.265  22.695  0.00  0.00    +0.000 F 
ENDBRANCH  10  13
ENDBRANCH   6   7
BRANCH   4  17
ATOM     17  C   UNL     1       5.923   4.794  15.349  0.00  0.00    +0.000 A 
ATOM     18  N   UNL     1       7.071   5.448  15.321  0.00  0.00    +0.000 NA
ATOM     19  N   UNL     1       7.645   5.194  14.095  0.00  0.00    +0.000 NA
ATOM     20  C   UNL     1       6.808   4.409  13.451  0.00  0.00    +0.000 A 
ATOM     21  O   UNL     1       5.702   4.096  14.185  0.00  0.00    +0.000 OA
BRANCH  20  22
ATOM     22  S   UNL     1       7.076   3.856  11.833  0.00  0.00    +0.000 S 
ATOM     23  H   UNL     1       6.069   2.971  11.823  0.00  0.00    +0.000 HD
ENDBRANCH  20  22
ENDBRANCH   4  17
TORSDOF 4
ENDMDL
MODEL 8
REMARK VINA RESULT:      -7.3      6.327      8.333
REMARK  Name = 
REMARK  5 active torsions:
REMARK  status: ('A' for Active; 'I' for Inactive)
REMARK    1  A    between atoms: C_1  and  N_2
REMARK    2  A    between atoms: C_4  and  C_5
REMARK    3  A    between atoms: C_8  and  S_9
REMARK    4  A    between atoms: C_12  and  C_13
REMARK    5  A    between atoms: C_16  and  C_17
REMARK                            x       y       z     vdW  Elec       q    Type
REMARK                         _______ _______ _______ _____ _____    ______ ____
ROOT
ATOM      1  C   UNL     1       1.915   4.829  20.733  0.00  0.00    +0.000 C 
ATOM      2  N   UNL     1       1.903   6.226  20.363  0.00  0.00    +0.000 N 
ATOM      3  N   UNL     1       1.268   7.086  21.192  0.00  0.00    +0.000 NA
ATOM      4  C   UNL     1       1.350   8.263  20.569  0.00  0.00    +0.000 A 
ATOM      5  C   UNL     1       2.058   8.156  19.357  0.00  0.00    +0.000 A 
ATOM      6  C   UNL     1       2.459   6.833  19.252  0.00  0.00    +0.000 A 
ENDROOT
BRANCH   6   7
ATOM      7  C   UNL     1       3.303   6.222  18.212  0.00  0.00    +0.000 A 
ATOM      8  C   UNL     1       4.176   7.038  17.470  0.00  0.00    +0.000 A 
ATOM      9  C   UNL     1       4.975   6.511  16.447  0.00  0.00    +0.000 A 
ATOM     10  C   UNL     1       4.929   5.150  16.144  0.00  0.00    +0.000 A 
ATOM     11  C   UNL     1       4.069   4.326  16.884  0.00  0.00    +0.000 A 
ATOM     12  C   UNL     1       3.258   4.863  17.892  0.00  0.00    +0.000 A 
BRANCH  10  13
ATOM     13  C   UNL     1       5.769   4.555  15.043  0.00  0.00    +0.000 C 
ATOM     14  F   UNL     1       6.297   3.337  15.354  0.00  0.00    +0.000 F 
ATOM     15  F   UNL     1       5.066   4.373  13.890  0.00  0.00    +0.000 F 
ATOM     16  F   UNL     1       6.828   5.345  14.713  0.00  0.00    +0.000 F 
ENDBRANCH  10  13
ENDBRANCH   6   7
BRANCH   4  17
ATOM     17  C   UNL     1       0.777   9.538  21.107  0.00  0.00    +0.000 A 
ATOM     18  N   UNL     1       1.415  10.694  21.069  0.00  0.00    +0.000 NA
ATOM     19  N   UNL     1       0.600  11.621  21.681  0.00  0.00    +0.000 NA
ATOM     20  C   UNL     1      -0.478  10.969  22.060  0.00  0.00    +0.000 A 
ATOM     21  O   UNL     1      -0.450   9.649  21.718  0.00  0.00    +0.000 OA
BRANCH  20  22
ATOM     22  S   UNL     1      -1.781  11.710  22.927  0.00  0.00    +0.000 S 
ATOM     23  H   UNL     1      -2.739  10.902  22.448  0.00  0.00    +0.000 HD
ENDBRANCH  20  22
ENDBRANCH   4  17
TORSDOF 4
ENDMDL
MODEL 9
REMARK VINA RESULT:      -7.3      6.287      8.324
REMARK  Name = 
REMARK  5 active torsions:
REMARK  status: ('A' for Active; 'I' for Inactive)
REMARK    1  A    between atoms: C_1  and  N_2
REMARK    2  A    between atoms: C_4  and  C_5
REMARK    3  A    between atoms: C_8  and  S_9
REMARK    4  A    between atoms: C_12  and  C_13
REMARK    5  A    between atoms: C_16  and  C_17
REMARK                            x       y       z     vdW  Elec       q    Type
REMARK                         _______ _______ _______ _____ _____    ______ ____
ROOT
ATOM      1  C   UNL     1       2.332   4.888  20.606  0.00  0.00    +0.000 C 
ATOM      2  N   UNL     1       2.187   6.234  20.102  0.00  0.00    +0.000 N 
ATOM      3  N   UNL     1       1.445   7.098  20.832  0.00  0.00    +0.000 NA
ATOM      4  C   UNL     1       1.422   8.213  20.100  0.00  0.00    +0.000 A 
ATOM      5  C   UNL     1       2.171   8.065  18.916  0.00  0.00    +0.000 A 
ATOM      6  C   UNL     1       2.708   6.788  18.947  0.00  0.00    +0.000 A 
ENDROOT
BRANCH   6   7
ATOM      7  C   UNL     1       3.638   6.172  17.986  0.00  0.00    +0.000 A 
ATOM      8  C   UNL     1       4.656   6.959  17.416  0.00  0.00    +0.000 A 
ATOM      9  C   UNL     1       5.544   6.430  16.472  0.00  0.00    +0.000 A 
ATOM     10  C   UNL     1       5.445   5.095  16.078  0.00  0.00    +0.000 A 
ATOM     11  C   UNL     1       4.440   4.300  16.646  0.00  0.00    +0.000 A 
ATOM     12  C   UNL     1       3.542   4.841  17.575  0.00  0.00    +0.000 A 
BRANCH  10  13
ATOM     13  C   UNL     1       6.381   4.499  15.057  0.00  0.00    +0.000 C 
ATOM     14  F   UNL     1       6.503   5.247  13.924  0.00  0.00    +0.000 F 
ATOM     15  F   UNL     1       7.646   4.342  15.539  0.00  0.00    +0.000 F 
ATOM     16  F   UNL     1       5.983   3.264  14.646  0.00  0.00    +0.000 F 
ENDBRANCH  10  13
ENDBRANCH   6   7
BRANCH   4  17
ATOM     17  C   UNL     1       0.707   9.466  20.501  0.00  0.00    +0.000 A 
ATOM     18  N   UNL     1       0.728  10.575  19.784  0.00  0.00    +0.000 NA
ATOM     19  N   UNL     1      -0.004  11.513  20.478  0.00  0.00    +0.000 NA
ATOM     20  C   UNL     1      -0.416  10.919  21.577  0.00  0.00    +0.000 A 
ATOM     21  O   UNL     1      -0.022   9.615  21.657  0.00  0.00    +0.000 OA
BRANCH  20  22
ATOM     22  S   UNL     1      -1.340  11.720  22.803  0.00  0.00    +0.000 S 
ATOM     23  H   UNL     1      -0.611  12.846  22.809  0.00  0.00    +0.000 HD
ENDBRANCH  20  22
ENDBRANCH   4  17
TORSDOF 4
ENDMDL
