MODEL 1
REMARK VINA RESULT:      -8.6      0.000      0.000
REMARK  Name = 
REMARK  9 active torsions:
REMARK  status: ('A' for Active; 'I' for Inactive)
REMARK    1  A    between atoms: N_1  and  C_2
REMARK    2  A    between atoms: C_2  and  C_3
REMARK    3  A    between atoms: C_2  and  C_27
REMARK    4  A    between atoms: C_3  and  S_4
REMARK    5  A    between atoms: S_4  and  C_5
REMARK    6  A    between atoms: C_5  and  C_6
REMARK    7  A    between atoms: C_5  and  C_12
REMARK    8  A    between atoms: C_5  and  C_18
REMARK    9  A    between atoms: C_27  and  O_29
REMARK                            x       y       z     vdW  Elec       q    Type
REMARK                         _______ _______ _______ _____ _____    ______ ____
ROOT
ATOM      1  C   UNK     1       3.707   5.531  18.261  0.00  0.00    +0.000 C 
ENDROOT
BRANCH   1   2
ATOM      2  C   UNK     1       2.999   6.931  18.549  0.00  0.00    +0.000 A 
ATOM      3  C   UNK     1       2.741   7.914  17.556  0.00  0.00    +0.000 A 
ATOM      4  C   UNK     1       1.981   9.075  17.799  0.00  0.00    +0.000 A 
ATOM      5  C   UNK     1       1.382   9.199  19.023  0.00  0.00    +0.000 A 
ATOM      6  C   UNK     1       1.590   8.270  20.003  0.00  0.00    +0.000 A 
ATOM      7  C   UNK     1       2.386   7.169  19.806  0.00  0.00    +0.000 A 
ATOM      8  O   UNK     1       0.826   8.491  21.107  0.00  0.00    +0.000 OA
ATOM      9  C   UNK     1      -0.098   9.443  20.545  0.00  0.00    +0.000 C 
ATOM     10  O   UNK     1       0.446  10.116  19.389  0.00  0.00    +0.000 OA
ENDBRANCH   1   2
BRANCH   1  11
ATOM     11  C   UNK     1       4.399   5.316  16.852  0.00  0.00    +0.000 A 
ATOM     12  C   UNK     1       4.559   4.026  16.285  0.00  0.00    +0.000 A 
ATOM     13  C   UNK     1       5.247   3.801  15.083  0.00  0.00    +0.000 A 
ATOM     14  C   UNK     1       5.761   4.868  14.366  0.00  0.00    +0.000 A 
ATOM     15  C   UNK     1       5.523   6.153  14.820  0.00  0.00    +0.000 A 
ATOM     16  C   UNK     1       4.821   6.365  16.018  0.00  0.00    +0.000 A 
ENDBRANCH   1  11
BRANCH   1  17
ATOM     17  C   UNK     1       2.758   4.356  18.701  0.00  0.00    +0.000 A 
ATOM     18  C   UNK     1       1.525   4.123  18.042  0.00  0.00    +0.000 A 
ATOM     19  C   UNK     1       0.661   3.084  18.403  0.00  0.00    +0.000 A 
ATOM     20  C   UNK     1       0.995   2.245  19.453  0.00  0.00    +0.000 A 
ATOM     21  C   UNK     1       2.189   2.452  20.139  0.00  0.00    +0.000 A 
ATOM     22  C   UNK     1       3.061   3.490  19.767  0.00  0.00    +0.000 A 
ENDBRANCH   1  17
BRANCH   1  23
ATOM     23  S   UNK     1       5.255   5.427  19.622  0.00  0.00    +0.000 S 
BRANCH  23  24
ATOM     24  C   UNK     1       6.589   4.785  18.516  0.00  0.00    +0.000 C 
BRANCH  24  25
ATOM     25  C   UNK     1       7.948   5.403  18.879  0.00  0.00    +0.000 C 
BRANCH  25  26
ATOM     26  N   UNK     1       8.184   5.528  20.355  0.00  0.00    +0.000 NA
ATOM     27  H   UNK     1       8.955   6.199  20.472  0.00  0.00    +0.000 HD
ATOM     28  H   UNK     1       8.586   4.645  20.692  0.00  0.00    +0.000 HD
ENDBRANCH  25  26
BRANCH  25  29
ATOM     29  C   UNK     1       8.075   6.807  18.261  0.00  0.00    +0.000 C 
ATOM     30  O   UNK     1       7.765   7.117  17.127  0.00  0.00    +0.000 OA
BRANCH  29  31
ATOM     31  O   UNK     1       8.632   7.675  19.151  0.00  0.00    +0.000 OA
ATOM     32  H   UNK     1       8.115   8.517  19.079  0.00  0.00    +0.000 HD
ENDBRANCH  29  31
ENDBRANCH  25  29
ENDBRANCH  24  25
ENDBRANCH  23  24
ENDBRANCH   1  23
TORSDOF 9
ENDMDL
MODEL 2
REMARK VINA RESULT:      -8.4      0.136      1.259
REMARK  Name = 
REMARK  9 active torsions:
REMARK  status: ('A' for Active; 'I' for Inactive)
REMARK    1  A    between atoms: N_1  and  C_2
REMARK    2  A    between atoms: C_2  and  C_3
REMARK    3  A    between atoms: C_2  and  C_27
REMARK    4  A    between atoms: C_3  and  S_4
REMARK    5  A    between atoms: S_4  and  C_5
REMARK    6  A    between atoms: C_5  and  C_6
REMARK    7  A    between atoms: C_5  and  C_12
REMARK    8  A    between atoms: C_5  and  C_18
REMARK    9  A    between atoms: C_27  and  O_29
REMARK                            x       y       z     vdW  Elec       q    Type
REMARK                         _______ _______ _______ _____ _____    ______ ____
ROOT
ATOM      1  C   UNK     1       3.700   5.431  18.258  0.00  0.00    +0.000 C 
ENDROOT
BRANCH   1   2
ATOM      2  C   UNK     1       3.033   6.854  18.525  0.00  0.00    +0.000 A 
ATOM      3  C   UNK     1       2.819   7.837  17.523  0.00  0.00    +0.000 A 
ATOM      4  C   UNK     1       2.093   9.023  17.746  0.00  0.00    +0.000 A 
ATOM      5  C   UNK     1       1.480   9.174  18.961  0.00  0.00    +0.000 A 
ATOM      6  C   UNK     1       1.645   8.247  19.950  0.00  0.00    +0.000 A 
ATOM      7  C   UNK     1       2.409   7.120  19.772  0.00  0.00    +0.000 A 
ATOM      8  O   UNK     1       0.873   8.500  21.041  0.00  0.00    +0.000 OA
ATOM      9  C   UNK     1      -0.013   9.476  20.459  0.00  0.00    +0.000 C 
ATOM     10  O   UNK     1       0.568  10.122  19.306  0.00  0.00    +0.000 OA
ENDBRANCH   1   2
BRANCH   1  11
ATOM     11  C   UNK     1       4.389   5.177  16.853  0.00  0.00    +0.000 A 
ATOM     12  C   UNK     1       4.894   6.241  16.063  0.00  0.00    +0.000 A 
ATOM     13  C   UNK     1       5.427   6.051  14.780  0.00  0.00    +0.000 A 
ATOM     14  C   UNK     1       5.527   4.776  14.250  0.00  0.00    +0.000 A 
ATOM     15  C   UNK     1       5.158   3.697  15.034  0.00  0.00    +0.000 A 
ATOM     16  C   UNK     1       4.639   3.900  16.323  0.00  0.00    +0.000 A 
ENDBRANCH   1  11
BRANCH   1  17
ATOM     17  C   UNK     1       2.717   4.289  18.711  0.00  0.00    +0.000 A 
ATOM     18  C   UNK     1       2.985   3.506  19.861  0.00  0.00    +0.000 A 
ATOM     19  C   UNK     1       2.130   2.488  20.295  0.00  0.00    +0.000 A 
ATOM     20  C   UNK     1       0.978   2.205  19.581  0.00  0.00    +0.000 A 
ATOM     21  C   UNK     1       0.689   2.939  18.434  0.00  0.00    +0.000 A 
ATOM     22  C   UNK     1       1.543   3.970  18.006  0.00  0.00    +0.000 A 
ENDBRANCH   1  17
BRANCH   1  23
ATOM     23  S   UNK     1       5.242   5.300  19.624  0.00  0.00    +0.000 S 
BRANCH  23  24
ATOM     24  C   UNK     1       6.614   4.806  18.489  0.00  0.00    +0.000 C 
BRANCH  24  25
ATOM     25  C   UNK     1       7.936   5.470  18.903  0.00  0.00    +0.000 C 
BRANCH  25  26
ATOM     26  N   UNK     1       8.128   5.567  20.387  0.00  0.00    +0.000 NA
ATOM     27  H   UNK     1       8.877   4.905  20.629  0.00  0.00    +0.000 HD
ATOM     28  H   UNK     1       7.301   5.165  20.845  0.00  0.00    +0.000 HD
ENDBRANCH  25  26
BRANCH  25  29
ATOM     29  C   UNK     1       8.019   6.894  18.323  0.00  0.00    +0.000 C 
ATOM     30  O   UNK     1       7.586   7.250  17.244  0.00  0.00    +0.000 OA
BRANCH  29  31
ATOM     31  O   UNK     1       8.695   7.719  19.171  0.00  0.00    +0.000 OA
ATOM     32  H   UNK     1       9.188   7.131  19.796  0.00  0.00    +0.000 HD
ENDBRANCH  29  31
ENDBRANCH  25  29
ENDBRANCH  24  25
ENDBRANCH  23  24
ENDBRANCH   1  23
TORSDOF 9
ENDMDL
MODEL 3
REMARK VINA RESULT:      -8.3      0.758      1.401
REMARK  Name = 
REMARK  9 active torsions:
REMARK  status: ('A' for Active; 'I' for Inactive)
REMARK    1  A    between atoms: N_1  and  C_2
REMARK    2  A    between atoms: C_2  and  C_3
REMARK    3  A    between atoms: C_2  and  C_27
REMARK    4  A    between atoms: C_3  and  S_4
REMARK    5  A    between atoms: S_4  and  C_5
REMARK    6  A    between atoms: C_5  and  C_6
REMARK    7  A    between atoms: C_5  and  C_12
REMARK    8  A    between atoms: C_5  and  C_18
REMARK    9  A    between atoms: C_27  and  O_29
REMARK                            x       y       z     vdW  Elec       q    Type
REMARK                         _______ _______ _______ _____ _____    ______ ____
ROOT
ATOM      1  C   UNK     1       3.667   5.312  18.217  0.00  0.00    +0.000 C 
ENDROOT
BRANCH   1   2
ATOM      2  C   UNK     1       2.774   6.566  18.630  0.00  0.00    +0.000 A 
ATOM      3  C   UNK     1       2.294   6.806  19.946  0.00  0.00    +0.000 A 
ATOM      4  C   UNK     1       1.637   7.993  20.323  0.00  0.00    +0.000 A 
ATOM      5  C   UNK     1       1.556   8.998  19.397  0.00  0.00    +0.000 A 
ATOM      6  C   UNK     1       2.018   8.817  18.125  0.00  0.00    +0.000 A 
ATOM      7  C   UNK     1       2.596   7.640  17.720  0.00  0.00    +0.000 A 
ATOM      8  O   UNK     1       1.962   9.954  17.380  0.00  0.00    +0.000 OA
ATOM      9  C   UNK     1       1.741  10.900  18.443  0.00  0.00    +0.000 C 
ATOM     10  O   UNK     1       1.163  10.282  19.613  0.00  0.00    +0.000 OA
ENDBRANCH   1   2
BRANCH   1  11
ATOM     11  C   UNK     1       4.382   5.333  16.802  0.00  0.00    +0.000 A 
ATOM     12  C   UNK     1       4.631   4.144  16.071  0.00  0.00    +0.000 A 
ATOM     13  C   UNK     1       5.339   4.128  14.861  0.00  0.00    +0.000 A 
ATOM     14  C   UNK     1       5.786   5.312  14.300  0.00  0.00    +0.000 A 
ATOM     15  C   UNK     1       5.460   6.506  14.918  0.00  0.00    +0.000 A 
ATOM     16  C   UNK     1       4.738   6.510  16.122  0.00  0.00    +0.000 A 
ENDBRANCH   1  11
BRANCH   1  17
ATOM     17  C   UNK     1       2.890   3.979  18.529  0.00  0.00    +0.000 A 
ATOM     18  C   UNK     1       1.484   3.899  18.375  0.00  0.00    +0.000 A 
ATOM     19  C   UNK     1       0.763   2.729  18.637  0.00  0.00    +0.000 A 
ATOM     20  C   UNK     1       1.426   1.597  19.080  0.00  0.00    +0.000 A 
ATOM     21  C   UNK     1       2.806   1.641  19.262  0.00  0.00    +0.000 A 
ATOM     22  C   UNK     1       3.530   2.814  18.987  0.00  0.00    +0.000 A 
ENDBRANCH   1  17
BRANCH   1  23
ATOM     23  S   UNK     1       5.217   5.289  19.581  0.00  0.00    +0.000 S 
BRANCH  23  24
ATOM     24  C   UNK     1       6.611   4.851  18.450  0.00  0.00    +0.000 C 
BRANCH  24  25
ATOM     25  C   UNK     1       7.919   5.514  18.907  0.00  0.00    +0.000 C 
BRANCH  25  26
ATOM     26  N   UNK     1       8.057   5.620  20.398  0.00  0.00    +0.000 NA
ATOM     27  H   UNK     1       7.168   6.003  20.747  0.00  0.00    +0.000 HD
ATOM     28  H   UNK     1       8.733   6.366  20.605  0.00  0.00    +0.000 HD
ENDBRANCH  25  26
BRANCH  25  29
ATOM     29  C   UNK     1       8.027   6.935  18.323  0.00  0.00    +0.000 C 
ATOM     30  O   UNK     1       7.610   7.291  17.237  0.00  0.00    +0.000 OA
BRANCH  29  31
ATOM     31  O   UNK     1       8.703   7.755  19.175  0.00  0.00    +0.000 OA
ATOM     32  H   UNK     1       9.227   8.373  18.606  0.00  0.00    +0.000 HD
ENDBRANCH  29  31
ENDBRANCH  25  29
ENDBRANCH  24  25
ENDBRANCH  23  24
ENDBRANCH   1  23
TORSDOF 9
ENDMDL
MODEL 4
REMARK VINA RESULT:      -8.3      0.975      1.166
REMARK  Name = 
REMARK  9 active torsions:
REMARK  status: ('A' for Active; 'I' for Inactive)
REMARK    1  A    between atoms: N_1  and  C_2
REMARK    2  A    between atoms: C_2  and  C_3
REMARK    3  A    between atoms: C_2  and  C_27
REMARK    4  A    between atoms: C_3  and  S_4
REMARK    5  A    between atoms: S_4  and  C_5
REMARK    6  A    between atoms: C_5  and  C_6
REMARK    7  A    between atoms: C_5  and  C_12
REMARK    8  A    between atoms: C_5  and  C_18
REMARK    9  A    between atoms: C_27  and  O_29
REMARK                            x       y       z     vdW  Elec       q    Type
REMARK                         _______ _______ _______ _____ _____    ______ ____
ROOT
ATOM      1  C   UNK     1       3.514   5.711  18.275  0.00  0.00    +0.000 C 
ENDROOT
BRANCH   1   2
ATOM      2  C   UNK     1       2.801   7.113  18.539  0.00  0.00    +0.000 A 
ATOM      3  C   UNK     1       2.464   8.042  17.520  0.00  0.00    +0.000 A 
ATOM      4  C   UNK     1       1.701   9.203  17.754  0.00  0.00    +0.000 A 
ATOM      5  C   UNK     1       1.177   9.377  19.006  0.00  0.00    +0.000 A 
ATOM      6  C   UNK     1       1.461   8.500  20.014  0.00  0.00    +0.000 A 
ATOM      7  C   UNK     1       2.263   7.403  19.820  0.00  0.00    +0.000 A 
ATOM      8  O   UNK     1       0.764   8.763  21.152  0.00  0.00    +0.000 OA
ATOM      9  C   UNK     1      -0.210   9.673  20.605  0.00  0.00    +0.000 C 
ATOM     10  O   UNK     1       0.250  10.297  19.386  0.00  0.00    +0.000 OA
ENDBRANCH   1   2
BRANCH   1  11
ATOM     11  C   UNK     1       4.281   5.506  16.903  0.00  0.00    +0.000 A 
ATOM     12  C   UNK     1       4.360   4.239  16.271  0.00  0.00    +0.000 A 
ATOM     13  C   UNK     1       5.107   4.014  15.105  0.00  0.00    +0.000 A 
ATOM     14  C   UNK     1       5.767   5.063  14.489  0.00  0.00    +0.000 A 
ATOM     15  C   UNK     1       5.617   6.339  15.003  0.00  0.00    +0.000 A 
ATOM     16  C   UNK     1       4.855   6.553  16.163  0.00  0.00    +0.000 A 
ENDBRANCH   1  11
BRANCH   1  17
ATOM     17  C   UNK     1       2.534   4.537  18.649  0.00  0.00    +0.000 A 
ATOM     18  C   UNK     1       1.735   4.595  19.818  0.00  0.00    +0.000 A 
ATOM     19  C   UNK     1       0.850   3.574  20.176  0.00  0.00    +0.000 A 
ATOM     20  C   UNK     1       0.744   2.444  19.382  0.00  0.00    +0.000 A 
ATOM     21  C   UNK     1       1.527   2.340  18.236  0.00  0.00    +0.000 A 
ATOM     22  C   UNK     1       2.407   3.373  17.870  0.00  0.00    +0.000 A 
ENDBRANCH   1  17
BRANCH   1  23
ATOM     23  S   UNK     1       4.985   5.580  19.717  0.00  0.00    +0.000 S 
BRANCH  23  24
ATOM     24  C   UNK     1       6.079   4.320  18.922  0.00  0.00    +0.000 C 
BRANCH  24  25
ATOM     25  C   UNK     1       7.231   4.994  18.162  0.00  0.00    +0.000 C 
BRANCH  25  26
ATOM     26  N   UNK     1       8.231   4.030  17.596  0.00  0.00    +0.000 NA
ATOM     27  H   UNK     1       7.902   3.088  17.846  0.00  0.00    +0.000 HD
ATOM     28  H   UNK     1       9.105   4.124  18.128  0.00  0.00    +0.000 HD
ENDBRANCH  25  26
BRANCH  25  29
ATOM     29  C   UNK     1       7.985   5.964  19.090  0.00  0.00    +0.000 C 
ATOM     30  O   UNK     1       8.266   7.119  18.837  0.00  0.00    +0.000 OA
BRANCH  29  31
ATOM     31  O   UNK     1       8.347   5.338  20.245  0.00  0.00    +0.000 OA
ATOM     32  H   UNK     1       7.758   5.701  20.954  0.00  0.00    +0.000 HD
ENDBRANCH  29  31
ENDBRANCH  25  29
ENDBRANCH  24  25
ENDBRANCH  23  24
ENDBRANCH   1  23
TORSDOF 9
ENDMDL
MODEL 5
REMARK VINA RESULT:      -8.0      2.071      4.269
REMARK  Name = 
REMARK  9 active torsions:
REMARK  status: ('A' for Active; 'I' for Inactive)
REMARK    1  A    between atoms: N_1  and  C_2
REMARK    2  A    between atoms: C_2  and  C_3
REMARK    3  A    between atoms: C_2  and  C_27
REMARK    4  A    between atoms: C_3  and  S_4
REMARK    5  A    between atoms: S_4  and  C_5
REMARK    6  A    between atoms: C_5  and  C_6
REMARK    7  A    between atoms: C_5  and  C_12
REMARK    8  A    between atoms: C_5  and  C_18
REMARK    9  A    between atoms: C_27  and  O_29
REMARK                            x       y       z     vdW  Elec       q    Type
REMARK                         _______ _______ _______ _____ _____    ______ ____
ROOT
ATOM      1  C   UNK     1       4.081   5.886  17.889  0.00  0.00    +0.000 C 
ENDROOT
BRANCH   1   2
ATOM      2  C   UNK     1       3.226   7.150  18.349  0.00  0.00    +0.000 A 
ATOM      3  C   UNK     1       2.811   8.193  17.479  0.00  0.00    +0.000 A 
ATOM      4  C   UNK     1       1.929   9.220  17.870  0.00  0.00    +0.000 A 
ATOM      5  C   UNK     1       1.372   9.139  19.117  0.00  0.00    +0.000 A 
ATOM      6  C   UNK     1       1.729   8.145  19.982  0.00  0.00    +0.000 A 
ATOM      7  C   UNK     1       2.642   7.177  19.643  0.00  0.00    +0.000 A 
ATOM      8  O   UNK     1       0.992   8.153  21.125  0.00  0.00    +0.000 OA
ATOM      9  C   UNK     1      -0.061   9.038  20.699  0.00  0.00    +0.000 C 
ATOM     10  O   UNK     1       0.350   9.891  19.608  0.00  0.00    +0.000 OA
ENDBRANCH   1   2
BRANCH   1  11
ATOM     11  C   UNK     1       3.505   4.440  18.188  0.00  0.00    +0.000 A 
ATOM     12  C   UNK     1       2.154   4.102  17.920  0.00  0.00    +0.000 A 
ATOM     13  C   UNK     1       1.598   2.859  18.257  0.00  0.00    +0.000 A 
ATOM     14  C   UNK     1       2.386   1.877  18.832  0.00  0.00    +0.000 A 
ATOM     15  C   UNK     1       3.738   2.121  19.000  0.00  0.00    +0.000 A 
ATOM     16  C   UNK     1       4.286   3.365  18.645  0.00  0.00    +0.000 A 
ENDBRANCH   1  11
BRANCH   1  17
ATOM     17  C   UNK     1       5.586   6.081  18.309  0.00  0.00    +0.000 A 
ATOM     18  C   UNK     1       6.400   7.057  17.682  0.00  0.00    +0.000 A 
ATOM     19  C   UNK     1       7.738   7.260  18.035  0.00  0.00    +0.000 A 
ATOM     20  C   UNK     1       8.316   6.480  19.022  0.00  0.00    +0.000 A 
ATOM     21  C   UNK     1       7.555   5.497  19.648  0.00  0.00    +0.000 A 
ATOM     22  C   UNK     1       6.207   5.301  19.301  0.00  0.00    +0.000 A 
ENDBRANCH   1  17
BRANCH   1  23
ATOM     23  S   UNK     1       4.144   6.005  15.829  0.00  0.00    +0.000 S 
BRANCH  23  24
ATOM     24  C   UNK     1       4.995   4.407  15.458  0.00  0.00    +0.000 C 
BRANCH  24  25
ATOM     25  C   UNK     1       6.026   4.583  14.332  0.00  0.00    +0.000 C 
BRANCH  25  26
ATOM     26  N   UNK     1       6.149   3.390  13.431  0.00  0.00    +0.000 NA
ATOM     27  H   UNK     1       5.433   2.718  13.736  0.00  0.00    +0.000 HD
ATOM     28  H   UNK     1       7.031   2.911  13.650  0.00  0.00    +0.000 HD
ENDBRANCH  25  26
BRANCH  25  29
ATOM     29  C   UNK     1       7.417   4.870  14.926  0.00  0.00    +0.000 C 
ATOM     30  O   UNK     1       7.821   4.491  16.008  0.00  0.00    +0.000 OA
BRANCH  29  31
ATOM     31  O   UNK     1       8.145   5.659  14.086  0.00  0.00    +0.000 OA
ATOM     32  H   UNK     1       8.184   5.180  13.221  0.00  0.00    +0.000 HD
ENDBRANCH  29  31
ENDBRANCH  25  29
ENDBRANCH  24  25
ENDBRANCH  23  24
ENDBRANCH   1  23
TORSDOF 9
ENDMDL
MODEL 6
REMARK VINA RESULT:      -8.0      2.247      4.681
REMARK  Name = 
REMARK  9 active torsions:
REMARK  status: ('A' for Active; 'I' for Inactive)
REMARK    1  A    between atoms: N_1  and  C_2
REMARK    2  A    between atoms: C_2  and  C_3
REMARK    3  A    between atoms: C_2  and  C_27
REMARK    4  A    between atoms: C_3  and  S_4
REMARK    5  A    between atoms: S_4  and  C_5
REMARK    6  A    between atoms: C_5  and  C_6
REMARK    7  A    between atoms: C_5  and  C_12
REMARK    8  A    between atoms: C_5  and  C_18
REMARK    9  A    between atoms: C_27  and  O_29
REMARK                            x       y       z     vdW  Elec       q    Type
REMARK                         _______ _______ _______ _____ _____    ______ ____
ROOT
ATOM      1  C   UNK     1       3.869   5.411  18.671  0.00  0.00    +0.000 C 
ENDROOT
BRANCH   1   2
ATOM      2  C   UNK     1       2.872   6.634  18.900  0.00  0.00    +0.000 A 
ATOM      3  C   UNK     1       2.228   6.920  20.133  0.00  0.00    +0.000 A 
ATOM      4  C   UNK     1       1.473   8.088  20.357  0.00  0.00    +0.000 A 
ATOM      5  C   UNK     1       1.454   9.033  19.368  0.00  0.00    +0.000 A 
ATOM      6  C   UNK     1       2.073   8.808  18.171  0.00  0.00    +0.000 A 
ATOM      7  C   UNK     1       2.752   7.644  17.909  0.00  0.00    +0.000 A 
ATOM      8  O   UNK     1       2.051   9.896  17.355  0.00  0.00    +0.000 OA
ATOM      9  C   UNK     1       1.658  10.886  18.325  0.00  0.00    +0.000 C 
ATOM     10  O   UNK     1       0.976  10.303  19.456  0.00  0.00    +0.000 OA
ENDBRANCH   1   2
BRANCH   1  11
ATOM     11  C   UNK     1       3.710   4.131  19.592  0.00  0.00    +0.000 A 
ATOM     12  C   UNK     1       2.604   3.969  20.465  0.00  0.00    +0.000 A 
ATOM     13  C   UNK     1       2.486   2.889  21.353  0.00  0.00    +0.000 A 
ATOM     14  C   UNK     1       3.447   1.893  21.369  0.00  0.00    +0.000 A 
ATOM     15  C   UNK     1       4.480   1.948  20.449  0.00  0.00    +0.000 A 
ATOM     16  C   UNK     1       4.579   3.027  19.556  0.00  0.00    +0.000 A 
ENDBRANCH   1  11
BRANCH   1  17
ATOM     17  C   UNK     1       5.346   5.943  18.555  0.00  0.00    +0.000 A 
ATOM     18  C   UNK     1       5.678   6.993  17.663  0.00  0.00    +0.000 A 
ATOM     19  C   UNK     1       6.978   7.494  17.539  0.00  0.00    +0.000 A 
ATOM     20  C   UNK     1       8.001   6.949  18.297  0.00  0.00    +0.000 A 
ATOM     21  C   UNK     1       7.719   5.902  19.171  0.00  0.00    +0.000 A 
ATOM     22  C   UNK     1       6.410   5.408  19.303  0.00  0.00    +0.000 A 
ENDBRANCH   1  17
BRANCH   1  23
ATOM     23  S   UNK     1       3.457   4.735  16.765  0.00  0.00    +0.000 S 
BRANCH  23  24
ATOM     24  C   UNK     1       5.118   4.064  16.314  0.00  0.00    +0.000 C 
BRANCH  24  25
ATOM     25  C   UNK     1       5.624   4.683  15.002  0.00  0.00    +0.000 C 
BRANCH  25  26
ATOM     26  N   UNK     1       5.327   3.857  13.786  0.00  0.00    +0.000 NA
ATOM     27  H   UNK     1       5.060   2.923  14.126  0.00  0.00    +0.000 HD
ATOM     28  H   UNK     1       6.210   3.685  13.291  0.00  0.00    +0.000 HD
ENDBRANCH  25  26
BRANCH  25  29
ATOM     29  C   UNK     1       7.148   4.894  15.067  0.00  0.00    +0.000 C 
ATOM     30  O   UNK     1       7.818   5.505  14.257  0.00  0.00    +0.000 OA
BRANCH  29  31
ATOM     31  O   UNK     1       7.675   4.256  16.150  0.00  0.00    +0.000 OA
ATOM     32  H   UNK     1       7.020   3.559  16.407  0.00  0.00    +0.000 HD
ENDBRANCH  29  31
ENDBRANCH  25  29
ENDBRANCH  24  25
ENDBRANCH  23  24
ENDBRANCH   1  23
TORSDOF 9
ENDMDL
MODEL 7
REMARK VINA RESULT:      -7.9      2.280      4.513
REMARK  Name = 
REMARK  9 active torsions:
REMARK  status: ('A' for Active; 'I' for Inactive)
REMARK    1  A    between atoms: N_1  and  C_2
REMARK    2  A    between atoms: C_2  and  C_3
REMARK    3  A    between atoms: C_2  and  C_27
REMARK    4  A    between atoms: C_3  and  S_4
REMARK    5  A    between atoms: S_4  and  C_5
REMARK    6  A    between atoms: C_5  and  C_6
REMARK    7  A    between atoms: C_5  and  C_12
REMARK    8  A    between atoms: C_5  and  C_18
REMARK    9  A    between atoms: C_27  and  O_29
REMARK                            x       y       z     vdW  Elec       q    Type
REMARK                         _______ _______ _______ _____ _____    ______ ____
ROOT
ATOM      1  C   UNK     1       4.194   5.519  17.903  0.00  0.00    +0.000 C 
ENDROOT
BRANCH   1   2
ATOM      2  C   UNK     1       3.147   6.624  18.377  0.00  0.00    +0.000 A 
ATOM      3  C   UNK     1       2.581   6.682  19.679  0.00  0.00    +0.000 A 
ATOM      4  C   UNK     1       1.778   7.750  20.125  0.00  0.00    +0.000 A 
ATOM      5  C   UNK     1       1.628   8.825  19.291  0.00  0.00    +0.000 A 
ATOM      6  C   UNK     1       2.167   8.819  18.036  0.00  0.00    +0.000 A 
ATOM      7  C   UNK     1       2.893   7.756  17.559  0.00  0.00    +0.000 A 
ATOM      8  O   UNK     1       2.020  10.011  17.396  0.00  0.00    +0.000 OA
ATOM      9  C   UNK     1       1.643  10.820  18.526  0.00  0.00    +0.000 C 
ATOM     10  O   UNK     1       1.084  10.032  19.600  0.00  0.00    +0.000 OA
ENDBRANCH   1   2
BRANCH   1  11
ATOM     11  C   UNK     1       3.920   4.008  18.294  0.00  0.00    +0.000 A 
ATOM     12  C   UNK     1       4.623   3.367  19.346  0.00  0.00    +0.000 A 
ATOM     13  C   UNK     1       4.462   2.007  19.652  0.00  0.00    +0.000 A 
ATOM     14  C   UNK     1       3.548   1.239  18.950  0.00  0.00    +0.000 A 
ATOM     15  C   UNK     1       2.755   1.853  17.997  0.00  0.00    +0.000 A 
ATOM     16  C   UNK     1       2.915   3.218  17.710  0.00  0.00    +0.000 A 
ENDBRANCH   1  11
BRANCH   1  17
ATOM     17  C   UNK     1       5.658   6.010  18.208  0.00  0.00    +0.000 A 
ATOM     18  C   UNK     1       6.236   7.084  17.485  0.00  0.00    +0.000 A 
ATOM     19  C   UNK     1       7.531   7.548  17.734  0.00  0.00    +0.000 A 
ATOM     20  C   UNK     1       8.305   6.942  18.709  0.00  0.00    +0.000 A 
ATOM     21  C   UNK     1       7.780   5.871  19.428  0.00  0.00    +0.000 A 
ATOM     22  C   UNK     1       6.475   5.412  19.185  0.00  0.00    +0.000 A 
ENDBRANCH   1  17
BRANCH   1  23
ATOM     23  S   UNK     1       4.103   5.548  15.841  0.00  0.00    +0.000 S 
BRANCH  23  24
ATOM     24  C   UNK     1       5.257   4.153  15.467  0.00  0.00    +0.000 C 
BRANCH  24  25
ATOM     25  C   UNK     1       6.061   4.434  14.188  0.00  0.00    +0.000 C 
BRANCH  25  26
ATOM     26  N   UNK     1       6.272   3.225  13.326  0.00  0.00    +0.000 NA
ATOM     27  H   UNK     1       7.250   3.258  13.011  0.00  0.00    +0.000 HD
ATOM     28  H   UNK     1       5.739   3.353  12.456  0.00  0.00    +0.000 HD
ENDBRANCH  25  26
BRANCH  25  29
ATOM     29  C   UNK     1       7.445   5.004  14.546  0.00  0.00    +0.000 C 
ATOM     30  O   UNK     1       8.147   5.681  13.819  0.00  0.00    +0.000 OA
BRANCH  29  31
ATOM     31  O   UNK     1       7.818   4.611  15.796  0.00  0.00    +0.000 OA
ATOM     32  H   UNK     1       7.077   4.867  16.400  0.00  0.00    +0.000 HD
ENDBRANCH  29  31
ENDBRANCH  25  29
ENDBRANCH  24  25
ENDBRANCH  23  24
ENDBRANCH   1  23
TORSDOF 9
ENDMDL
MODEL 8
REMARK VINA RESULT:      -7.9      2.085      4.250
REMARK  Name = 
REMARK  9 active torsions:
REMARK  status: ('A' for Active; 'I' for Inactive)
REMARK    1  A    between atoms: N_1  and  C_2
REMARK    2  A    between atoms: C_2  and  C_3
REMARK    3  A    between atoms: C_2  and  C_27
REMARK    4  A    between atoms: C_3  and  S_4
REMARK    5  A    between atoms: S_4  and  C_5
REMARK    6  A    between atoms: C_5  and  C_6
REMARK    7  A    between atoms: C_5  and  C_12
REMARK    8  A    between atoms: C_5  and  C_18
REMARK    9  A    between atoms: C_27  and  O_29
REMARK                            x       y       z     vdW  Elec       q    Type
REMARK                         _______ _______ _______ _____ _____    ______ ____
ROOT
ATOM      1  C   UNK     1       4.099   5.833  17.914  0.00  0.00    +0.000 C 
ENDROOT
BRANCH   1   2
ATOM      2  C   UNK     1       3.231   7.100  18.343  0.00  0.00    +0.000 A 
ATOM      3  C   UNK     1       2.781   8.102  17.442  0.00  0.00    +0.000 A 
ATOM      4  C   UNK     1       1.891   9.129  17.812  0.00  0.00    +0.000 A 
ATOM      5  C   UNK     1       1.360   9.087  19.073  0.00  0.00    +0.000 A 
ATOM      6  C   UNK     1       1.753   8.133  19.968  0.00  0.00    +0.000 A 
ATOM      7  C   UNK     1       2.674   7.167  19.646  0.00  0.00    +0.000 A 
ATOM      8  O   UNK     1       1.039   8.174  21.125  0.00  0.00    +0.000 OA
ATOM      9  C   UNK     1      -0.038   9.025  20.687  0.00  0.00    +0.000 C 
ATOM     10  O   UNK     1       0.337   9.841  19.556  0.00  0.00    +0.000 OA
ENDBRANCH   1   2
BRANCH   1  11
ATOM     11  C   UNK     1       3.546   4.390  18.268  0.00  0.00    +0.000 A 
ATOM     12  C   UNK     1       4.344   3.426  18.937  0.00  0.00    +0.000 A 
ATOM     13  C   UNK     1       3.909   2.115  19.182  0.00  0.00    +0.000 A 
ATOM     14  C   UNK     1       2.632   1.725  18.814  0.00  0.00    +0.000 A 
ATOM     15  C   UNK     1       1.779   2.668  18.269  0.00  0.00    +0.000 A 
ATOM     16  C   UNK     1       2.221   3.981  18.041  0.00  0.00    +0.000 A 
ENDBRANCH   1  11
BRANCH   1  17
ATOM     17  C   UNK     1       5.606   6.062  18.306  0.00  0.00    +0.000 A 
ATOM     18  C   UNK     1       6.388   7.051  17.659  0.00  0.00    +0.000 A 
ATOM     19  C   UNK     1       7.727   7.285  17.987  0.00  0.00    +0.000 A 
ATOM     20  C   UNK     1       8.339   6.524  18.968  0.00  0.00    +0.000 A 
ATOM     21  C   UNK     1       7.609   5.529  19.614  0.00  0.00    +0.000 A 
ATOM     22  C   UNK     1       6.261   5.302  19.292  0.00  0.00    +0.000 A 
ENDBRANCH   1  17
BRANCH   1  23
ATOM     23  S   UNK     1       4.132   5.883  15.850  0.00  0.00    +0.000 S 
BRANCH  23  24
ATOM     24  C   UNK     1       5.116   4.354  15.524  0.00  0.00    +0.000 C 
BRANCH  24  25
ATOM     25  C   UNK     1       5.998   4.523  14.278  0.00  0.00    +0.000 C 
BRANCH  25  26
ATOM     26  N   UNK     1       6.146   3.272  13.464  0.00  0.00    +0.000 NA
ATOM     27  H   UNK     1       5.900   3.522  12.497  0.00  0.00    +0.000 HD
ATOM     28  H   UNK     1       5.399   2.621  13.736  0.00  0.00    +0.000 HD
ENDBRANCH  25  26
BRANCH  25  29
ATOM     29  C   UNK     1       7.408   4.989  14.685  0.00  0.00    +0.000 C 
ATOM     30  O   UNK     1       8.154   5.673  14.012  0.00  0.00    +0.000 OA
BRANCH  29  31
ATOM     31  O   UNK     1       7.745   4.489  15.908  0.00  0.00    +0.000 OA
ATOM     32  H   UNK     1       6.911   4.479  16.442  0.00  0.00    +0.000 HD
ENDBRANCH  29  31
ENDBRANCH  25  29
ENDBRANCH  24  25
ENDBRANCH  23  24
ENDBRANCH   1  23
TORSDOF 9
ENDMDL
MODEL 9
REMARK VINA RESULT:      -7.9      2.164      4.511
REMARK  Name = 
REMARK  9 active torsions:
REMARK  status: ('A' for Active; 'I' for Inactive)
REMARK    1  A    between atoms: N_1  and  C_2
REMARK    2  A    between atoms: C_2  and  C_3
REMARK    3  A    between atoms: C_2  and  C_27
REMARK    4  A    between atoms: C_3  and  S_4
REMARK    5  A    between atoms: S_4  and  C_5
REMARK    6  A    between atoms: C_5  and  C_6
REMARK    7  A    between atoms: C_5  and  C_12
REMARK    8  A    between atoms: C_5  and  C_18
REMARK    9  A    between atoms: C_27  and  O_29
REMARK                            x       y       z     vdW  Elec       q    Type
REMARK                         _______ _______ _______ _____ _____    ______ ____
ROOT
ATOM      1  C   UNK     1       3.826   5.752  18.647  0.00  0.00    +0.000 C 
ENDROOT
BRANCH   1   2
ATOM      2  C   UNK     1       2.988   7.105  18.742  0.00  0.00    +0.000 A 
ATOM      3  C   UNK     1       2.630   7.903  17.623  0.00  0.00    +0.000 A 
ATOM      4  C   UNK     1       1.763   9.009  17.709  0.00  0.00    +0.000 A 
ATOM      5  C   UNK     1       1.160   9.253  18.914  0.00  0.00    +0.000 A 
ATOM      6  C   UNK     1       1.462   8.501  20.013  0.00  0.00    +0.000 A 
ATOM      7  C   UNK     1       2.360   7.464  19.963  0.00  0.00    +0.000 A 
ATOM      8  O   UNK     1       0.686   8.807  21.088  0.00  0.00    +0.000 OA
ATOM      9  C   UNK     1      -0.329   9.574  20.412  0.00  0.00    +0.000 C 
ATOM     10  O   UNK     1       0.141  10.119  19.160  0.00  0.00    +0.000 OA
ENDBRANCH   1   2
BRANCH   1  11
ATOM     11  C   UNK     1       3.443   4.561  19.620  0.00  0.00    +0.000 A 
ATOM     12  C   UNK     1       2.357   4.654  20.527  0.00  0.00    +0.000 A 
ATOM     13  C   UNK     1       2.053   3.650  21.458  0.00  0.00    +0.000 A 
ATOM     14  C   UNK     1       2.794   2.481  21.487  0.00  0.00    +0.000 A 
ATOM     15  C   UNK     1       3.787   2.297  20.540  0.00  0.00    +0.000 A 
ATOM     16  C   UNK     1       4.071   3.304  19.604  0.00  0.00    +0.000 A 
ENDBRANCH   1  11
BRANCH   1  17
ATOM     17  C   UNK     1       5.365   6.082  18.604  0.00  0.00    +0.000 A 
ATOM     18  C   UNK     1       5.873   7.097  17.757  0.00  0.00    +0.000 A 
ATOM     19  C   UNK     1       7.232   7.420  17.699  0.00  0.00    +0.000 A 
ATOM     20  C   UNK     1       8.139   6.725  18.480  0.00  0.00    +0.000 A 
ATOM     21  C   UNK     1       7.682   5.706  19.313  0.00  0.00    +0.000 A 
ATOM     22  C   UNK     1       6.314   5.391  19.378  0.00  0.00    +0.000 A 
ENDBRANCH   1  17
BRANCH   1  23
ATOM     23  S   UNK     1       3.445   5.021  16.754  0.00  0.00    +0.000 S 
BRANCH  23  24
ATOM     24  C   UNK     1       5.097   4.283  16.375  0.00  0.00    +0.000 C 
BRANCH  24  25
ATOM     25  C   UNK     1       5.633   4.799  15.031  0.00  0.00    +0.000 C 
BRANCH  25  26
ATOM     26  N   UNK     1       5.282   3.927  13.862  0.00  0.00    +0.000 NA
ATOM     27  H   UNK     1       5.670   4.387  13.028  0.00  0.00    +0.000 HD
ATOM     28  H   UNK     1       4.267   3.984  13.712  0.00  0.00    +0.000 HD
ENDBRANCH  25  26
BRANCH  25  29
ATOM     29  C   UNK     1       7.167   4.921  15.083  0.00  0.00    +0.000 C 
ATOM     30  O   UNK     1       7.864   5.498  14.270  0.00  0.00    +0.000 OA
BRANCH  29  31
ATOM     31  O   UNK     1       7.667   4.248  16.158  0.00  0.00    +0.000 OA
ATOM     32  H   UNK     1       7.590   3.285  15.941  0.00  0.00    +0.000 HD
ENDBRANCH  29  31
ENDBRANCH  25  29
ENDBRANCH  24  25
ENDBRANCH  23  24
ENDBRANCH   1  23
TORSDOF 9
ENDMDL
