MODEL 1
REMARK VINA RESULT:      -7.7      0.000      0.000
REMARK  Name = 
REMARK  10 active torsions:
REMARK  status: ('A' for Active; 'I' for Inactive)
REMARK    1  A    between atoms: C_1  and  O_2
REMARK    2  A    between atoms: O_2  and  C_3
REMARK    3  A    between atoms: C_8  and  O_9
REMARK    4  A    between atoms: O_9  and  C_10
REMARK    5  A    between atoms: C_12  and  N_13
REMARK    6  A    between atoms: C_17  and  C_19
REMARK    7  A    between atoms: C_19  and  C_20
REMARK    8  A    between atoms: C_19  and  C_21
REMARK    9  A    between atoms: C_19  and  C_22
REMARK   10  A    between atoms: C_23  and  C_24
REMARK                            x       y       z     vdW  Elec       q    Type
REMARK                         _______ _______ _______ _____ _____    ______ ____
ROOT
ATOM      1  C   UNL     1       2.454   7.410  19.294  0.00  0.00    +0.000 A 
ATOM      2  C   UNL     1       1.539   7.973  20.161  0.00  0.00    +0.000 A 
ATOM      3  C   UNL     1       0.958   9.165  19.784  0.00  0.00    +0.000 A 
ATOM      4  N   UNL     1       1.322   9.745  18.623  0.00  0.00    +0.000 NA
ATOM      5  C   UNL     1       2.233   9.122  17.859  0.00  0.00    +0.000 A 
ATOM      6  N   UNL     1       2.803   7.946  18.114  0.00  0.00    +0.000 NA
ENDROOT
BRANCH   3   7
ATOM      7  N   UNL     1       0.003   9.798  20.532  0.00  0.00    +0.000 N 
ATOM      8  C   UNL     1      -0.445   9.415  21.873  0.00  0.00    +0.000 C 
ATOM      9  C   UNL     1      -0.768  10.681  22.715  0.00  0.00    +0.000 C 
ATOM     10  N   UNL     1      -1.561  11.697  21.979  0.00  0.00    +0.000 N 
ATOM     11  C   UNL     1      -2.598  12.344  22.640  0.00  0.00    +0.000 C 
ATOM     12  O   UNL     1      -2.845  12.055  23.818  0.00  0.00    +0.000 OA
ATOM     13  C   UNL     1      -1.036  12.008  20.632  0.00  0.00    +0.000 C 
ATOM     14  C   UNL     1       0.272  12.805  20.699  0.00  0.00    +0.000 C 
ATOM     15  C   UNL     1      -0.878  10.717  19.817  0.00  0.00    +0.000 C 
BRANCH  11  16
ATOM     16  C   UNL     1      -3.492  13.395  21.910  0.00  0.00    +0.000 C 
ATOM     17  C   UNL     1      -4.094  12.813  20.617  0.00  0.00    +0.000 C 
ATOM     18  C   UNL     1      -4.695  13.741  22.828  0.00  0.00    +0.000 C 
ATOM     19  C   UNL     1      -2.771  14.733  21.674  0.00  0.00    +0.000 C 
ENDBRANCH  11  16
ENDBRANCH   3   7
BRANCH   1  20
ATOM     20  O   UNL     1       2.939   6.172  19.694  0.00  0.00    +0.000 OA
BRANCH  20  26
ATOM     21  C   UNL     1       2.526   4.268  18.191  0.00  0.00    +0.000 A 
ATOM     22  C   UNL     1       1.954   2.994  18.072  0.00  0.00    +0.000 A 
ATOM     23  C   UNL     1       1.113   2.489  19.064  0.00  0.00    +0.000 A 
ATOM     24  C   UNL     1       0.838   3.251  20.195  0.00  0.00    +0.000 A 
ATOM     25  C   UNL     1       1.428   4.507  20.342  0.00  0.00    +0.000 A 
ATOM     26  C   UNL     1       2.275   5.019  19.348  0.00  0.00    +0.000 A 
BRANCH  21  28
ATOM     27  C   UNL     1       4.571   3.963  17.100  0.00  0.00    +0.000 C 
ATOM     28  O   UNL     1       3.391   4.755  17.243  0.00  0.00    +0.000 OA
ENDBRANCH  21  28
ENDBRANCH  20  26
ENDBRANCH   1  20
TORSDOF 5
ENDMDL
MODEL 2
REMARK VINA RESULT:      -7.7      1.019      1.125
REMARK  Name = 
REMARK  10 active torsions:
REMARK  status: ('A' for Active; 'I' for Inactive)
REMARK    1  A    between atoms: C_1  and  O_2
REMARK    2  A    between atoms: O_2  and  C_3
REMARK    3  A    between atoms: C_8  and  O_9
REMARK    4  A    between atoms: O_9  and  C_10
REMARK    5  A    between atoms: C_12  and  N_13
REMARK    6  A    between atoms: C_17  and  C_19
REMARK    7  A    between atoms: C_19  and  C_20
REMARK    8  A    between atoms: C_19  and  C_21
REMARK    9  A    between atoms: C_19  and  C_22
REMARK   10  A    between atoms: C_23  and  C_24
REMARK                            x       y       z     vdW  Elec       q    Type
REMARK                         _______ _______ _______ _____ _____    ______ ____
ROOT
ATOM      1  C   UNL     1       2.722   6.912  19.411  0.00  0.00    +0.000 A 
ATOM      2  C   UNL     1       1.816   7.552  20.234  0.00  0.00    +0.000 A 
ATOM      3  C   UNL     1       1.243   8.715  19.763  0.00  0.00    +0.000 A 
ATOM      4  N   UNL     1       1.607   9.195  18.558  0.00  0.00    +0.000 NA
ATOM      5  C   UNL     1       2.508   8.504  17.842  0.00  0.00    +0.000 A 
ATOM      6  N   UNL     1       3.069   7.348  18.190  0.00  0.00    +0.000 NA
ENDROOT
BRANCH   3   7
ATOM      7  N   UNL     1       0.298   9.415  20.462  0.00  0.00    +0.000 N 
ATOM      8  C   UNL     1      -0.258   9.057  21.770  0.00  0.00    +0.000 C 
ATOM      9  C   UNL     1      -0.530  10.338  22.607  0.00  0.00    +0.000 C 
ATOM     10  N   UNL     1      -1.195  11.420  21.840  0.00  0.00    +0.000 N 
ATOM     11  C   UNL     1      -2.215  12.141  22.447  0.00  0.00    +0.000 C 
ATOM     12  O   UNL     1      -2.555  11.863  23.604  0.00  0.00    +0.000 OA
ATOM     13  C   UNL     1      -0.567  11.699  20.531  0.00  0.00    +0.000 C 
ATOM     14  C   UNL     1       0.794  12.390  20.685  0.00  0.00    +0.000 C 
ATOM     15  C   UNL     1      -0.463  10.407  19.708  0.00  0.00    +0.000 C 
BRANCH  11  16
ATOM     16  C   UNL     1      -2.979  13.266  21.679  0.00  0.00    +0.000 C 
ATOM     17  C   UNL     1      -3.554  12.742  20.350  0.00  0.00    +0.000 C 
ATOM     18  C   UNL     1      -4.197  13.707  22.535  0.00  0.00    +0.000 C 
ATOM     19  C   UNL     1      -2.138  14.541  21.494  0.00  0.00    +0.000 C 
ENDBRANCH  11  16
ENDBRANCH   3   7
BRANCH   1  20
ATOM     20  O   UNL     1       3.198   5.706  19.908  0.00  0.00    +0.000 OA
BRANCH  20  26
ATOM     21  C   UNL     1       4.070   3.635  18.906  0.00  0.00    +0.000 A 
ATOM     22  C   UNL     1       3.739   2.381  18.373  0.00  0.00    +0.000 A 
ATOM     23  C   UNL     1       2.415   2.053  18.082  0.00  0.00    +0.000 A 
ATOM     24  C   UNL     1       1.401   2.973  18.328  0.00  0.00    +0.000 A 
ATOM     25  C   UNL     1       1.713   4.210  18.891  0.00  0.00    +0.000 A 
ATOM     26  C   UNL     1       3.042   4.546  19.186  0.00  0.00    +0.000 A 
BRANCH  21  28
ATOM     27  C   UNL     1       6.063   4.626  18.193  0.00  0.00    +0.000 C 
ATOM     28  O   UNL     1       5.363   3.951  19.239  0.00  0.00    +0.000 OA
ENDBRANCH  21  28
ENDBRANCH  20  26
ENDBRANCH   1  20
TORSDOF 5
ENDMDL
MODEL 3
REMARK VINA RESULT:      -7.5      0.679      1.046
REMARK  Name = 
REMARK  10 active torsions:
REMARK  status: ('A' for Active; 'I' for Inactive)
REMARK    1  A    between atoms: C_1  and  O_2
REMARK    2  A    between atoms: O_2  and  C_3
REMARK    3  A    between atoms: C_8  and  O_9
REMARK    4  A    between atoms: O_9  and  C_10
REMARK    5  A    between atoms: C_12  and  N_13
REMARK    6  A    between atoms: C_17  and  C_19
REMARK    7  A    between atoms: C_19  and  C_20
REMARK    8  A    between atoms: C_19  and  C_21
REMARK    9  A    between atoms: C_19  and  C_22
REMARK   10  A    between atoms: C_23  and  C_24
REMARK                            x       y       z     vdW  Elec       q    Type
REMARK                         _______ _______ _______ _____ _____    ______ ____
ROOT
ATOM      1  C   UNL     1       2.630   6.890  19.414  0.00  0.00    +0.000 A 
ATOM      2  C   UNL     1       1.735   7.530  20.248  0.00  0.00    +0.000 A 
ATOM      3  C   UNL     1       1.179   8.709  19.797  0.00  0.00    +0.000 A 
ATOM      4  N   UNL     1       1.548   9.203  18.599  0.00  0.00    +0.000 NA
ATOM      5  C   UNL     1       2.438   8.510  17.872  0.00  0.00    +0.000 A 
ATOM      6  N   UNL     1       2.982   7.340  18.200  0.00  0.00    +0.000 NA
ENDROOT
BRANCH   3   7
ATOM      7  N   UNL     1       0.245   9.412  20.509  0.00  0.00    +0.000 N 
ATOM      8  C   UNL     1      -0.296   9.055  21.823  0.00  0.00    +0.000 C 
ATOM      9  C   UNL     1      -0.554  10.335  22.664  0.00  0.00    +0.000 C 
ATOM     10  N   UNL     1      -1.225  11.420  21.906  0.00  0.00    +0.000 N 
ATOM     11  C   UNL     1      -2.236  12.144  22.526  0.00  0.00    +0.000 C 
ATOM     12  O   UNL     1      -2.561  11.866  23.687  0.00  0.00    +0.000 OA
ATOM     13  C   UNL     1      -0.613  11.698  20.589  0.00  0.00    +0.000 C 
ATOM     14  C   UNL     1       0.751  12.384  20.726  0.00  0.00    +0.000 C 
ATOM     15  C   UNL     1      -0.524  10.406  19.765  0.00  0.00    +0.000 C 
BRANCH  11  16
ATOM     16  C   UNL     1      -3.006  13.272  21.769  0.00  0.00    +0.000 C 
ATOM     17  C   UNL     1      -4.230  13.748  22.573  0.00  0.00    +0.000 C 
ATOM     18  C   UNL     1      -2.070  14.503  21.635  0.00  0.00    +0.000 C 
ATOM     19  C   UNL     1      -3.365  12.884  20.324  0.00  0.00    +0.000 C 
ENDBRANCH  11  16
ENDBRANCH   3   7
BRANCH   1  20
ATOM     20  O   UNL     1       3.089   5.670  19.891  0.00  0.00    +0.000 OA
BRANCH  20  26
ATOM     21  C   UNL     1       3.301   3.610  18.561  0.00  0.00    +0.000 A 
ATOM     22  C   UNL     1       2.771   2.338  18.310  0.00  0.00    +0.000 A 
ATOM     23  C   UNL     1       1.534   1.961  18.833  0.00  0.00    +0.000 A 
ATOM     24  C   UNL     1       0.813   2.851  19.622  0.00  0.00    +0.000 A 
ATOM     25  C   UNL     1       1.346   4.108  19.909  0.00  0.00    +0.000 A 
ATOM     26  C   UNL     1       2.589   4.493  19.386  0.00  0.00    +0.000 A 
BRANCH  21  28
ATOM     27  C   UNL     1       4.558   4.197  16.679  0.00  0.00    +0.000 C 
ATOM     28  O   UNL     1       4.538   3.975  18.090  0.00  0.00    +0.000 OA
ENDBRANCH  21  28
ENDBRANCH  20  26
ENDBRANCH   1  20
TORSDOF 5
ENDMDL
MODEL 4
REMARK VINA RESULT:      -7.4      0.578      1.031
REMARK  Name = 
REMARK  10 active torsions:
REMARK  status: ('A' for Active; 'I' for Inactive)
REMARK    1  A    between atoms: C_1  and  O_2
REMARK    2  A    between atoms: O_2  and  C_3
REMARK    3  A    between atoms: C_8  and  O_9
REMARK    4  A    between atoms: O_9  and  C_10
REMARK    5  A    between atoms: C_12  and  N_13
REMARK    6  A    between atoms: C_17  and  C_19
REMARK    7  A    between atoms: C_19  and  C_20
REMARK    8  A    between atoms: C_19  and  C_21
REMARK    9  A    between atoms: C_19  and  C_22
REMARK   10  A    between atoms: C_23  and  C_24
REMARK                            x       y       z     vdW  Elec       q    Type
REMARK                         _______ _______ _______ _____ _____    ______ ____
ROOT
ATOM      1  C   UNL     1       2.694   7.164  19.317  0.00  0.00    +0.000 A 
ATOM      2  C   UNL     1       1.791   7.762  20.173  0.00  0.00    +0.000 A 
ATOM      3  C   UNL     1       1.141   8.891  19.721  0.00  0.00    +0.000 A 
ATOM      4  N   UNL     1       1.431   9.382  18.500  0.00  0.00    +0.000 NA
ATOM      5  C   UNL     1       2.337   8.733  17.751  0.00  0.00    +0.000 A 
ATOM      6  N   UNL     1       2.970   7.609  18.081  0.00  0.00    +0.000 NA
ENDROOT
BRANCH   3   7
ATOM      7  N   UNL     1       0.190   9.547  20.454  0.00  0.00    +0.000 N 
ATOM      8  C   UNL     1      -0.349   9.127  21.751  0.00  0.00    +0.000 C 
ATOM      9  C   UNL     1      -0.637  10.368  22.640  0.00  0.00    +0.000 C 
ATOM     10  N   UNL     1      -1.326  11.469  21.922  0.00  0.00    +0.000 N 
ATOM     11  C   UNL     1      -2.354  12.147  22.565  0.00  0.00    +0.000 C 
ATOM     12  O   UNL     1      -2.679  11.817  23.713  0.00  0.00    +0.000 OA
ATOM     13  C   UNL     1      -0.714  11.811  20.620  0.00  0.00    +0.000 C 
ATOM     14  C   UNL     1       0.636  12.518  20.792  0.00  0.00    +0.000 C 
ATOM     15  C   UNL     1      -0.595  10.555  19.746  0.00  0.00    +0.000 C 
BRANCH  11  16
ATOM     16  C   UNL     1      -3.143  13.288  21.849  0.00  0.00    +0.000 C 
ATOM     17  C   UNL     1      -2.249  14.521  21.613  0.00  0.00    +0.000 C 
ATOM     18  C   UNL     1      -3.567  12.786  20.443  0.00  0.00    +0.000 C 
ATOM     19  C   UNL     1      -4.459  13.644  22.561  0.00  0.00    +0.000 C 
ENDBRANCH  11  16
ENDBRANCH   3   7
BRANCH   1  20
ATOM     20  O   UNL     1       3.252   5.988  19.799  0.00  0.00    +0.000 OA
BRANCH  20  26
ATOM     21  C   UNL     1       2.285   3.968  18.778  0.00  0.00    +0.000 A 
ATOM     22  C   UNL     1       1.709   2.713  19.021  0.00  0.00    +0.000 A 
ATOM     23  C   UNL     1       1.317   2.341  20.307  0.00  0.00    +0.000 A 
ATOM     24  C   UNL     1       1.503   3.218  21.371  0.00  0.00    +0.000 A 
ATOM     25  C   UNL     1       2.107   4.456  21.148  0.00  0.00    +0.000 A 
ATOM     26  C   UNL     1       2.503   4.836  19.857  0.00  0.00    +0.000 A 
BRANCH  21  28
ATOM     27  C   UNL     1       3.977   3.750  17.179  0.00  0.00    +0.000 C 
ATOM     28  O   UNL     1       2.716   4.326  17.525  0.00  0.00    +0.000 OA
ENDBRANCH  21  28
ENDBRANCH  20  26
ENDBRANCH   1  20
TORSDOF 5
ENDMDL
MODEL 5
REMARK VINA RESULT:      -7.3      0.781      1.715
REMARK  Name = 
REMARK  10 active torsions:
REMARK  status: ('A' for Active; 'I' for Inactive)
REMARK    1  A    between atoms: C_1  and  O_2
REMARK    2  A    between atoms: O_2  and  C_3
REMARK    3  A    between atoms: C_8  and  O_9
REMARK    4  A    between atoms: O_9  and  C_10
REMARK    5  A    between atoms: C_12  and  N_13
REMARK    6  A    between atoms: C_17  and  C_19
REMARK    7  A    between atoms: C_19  and  C_20
REMARK    8  A    between atoms: C_19  and  C_21
REMARK    9  A    between atoms: C_19  and  C_22
REMARK   10  A    between atoms: C_23  and  C_24
REMARK                            x       y       z     vdW  Elec       q    Type
REMARK                         _______ _______ _______ _____ _____    ______ ____
ROOT
ATOM      1  C   UNL     1       2.567   7.344  19.369  0.00  0.00    +0.000 A 
ATOM      2  C   UNL     1       1.659   7.925  20.232  0.00  0.00    +0.000 A 
ATOM      3  C   UNL     1       1.005   9.058  19.797  0.00  0.00    +0.000 A 
ATOM      4  N   UNL     1       1.295   9.569  18.585  0.00  0.00    +0.000 NA
ATOM      5  C   UNL     1       2.205   8.937  17.828  0.00  0.00    +0.000 A 
ATOM      6  N   UNL     1       2.843   7.811  18.141  0.00  0.00    +0.000 NA
ENDROOT
BRANCH   3   7
ATOM      7  N   UNL     1       0.050   9.697  20.539  0.00  0.00    +0.000 N 
ATOM      8  C   UNL     1      -0.400   9.325  21.883  0.00  0.00    +0.000 C 
ATOM      9  C   UNL     1      -0.724  10.598  22.714  0.00  0.00    +0.000 C 
ATOM     10  N   UNL     1      -1.515  11.609  21.969  0.00  0.00    +0.000 N 
ATOM     11  C   UNL     1      -2.553  12.261  22.624  0.00  0.00    +0.000 C 
ATOM     12  O   UNL     1      -2.801  11.982  23.803  0.00  0.00    +0.000 OA
ATOM     13  C   UNL     1      -0.988  11.908  20.621  0.00  0.00    +0.000 C 
ATOM     14  C   UNL     1       0.320  12.705  20.683  0.00  0.00    +0.000 C 
ATOM     15  C   UNL     1      -0.830  10.611  19.816  0.00  0.00    +0.000 C 
BRANCH  11  16
ATOM     16  C   UNL     1      -3.446  13.307  21.884  0.00  0.00    +0.000 C 
ATOM     17  C   UNL     1      -4.056  12.710  20.602  0.00  0.00    +0.000 C 
ATOM     18  C   UNL     1      -4.642  13.671  22.804  0.00  0.00    +0.000 C 
ATOM     19  C   UNL     1      -2.719  14.638  21.626  0.00  0.00    +0.000 C 
ENDBRANCH  11  16
ENDBRANCH   3   7
BRANCH   1  20
ATOM     20  O   UNL     1       3.128   6.163  19.833  0.00  0.00    +0.000 OA
BRANCH  20  26
ATOM     21  C   UNL     1       1.948   4.036  19.461  0.00  0.00    +0.000 A 
ATOM     22  C   UNL     1       1.695   2.998  18.553  0.00  0.00    +0.000 A 
ATOM     23  C   UNL     1       2.435   2.879  17.376  0.00  0.00    +0.000 A 
ATOM     24  C   UNL     1       3.435   3.803  17.089  0.00  0.00    +0.000 A 
ATOM     25  C   UNL     1       3.674   4.860  17.967  0.00  0.00    +0.000 A 
ATOM     26  C   UNL     1       2.933   4.985  19.152  0.00  0.00    +0.000 A 
BRANCH  21  28
ATOM     27  C   UNL     1       1.400   3.144  21.552  0.00  0.00    +0.000 C 
ATOM     28  O   UNL     1       1.196   4.188  20.599  0.00  0.00    +0.000 OA
ENDBRANCH  21  28
ENDBRANCH  20  26
ENDBRANCH   1  20
TORSDOF 5
ENDMDL
MODEL 6
REMARK VINA RESULT:      -7.2      0.744      1.834
REMARK  Name = 
REMARK  10 active torsions:
REMARK  status: ('A' for Active; 'I' for Inactive)
REMARK    1  A    between atoms: C_1  and  O_2
REMARK    2  A    between atoms: O_2  and  C_3
REMARK    3  A    between atoms: C_8  and  O_9
REMARK    4  A    between atoms: O_9  and  C_10
REMARK    5  A    between atoms: C_12  and  N_13
REMARK    6  A    between atoms: C_17  and  C_19
REMARK    7  A    between atoms: C_19  and  C_20
REMARK    8  A    between atoms: C_19  and  C_21
REMARK    9  A    between atoms: C_19  and  C_22
REMARK   10  A    between atoms: C_23  and  C_24
REMARK                            x       y       z     vdW  Elec       q    Type
REMARK                         _______ _______ _______ _____ _____    ______ ____
ROOT
ATOM      1  C   UNL     1       2.517   7.324  19.338  0.00  0.00    +0.000 A 
ATOM      2  C   UNL     1       1.612   7.912  20.199  0.00  0.00    +0.000 A 
ATOM      3  C   UNL     1       0.995   9.070  19.778  0.00  0.00    +0.000 A 
ATOM      4  N   UNL     1       1.317   9.598  18.581  0.00  0.00    +0.000 NA
ATOM      5  C   UNL     1       2.223   8.956  17.825  0.00  0.00    +0.000 A 
ATOM      6  N   UNL     1       2.825   7.807  18.124  0.00  0.00    +0.000 NA
ENDROOT
BRANCH   3   7
ATOM      7  N   UNL     1       0.046   9.720  20.518  0.00  0.00    +0.000 N 
ATOM      8  C   UNL     1      -0.409   9.354  21.862  0.00  0.00    +0.000 C 
ATOM      9  C   UNL     1      -0.721  10.630  22.691  0.00  0.00    +0.000 C 
ATOM     10  N   UNL     1      -1.500  11.649  21.945  0.00  0.00    +0.000 N 
ATOM     11  C   UNL     1      -2.532  12.312  22.598  0.00  0.00    +0.000 C 
ATOM     12  O   UNL     1      -2.785  12.037  23.778  0.00  0.00    +0.000 OA
ATOM     13  C   UNL     1      -0.969  11.942  20.597  0.00  0.00    +0.000 C 
ATOM     14  C   UNL     1       0.348  12.725  20.660  0.00  0.00    +0.000 C 
ATOM     15  C   UNL     1      -0.824  10.642  19.793  0.00  0.00    +0.000 C 
BRANCH  11  16
ATOM     16  C   UNL     1      -3.413  13.367  21.857  0.00  0.00    +0.000 C 
ATOM     17  C   UNL     1      -3.971  12.799  20.538  0.00  0.00    +0.000 C 
ATOM     18  C   UNL     1      -4.645  13.691  22.744  0.00  0.00    +0.000 C 
ATOM     19  C   UNL     1      -2.696  14.714  21.661  0.00  0.00    +0.000 C 
ENDBRANCH  11  16
ENDBRANCH   3   7
BRANCH   1  20
ATOM     20  O   UNL     1       3.040   6.119  19.786  0.00  0.00    +0.000 OA
BRANCH  20  26
ATOM     21  C   UNL     1       2.778   4.307  18.142  0.00  0.00    +0.000 A 
ATOM     22  C   UNL     1       3.388   3.598  17.097  0.00  0.00    +0.000 A 
ATOM     23  C   UNL     1       4.749   3.746  16.829  0.00  0.00    +0.000 A 
ATOM     24  C   UNL     1       5.518   4.612  17.599  0.00  0.00    +0.000 A 
ATOM     25  C   UNL     1       4.917   5.350  18.619  0.00  0.00    +0.000 A 
ATOM     26  C   UNL     1       3.549   5.206  18.893  0.00  0.00    +0.000 A 
BRANCH  21  28
ATOM     27  C   UNL     1       1.077   3.014  19.091  0.00  0.00    +0.000 C 
ATOM     28  O   UNL     1       1.431   4.204  18.385  0.00  0.00    +0.000 OA
ENDBRANCH  21  28
ENDBRANCH  20  26
ENDBRANCH   1  20
TORSDOF 5
ENDMDL
MODEL 7
REMARK VINA RESULT:      -7.1      1.554      2.218
REMARK  Name = 
REMARK  10 active torsions:
REMARK  status: ('A' for Active; 'I' for Inactive)
REMARK    1  A    between atoms: C_1  and  O_2
REMARK    2  A    between atoms: O_2  and  C_3
REMARK    3  A    between atoms: C_8  and  O_9
REMARK    4  A    between atoms: O_9  and  C_10
REMARK    5  A    between atoms: C_12  and  N_13
REMARK    6  A    between atoms: C_17  and  C_19
REMARK    7  A    between atoms: C_19  and  C_20
REMARK    8  A    between atoms: C_19  and  C_21
REMARK    9  A    between atoms: C_19  and  C_22
REMARK   10  A    between atoms: C_23  and  C_24
REMARK                            x       y       z     vdW  Elec       q    Type
REMARK                         _______ _______ _______ _____ _____    ______ ____
ROOT
ATOM      1  C   UNL     1       2.926   6.756  19.096  0.00  0.00    +0.000 A 
ATOM      2  C   UNL     1       2.008   7.677  19.559  0.00  0.00    +0.000 A 
ATOM      3  C   UNL     1       1.747   8.771  18.761  0.00  0.00    +0.000 A 
ATOM      4  N   UNL     1       2.411   8.917  17.597  0.00  0.00    +0.000 NA
ATOM      5  C   UNL     1       3.296   7.972  17.245  0.00  0.00    +0.000 A 
ATOM      6  N   UNL     1       3.569   6.858  17.922  0.00  0.00    +0.000 NA
ENDROOT
BRANCH   3   7
ATOM      7  N   UNL     1       0.825   9.727  19.085  0.00  0.00    +0.000 N 
ATOM      8  C   UNL     1      -0.248  10.228  18.223  0.00  0.00    +0.000 C 
ATOM      9  C   UNL     1      -1.516  10.538  19.066  0.00  0.00    +0.000 C 
ATOM     10  N   UNL     1      -1.230  11.275  20.322  0.00  0.00    +0.000 N 
ATOM     11  C   UNL     1      -2.077  12.311  20.697  0.00  0.00    +0.000 C 
ATOM     12  O   UNL     1      -3.040  12.603  19.977  0.00  0.00    +0.000 OA
ATOM     13  C   UNL     1      -0.125  10.699  21.117  0.00  0.00    +0.000 C 
ATOM     14  C   UNL     1      -0.522   9.369  21.768  0.00  0.00    +0.000 C 
ATOM     15  C   UNL     1       1.133  10.557  20.247  0.00  0.00    +0.000 C 
BRANCH  11  16
ATOM     16  C   UNL     1      -1.808  13.149  21.986  0.00  0.00    +0.000 C 
ATOM     17  C   UNL     1      -2.706  14.399  22.036  0.00  0.00    +0.000 C 
ATOM     18  C   UNL     1      -2.192  12.290  23.221  0.00  0.00    +0.000 C 
ATOM     19  C   UNL     1      -0.319  13.485  22.181  0.00  0.00    +0.000 C 
ENDBRANCH  11  16
ENDBRANCH   3   7
BRANCH   1  20
ATOM     20  O   UNL     1       3.080   5.640  19.907  0.00  0.00    +0.000 OA
BRANCH  20  26
ATOM     21  C   UNL     1       3.949   3.440  19.227  0.00  0.00    +0.000 A 
ATOM     22  C   UNL     1       3.619   2.113  18.916  0.00  0.00    +0.000 A 
ATOM     23  C   UNL     1       2.291   1.730  18.728  0.00  0.00    +0.000 A 
ATOM     24  C   UNL     1       1.273   2.669  18.855  0.00  0.00    +0.000 A 
ATOM     25  C   UNL     1       1.585   3.985  19.199  0.00  0.00    +0.000 A 
ATOM     26  C   UNL     1       2.918   4.376  19.389  0.00  0.00    +0.000 A 
BRANCH  21  28
ATOM     27  C   UNL     1       5.879   4.393  18.314  0.00  0.00    +0.000 C 
ATOM     28  O   UNL     1       5.248   3.818  19.459  0.00  0.00    +0.000 OA
ENDBRANCH  21  28
ENDBRANCH  20  26
ENDBRANCH   1  20
TORSDOF 5
ENDMDL
MODEL 8
REMARK VINA RESULT:      -7.0      2.031      3.108
REMARK  Name = 
REMARK  10 active torsions:
REMARK  status: ('A' for Active; 'I' for Inactive)
REMARK    1  A    between atoms: C_1  and  O_2
REMARK    2  A    between atoms: O_2  and  C_3
REMARK    3  A    between atoms: C_8  and  O_9
REMARK    4  A    between atoms: O_9  and  C_10
REMARK    5  A    between atoms: C_12  and  N_13
REMARK    6  A    between atoms: C_17  and  C_19
REMARK    7  A    between atoms: C_19  and  C_20
REMARK    8  A    between atoms: C_19  and  C_21
REMARK    9  A    between atoms: C_19  and  C_22
REMARK   10  A    between atoms: C_23  and  C_24
REMARK                            x       y       z     vdW  Elec       q    Type
REMARK                         _______ _______ _______ _____ _____    ______ ____
ROOT
ATOM      1  C   UNL     1       3.468   5.159  17.793  0.00  0.00    +0.000 A 
ATOM      2  C   UNL     1       2.568   5.956  18.472  0.00  0.00    +0.000 A 
ATOM      3  C   UNL     1       2.690   7.321  18.322  0.00  0.00    +0.000 A 
ATOM      4  N   UNL     1       3.685   7.821  17.563  0.00  0.00    +0.000 NA
ATOM      5  C   UNL     1       4.518   6.959  16.957  0.00  0.00    +0.000 A 
ATOM      6  N   UNL     1       4.442   5.631  16.999  0.00  0.00    +0.000 NA
ENDROOT
BRANCH   3   7
ATOM      7  N   UNL     1       1.831   8.214  18.903  0.00  0.00    +0.000 N 
ATOM      8  C   UNL     1       1.448   8.257  20.316  0.00  0.00    +0.000 C 
ATOM      9  C   UNL     1       1.266   9.729  20.780  0.00  0.00    +0.000 C 
ATOM     10  N   UNL     1       0.496  10.563  19.824  0.00  0.00    +0.000 N 
ATOM     11  C   UNL     1      -0.449  11.451  20.321  0.00  0.00    +0.000 C 
ATOM     12  O   UNL     1      -0.637  11.523  21.542  0.00  0.00    +0.000 OA
ATOM     13  C   UNL     1       0.951  10.442  18.422  0.00  0.00    +0.000 C 
ATOM     14  C   UNL     1       2.311  11.116  18.202  0.00  0.00    +0.000 C 
ATOM     15  C   UNL     1       0.968   8.967  17.997  0.00  0.00    +0.000 C 
BRANCH  11  16
ATOM     16  C   UNL     1      -1.318  12.328  19.364  0.00  0.00    +0.000 C 
ATOM     17  C   UNL     1      -2.063  11.458  18.335  0.00  0.00    +0.000 C 
ATOM     18  C   UNL     1      -2.413  13.037  20.205  0.00  0.00    +0.000 C 
ATOM     19  C   UNL     1      -0.519  13.466  18.705  0.00  0.00    +0.000 C 
ENDBRANCH  11  16
ENDBRANCH   3   7
BRANCH   1  20
ATOM     20  O   UNL     1       3.240   3.796  17.921  0.00  0.00    +0.000 OA
BRANCH  20  26
ATOM     21  C   UNL     1       3.390   2.766  20.151  0.00  0.00    +0.000 A 
ATOM     22  C   UNL     1       2.713   2.504  21.350  0.00  0.00    +0.000 A 
ATOM     23  C   UNL     1       1.338   2.718  21.459  0.00  0.00    +0.000 A 
ATOM     24  C   UNL     1       0.623   3.204  20.369  0.00  0.00    +0.000 A 
ATOM     25  C   UNL     1       1.291   3.502  19.181  0.00  0.00    +0.000 A 
ATOM     26  C   UNL     1       2.672   3.289  19.066  0.00  0.00    +0.000 A 
BRANCH  21  28
ATOM     27  C   UNL     1       5.239   1.489  20.795  0.00  0.00    +0.000 C 
ATOM     28  O   UNL     1       4.749   2.603  20.047  0.00  0.00    +0.000 OA
ENDBRANCH  21  28
ENDBRANCH  20  26
ENDBRANCH   1  20
TORSDOF 5
ENDMDL
MODEL 9
REMARK VINA RESULT:      -7.0      2.288      3.952
REMARK  Name = 
REMARK  10 active torsions:
REMARK  status: ('A' for Active; 'I' for Inactive)
REMARK    1  A    between atoms: C_1  and  O_2
REMARK    2  A    between atoms: O_2  and  C_3
REMARK    3  A    between atoms: C_8  and  O_9
REMARK    4  A    between atoms: O_9  and  C_10
REMARK    5  A    between atoms: C_12  and  N_13
REMARK    6  A    between atoms: C_17  and  C_19
REMARK    7  A    between atoms: C_19  and  C_20
REMARK    8  A    between atoms: C_19  and  C_21
REMARK    9  A    between atoms: C_19  and  C_22
REMARK   10  A    between atoms: C_23  and  C_24
REMARK                            x       y       z     vdW  Elec       q    Type
REMARK                         _______ _______ _______ _____ _____    ______ ____
ROOT
ATOM      1  C   UNL     1       3.722   7.182  17.656  0.00  0.00    +0.000 A 
ATOM      2  C   UNL     1       2.846   8.241  17.789  0.00  0.00    +0.000 A 
ATOM      3  C   UNL     1       2.002   8.233  18.880  0.00  0.00    +0.000 A 
ATOM      4  N   UNL     1       2.035   7.196  19.739  0.00  0.00    +0.000 NA
ATOM      5  C   UNL     1       2.915   6.208  19.511  0.00  0.00    +0.000 A 
ATOM      6  N   UNL     1       3.803   6.159  18.521  0.00  0.00    +0.000 NA
ENDROOT
BRANCH   3   7
ATOM      7  N   UNL     1       1.123   9.247  19.148  0.00  0.00    +0.000 N 
ATOM      8  C   UNL     1       0.220   9.891  18.190  0.00  0.00    +0.000 C 
ATOM      9  C   UNL     1      -1.122  10.260  18.880  0.00  0.00    +0.000 C 
ATOM     10  N   UNL     1      -0.952  10.893  20.212  0.00  0.00    +0.000 N 
ATOM     11  C   UNL     1      -1.757  11.975  20.546  0.00  0.00    +0.000 C 
ATOM     12  O   UNL     1      -2.587  12.394  19.729  0.00  0.00    +0.000 OA
ATOM     13  C   UNL     1      -0.014  10.175  21.102  0.00  0.00    +0.000 C 
ATOM     14  C   UNL     1      -0.602   8.849  21.600  0.00  0.00    +0.000 C 
ATOM     15  C   UNL     1       1.334   9.975  20.396  0.00  0.00    +0.000 C 
BRANCH  11  16
ATOM     16  C   UNL     1      -1.600  12.708  21.916  0.00  0.00    +0.000 C 
ATOM     17  C   UNL     1      -0.185  13.295  22.075  0.00  0.00    +0.000 C 
ATOM     18  C   UNL     1      -2.575  13.915  21.944  0.00  0.00    +0.000 C 
ATOM     19  C   UNL     1      -2.012  11.833  23.113  0.00  0.00    +0.000 C 
ENDBRANCH  11  16
ENDBRANCH   3   7
BRANCH   1  20
ATOM     20  O   UNL     1       4.599   7.292  16.586  0.00  0.00    +0.000 OA
BRANCH  20  26
ATOM     21  C   UNL     1       6.664   6.044  17.066  0.00  0.00    +0.000 A 
ATOM     22  C   UNL     1       7.374   4.855  16.845  0.00  0.00    +0.000 A 
ATOM     23  C   UNL     1       6.962   3.945  15.872  0.00  0.00    +0.000 A 
ATOM     24  C   UNL     1       5.828   4.209  15.109  0.00  0.00    +0.000 A 
ATOM     25  C   UNL     1       5.094   5.372  15.344  0.00  0.00    +0.000 A 
ATOM     26  C   UNL     1       5.503   6.290  16.321  0.00  0.00    +0.000 A 
BRANCH  21  28
ATOM     27  C   UNL     1       7.812   8.018  17.566  0.00  0.00    +0.000 C 
ATOM     28  O   UNL     1       7.034   6.923  18.053  0.00  0.00    +0.000 OA
ENDBRANCH  21  28
ENDBRANCH  20  26
ENDBRANCH   1  20
TORSDOF 5
ENDMDL
