MODEL 1
REMARK VINA RESULT:      -9.3      0.000      0.000
REMARK  Name = 
REMARK  5 active torsions:
REMARK  status: ('A' for Active; 'I' for Inactive)
REMARK    1  A    between atoms: C_2  and  C_4
REMARK    2  A    between atoms: C_7  and  C_8
REMARK    3  A    between atoms: C_11  and  C_12
REMARK    4  A    between atoms: C_12  and  C_13
REMARK    5  A    between atoms: N_22  and  O_23
REMARK                            x       y       z     vdW  Elec       q    Type
REMARK                         _______ _______ _______ _____ _____    ______ ____
ROOT
ATOM      1  C   UNL     1      -0.386  11.345  20.782  0.00  0.00    +0.000 A 
ATOM      2  C   UNL     1       0.617  10.415  21.109  0.00  0.00    +0.000 A 
ATOM      3  C   UNL     1       1.160   9.560  20.153  0.00  0.00    +0.000 A 
ATOM      4  C   UNL     1       0.705   9.605  18.838  0.00  0.00    +0.000 A 
ATOM      5  C   UNL     1      -0.292  10.520  18.486  0.00  0.00    +0.000 A 
ATOM      6  C   UNL     1      -0.818  11.388  19.445  0.00  0.00    +0.000 A 
ENDROOT
BRANCH   1  10
ATOM      7  C   UNL     1      -2.060  13.898  23.825  0.00  0.00    +0.000 A 
ATOM      8  C   UNL     1      -0.894  14.270  23.158  0.00  0.00    +0.000 A 
ATOM      9  C   UNL     1      -0.365  13.449  22.156  0.00  0.00    +0.000 A 
ATOM     10  C   UNL     1      -0.971  12.229  21.811  0.00  0.00    +0.000 A 
ATOM     11  C   UNL     1      -2.139  11.865  22.511  0.00  0.00    +0.000 A 
ATOM     12  C   UNL     1      -2.673  12.685  23.509  0.00  0.00    +0.000 A 
BRANCH   7  14
ATOM     13  N   UNL     1      -4.015  14.913  24.846  0.00  0.00    +0.000 N 
ATOM     14  C   UNL     1      -2.661  14.749  24.877  0.00  0.00    +0.000 C 
ATOM     15  O   UNL     1      -1.989  15.240  25.763  0.00  0.00    +0.000 OA
ATOM     16  H   UNL     1      -4.431  15.399  25.634  0.00  0.00    +0.000 HD
ATOM     17  H   UNL     1      -4.618  14.327  24.292  0.00  0.00    +0.000 HD
ENDBRANCH   7  14
ENDBRANCH   1  10
BRANCH   4  18
ATOM     18  C   UNL     1       1.352   8.746  17.799  0.00  0.00    +0.000 C 
BRANCH  18  19
ATOM     19  C   UNL     1       2.388   7.732  18.214  0.00  0.00    +0.000 A 
ATOM     20  C   UNL     1       2.293   6.756  19.215  0.00  0.00    +0.000 A 
ATOM     21  C   UNL     1       3.340   5.825  19.400  0.00  0.00    +0.000 A 
ATOM     22  C   UNL     1       4.441   5.812  18.528  0.00  0.00    +0.000 A 
ATOM     23  C   UNL     1       4.496   6.756  17.504  0.00  0.00    +0.000 A 
ATOM     24  C   UNL     1       3.538   7.763  17.424  0.00  0.00    +0.000 A 
ATOM     25  C   UNL     1       5.402   6.599  16.324  0.00  0.00    +0.000 C 
ATOM     26  C   UNL     1       6.607   5.751  16.568  0.00  0.00    +0.000 C 
ATOM     27  O   UNL     1       7.516   5.664  15.740  0.00  0.00    +0.000 OA
ATOM     28  N   UNL     1       6.584   5.001  17.735  0.00  0.00    +0.000 N 
ATOM     29  C   UNL     1       5.557   4.841  18.669  0.00  0.00    +0.000 C 
ATOM     30  O   UNL     1       5.526   4.000  19.560  0.00  0.00    +0.000 OA
BRANCH  28  31
ATOM     31  O   UNL     1       7.704   4.143  17.872  0.00  0.00    +0.000 OA
ATOM     32  H   UNL     1       8.146   4.511  18.669  0.00  0.00    +0.000 HD
ENDBRANCH  28  31
ENDBRANCH  18  19
ENDBRANCH   4  18
TORSDOF 5
ENDMDL
MODEL 2
REMARK VINA RESULT:      -9.3      3.580     10.827
REMARK  Name = 
REMARK  5 active torsions:
REMARK  status: ('A' for Active; 'I' for Inactive)
REMARK    1  A    between atoms: C_2  and  C_4
REMARK    2  A    between atoms: C_7  and  C_8
REMARK    3  A    between atoms: C_11  and  C_12
REMARK    4  A    between atoms: C_12  and  C_13
REMARK    5  A    between atoms: N_22  and  O_23
REMARK                            x       y       z     vdW  Elec       q    Type
REMARK                         _______ _______ _______ _____ _____    ______ ____
ROOT
ATOM      1  C   UNL     1       2.319   7.083  19.393  0.00  0.00    +0.000 A 
ATOM      2  C   UNL     1       2.377   7.738  18.149  0.00  0.00    +0.000 A 
ATOM      3  C   UNL     1       1.788   8.985  17.952  0.00  0.00    +0.000 A 
ATOM      4  C   UNL     1       1.111   9.609  18.997  0.00  0.00    +0.000 A 
ATOM      5  C   UNL     1       1.038   8.979  20.242  0.00  0.00    +0.000 A 
ATOM      6  C   UNL     1       1.648   7.739  20.439  0.00  0.00    +0.000 A 
ENDROOT
BRANCH   1  10
ATOM      7  C   UNL     1       4.066   3.175  19.894  0.00  0.00    +0.000 A 
ATOM      8  C   UNL     1       4.697   4.130  19.100  0.00  0.00    +0.000 A 
ATOM      9  C   UNL     1       4.138   5.405  18.955  0.00  0.00    +0.000 A 
ATOM     10  C   UNL     1       2.927   5.750  19.580  0.00  0.00    +0.000 A 
ATOM     11  C   UNL     1       2.299   4.762  20.365  0.00  0.00    +0.000 A 
ATOM     12  C   UNL     1       2.857   3.490  20.515  0.00  0.00    +0.000 A 
BRANCH   7  14
ATOM     13  N   UNL     1       4.463   0.924  19.074  0.00  0.00    +0.000 N 
ATOM     14  C   UNL     1       4.637   1.821  20.087  0.00  0.00    +0.000 C 
ATOM     15  O   UNL     1       5.278   1.534  21.079  0.00  0.00    +0.000 OA
ATOM     16  H   UNL     1       4.954   0.041  19.163  0.00  0.00    +0.000 HD
ATOM     17  H   UNL     1       4.167   1.200  18.153  0.00  0.00    +0.000 HD
ENDBRANCH   7  14
ENDBRANCH   1  10
BRANCH   4  18
ATOM     18  C   UNL     1       0.556  10.985  18.804  0.00  0.00    +0.000 C 
BRANCH  18  19
ATOM     19  C   UNL     1      -0.915  11.160  18.521  0.00  0.00    +0.000 A 
ATOM     20  C   UNL     1      -1.710  10.460  17.604  0.00  0.00    +0.000 A 
ATOM     21  C   UNL     1      -3.101  10.700  17.544  0.00  0.00    +0.000 A 
ATOM     22  C   UNL     1      -3.712  11.573  18.460  0.00  0.00    +0.000 A 
ATOM     23  C   UNL     1      -2.914  12.222  19.401  0.00  0.00    +0.000 A 
ATOM     24  C   UNL     1      -1.528  12.097  19.353  0.00  0.00    +0.000 A 
ATOM     25  C   UNL     1      -3.487  12.859  20.627  0.00  0.00    +0.000 C 
ATOM     26  C   UNL     1      -4.917  13.273  20.507  0.00  0.00    +0.000 C 
ATOM     27  O   UNL     1      -5.470  13.949  21.377  0.00  0.00    +0.000 OA
ATOM     28  N   UNL     1      -5.597  12.767  19.408  0.00  0.00    +0.000 N 
ATOM     29  C   UNL     1      -5.173  11.843  18.449  0.00  0.00    +0.000 C 
ATOM     30  O   UNL     1      -5.893  11.279  17.633  0.00  0.00    +0.000 OA
BRANCH  28  31
ATOM     31  O   UNL     1      -6.972  13.110  19.392  0.00  0.00    +0.000 OA
ATOM     32  H   UNL     1      -7.115  13.335  18.447  0.00  0.00    +0.000 HD
ENDBRANCH  28  31
ENDBRANCH  18  19
ENDBRANCH   4  18
TORSDOF 5
ENDMDL
MODEL 3
REMARK VINA RESULT:      -9.2      3.508     10.823
REMARK  Name = 
REMARK  5 active torsions:
REMARK  status: ('A' for Active; 'I' for Inactive)
REMARK    1  A    between atoms: C_2  and  C_4
REMARK    2  A    between atoms: C_7  and  C_8
REMARK    3  A    between atoms: C_11  and  C_12
REMARK    4  A    between atoms: C_12  and  C_13
REMARK    5  A    between atoms: N_22  and  O_23
REMARK                            x       y       z     vdW  Elec       q    Type
REMARK                         _______ _______ _______ _____ _____    ______ ____
ROOT
ATOM      1  C   UNL     1       2.136   7.434  19.185  0.00  0.00    +0.000 A 
ATOM      2  C   UNL     1       1.463   8.045  20.258  0.00  0.00    +0.000 A 
ATOM      3  C   UNL     1       0.948   9.335  20.159  0.00  0.00    +0.000 A 
ATOM      4  C   UNL     1       1.103  10.058  18.978  0.00  0.00    +0.000 A 
ATOM      5  C   UNL     1       1.767   9.474  17.896  0.00  0.00    +0.000 A 
ATOM      6  C   UNL     1       2.263   8.173  17.996  0.00  0.00    +0.000 A 
ENDROOT
BRANCH   1  10
ATOM      7  C   UNL     1       3.813   3.485  19.597  0.00  0.00    +0.000 A 
ATOM      8  C   UNL     1       2.798   3.910  20.452  0.00  0.00    +0.000 A 
ATOM      9  C   UNL     1       2.241   5.185  20.302  0.00  0.00    +0.000 A 
ATOM     10  C   UNL     1       2.698   6.074  19.313  0.00  0.00    +0.000 A 
ATOM     11  C   UNL     1       3.736   5.628  18.472  0.00  0.00    +0.000 A 
ATOM     12  C   UNL     1       4.291   4.354  18.614  0.00  0.00    +0.000 A 
BRANCH   7  14
ATOM     13  N   UNL     1       4.193   1.268  18.683  0.00  0.00    +0.000 N 
ATOM     14  C   UNL     1       4.415   2.136  19.711  0.00  0.00    +0.000 C 
ATOM     15  O   UNL     1       5.118   1.828  20.653  0.00  0.00    +0.000 OA
ATOM     16  H   UNL     1       4.702   0.391  18.713  0.00  0.00    +0.000 HD
ATOM     17  H   UNL     1       3.839   1.568  17.789  0.00  0.00    +0.000 HD
ENDBRANCH   7  14
ENDBRANCH   1  10
BRANCH   4  18
ATOM     18  C   UNL     1       0.473  11.409  18.848  0.00  0.00    +0.000 C 
BRANCH  18  19
ATOM     19  C   UNL     1      -1.012  11.515  18.604  0.00  0.00    +0.000 A 
ATOM     20  C   UNL     1      -1.779  10.862  17.631  0.00  0.00    +0.000 A 
ATOM     21  C   UNL     1      -3.183  11.016  17.614  0.00  0.00    +0.000 A 
ATOM     22  C   UNL     1      -3.830  11.750  18.623  0.00  0.00    +0.000 A 
ATOM     23  C   UNL     1      -3.057  12.351  19.615  0.00  0.00    +0.000 A 
ATOM     24  C   UNL     1      -1.667  12.322  19.536  0.00  0.00    +0.000 A 
ATOM     25  C   UNL     1      -3.644  12.822  20.907  0.00  0.00    +0.000 C 
ATOM     26  C   UNL     1      -5.099  13.152  20.850  0.00  0.00    +0.000 C 
ATOM     27  O   UNL     1      -5.677  13.699  21.792  0.00  0.00    +0.000 OA
ATOM     28  N   UNL     1      -5.767  12.717  19.714  0.00  0.00    +0.000 N 
ATOM     29  C   UNL     1      -5.305  11.925  18.659  0.00  0.00    +0.000 C 
ATOM     30  O   UNL     1      -6.004  11.400  17.800  0.00  0.00    +0.000 OA
BRANCH  28  31
ATOM     31  O   UNL     1      -7.161  12.970  19.752  0.00  0.00    +0.000 OA
ATOM     32  H   UNL     1      -7.335  13.011  20.718  0.00  0.00    +0.000 HD
ENDBRANCH  28  31
ENDBRANCH  18  19
ENDBRANCH   4  18
TORSDOF 5
ENDMDL
MODEL 4
REMARK VINA RESULT:      -9.1      2.527     10.827
REMARK  Name = 
REMARK  5 active torsions:
REMARK  status: ('A' for Active; 'I' for Inactive)
REMARK    1  A    between atoms: C_2  and  C_4
REMARK    2  A    between atoms: C_7  and  C_8
REMARK    3  A    between atoms: C_11  and  C_12
REMARK    4  A    between atoms: C_12  and  C_13
REMARK    5  A    between atoms: N_22  and  O_23
REMARK                            x       y       z     vdW  Elec       q    Type
REMARK                         _______ _______ _______ _____ _____    ______ ____
ROOT
ATOM      1  C   UNL     1       2.065   7.605  19.394  0.00  0.00    +0.000 A 
ATOM      2  C   UNL     1       2.133   8.367  18.214  0.00  0.00    +0.000 A 
ATOM      3  C   UNL     1       1.619   9.660  18.150  0.00  0.00    +0.000 A 
ATOM      4  C   UNL     1       1.010  10.225  19.268  0.00  0.00    +0.000 A 
ATOM      5  C   UNL     1       0.930   9.488  20.453  0.00  0.00    +0.000 A 
ATOM      6  C   UNL     1       1.465   8.201  20.517  0.00  0.00    +0.000 A 
ENDROOT
BRANCH   1  10
ATOM      7  C   UNL     1       3.643   3.597  19.564  0.00  0.00    +0.000 A 
ATOM      8  C   UNL     1       2.675   4.011  20.478  0.00  0.00    +0.000 A 
ATOM      9  C   UNL     1       2.150   5.306  20.407  0.00  0.00    +0.000 A 
ATOM     10  C   UNL     1       2.592   6.225  19.440  0.00  0.00    +0.000 A 
ATOM     11  C   UNL     1       3.583   5.790  18.538  0.00  0.00    +0.000 A 
ATOM     12  C   UNL     1       4.106   4.495  18.602  0.00  0.00    +0.000 A 
BRANCH   7  14
ATOM     13  N   UNL     1       3.883   1.398  18.563  0.00  0.00    +0.000 N 
ATOM     14  C   UNL     1       4.209   2.229  19.595  0.00  0.00    +0.000 C 
ATOM     15  O   UNL     1       4.972   1.873  20.472  0.00  0.00    +0.000 OA
ATOM     16  H   UNL     1       4.365   0.506  18.530  0.00  0.00    +0.000 HD
ATOM     17  H   UNL     1       3.471   1.735  17.708  0.00  0.00    +0.000 HD
ENDBRANCH   7  14
ENDBRANCH   1  10
BRANCH   4  18
ATOM     18  C   UNL     1       0.539  11.644  19.219  0.00  0.00    +0.000 C 
BRANCH  18  19
ATOM     19  C   UNL     1      -0.898  11.962  19.551  0.00  0.00    +0.000 A 
ATOM     20  C   UNL     1      -2.019  11.876  18.717  0.00  0.00    +0.000 A 
ATOM     21  C   UNL     1      -3.310  12.127  19.234  0.00  0.00    +0.000 A 
ATOM     22  C   UNL     1      -3.489  12.377  20.605  0.00  0.00    +0.000 A 
ATOM     23  C   UNL     1      -2.368  12.408  21.433  0.00  0.00    +0.000 A 
ATOM     24  C   UNL     1      -1.090  12.311  20.888  0.00  0.00    +0.000 A 
ATOM     25  C   UNL     1      -2.473  12.291  22.920  0.00  0.00    +0.000 C 
ATOM     26  C   UNL     1      -3.784  12.721  23.491  0.00  0.00    +0.000 C 
ATOM     27  O   UNL     1      -3.957  12.829  24.707  0.00  0.00    +0.000 OA
ATOM     28  N   UNL     1      -4.809  12.895  22.572  0.00  0.00    +0.000 N 
ATOM     29  C   UNL     1      -4.828  12.629  21.200  0.00  0.00    +0.000 C 
ATOM     30  O   UNL     1      -5.827  12.601  20.490  0.00  0.00    +0.000 OA
BRANCH  28  31
ATOM     31  O   UNL     1      -6.054  13.210  23.172  0.00  0.00    +0.000 OA
ATOM     32  H   UNL     1      -6.603  12.436  22.920  0.00  0.00    +0.000 HD
ENDBRANCH  28  31
ENDBRANCH  18  19
ENDBRANCH   4  18
TORSDOF 5
ENDMDL
MODEL 5
REMARK VINA RESULT:      -9.1      3.518     10.710
REMARK  Name = 
REMARK  5 active torsions:
REMARK  status: ('A' for Active; 'I' for Inactive)
REMARK    1  A    between atoms: C_2  and  C_4
REMARK    2  A    between atoms: C_7  and  C_8
REMARK    3  A    between atoms: C_11  and  C_12
REMARK    4  A    between atoms: C_12  and  C_13
REMARK    5  A    between atoms: N_22  and  O_23
REMARK                            x       y       z     vdW  Elec       q    Type
REMARK                         _______ _______ _______ _____ _____    ______ ____
ROOT
ATOM      1  C   UNL     1       2.201   7.503  19.248  0.00  0.00    +0.000 A 
ATOM      2  C   UNL     1       2.240   8.188  18.020  0.00  0.00    +0.000 A 
ATOM      3  C   UNL     1       1.688   9.459  17.875  0.00  0.00    +0.000 A 
ATOM      4  C   UNL     1       1.069  10.079  18.959  0.00  0.00    +0.000 A 
ATOM      5  C   UNL     1       1.017   9.419  20.190  0.00  0.00    +0.000 A 
ATOM      6  C   UNL     1       1.590   8.154  20.333  0.00  0.00    +0.000 A 
ENDROOT
BRANCH   1  10
ATOM      7  C   UNL     1       3.828   3.526  19.588  0.00  0.00    +0.000 A 
ATOM      8  C   UNL     1       4.484   4.491  18.827  0.00  0.00    +0.000 A 
ATOM      9  C   UNL     1       3.965   5.787  18.735  0.00  0.00    +0.000 A 
ATOM     10  C   UNL     1       2.768   6.145  19.380  0.00  0.00    +0.000 A 
ATOM     11  C   UNL     1       2.113   5.148  20.130  0.00  0.00    +0.000 A 
ATOM     12  C   UNL     1       2.632   3.854  20.228  0.00  0.00    +0.000 A 
BRANCH   7  14
ATOM     13  N   UNL     1       4.079   1.274  18.716  0.00  0.00    +0.000 N 
ATOM     14  C   UNL     1       4.357   2.149  19.724  0.00  0.00    +0.000 C 
ATOM     15  O   UNL     1       5.052   1.823  20.666  0.00  0.00    +0.000 OA
ATOM     16  H   UNL     1       4.541   0.372  18.760  0.00  0.00    +0.000 HD
ATOM     17  H   UNL     1       3.732   1.575  17.820  0.00  0.00    +0.000 HD
ENDBRANCH   7  14
ENDBRANCH   1  10
BRANCH   4  18
ATOM     18  C   UNL     1       0.557  11.477  18.820  0.00  0.00    +0.000 C 
BRANCH  18  19
ATOM     19  C   UNL     1      -0.759  11.852  19.454  0.00  0.00    +0.000 A 
ATOM     20  C   UNL     1      -0.981  12.673  20.567  0.00  0.00    +0.000 A 
ATOM     21  C   UNL     1      -2.300  12.989  20.964  0.00  0.00    +0.000 A 
ATOM     22  C   UNL     1      -3.395  12.557  20.197  0.00  0.00    +0.000 A 
ATOM     23  C   UNL     1      -3.155  11.785  19.062  0.00  0.00    +0.000 A 
ATOM     24  C   UNL     1      -1.865  11.352  18.767  0.00  0.00    +0.000 A 
ATOM     25  C   UNL     1      -4.186  11.597  17.994  0.00  0.00    +0.000 C 
ATOM     26  C   UNL     1      -5.598  11.761  18.451  0.00  0.00    +0.000 C 
ATOM     27  O   UNL     1      -6.551  11.480  17.721  0.00  0.00    +0.000 OA
ATOM     28  N   UNL     1      -5.759  12.335  19.704  0.00  0.00    +0.000 N 
ATOM     29  C   UNL     1      -4.799  12.880  20.562  0.00  0.00    +0.000 C 
ATOM     30  O   UNL     1      -5.031  13.562  21.553  0.00  0.00    +0.000 OA
BRANCH  28  31
ATOM     31  O   UNL     1      -7.115  12.556  20.049  0.00  0.00    +0.000 OA
ATOM     32  H   UNL     1      -7.061  12.676  21.023  0.00  0.00    +0.000 HD
ENDBRANCH  28  31
ENDBRANCH  18  19
ENDBRANCH   4  18
TORSDOF 5
ENDMDL
MODEL 6
REMARK VINA RESULT:      -9.1      0.667      1.109
REMARK  Name = 
REMARK  5 active torsions:
REMARK  status: ('A' for Active; 'I' for Inactive)
REMARK    1  A    between atoms: C_2  and  C_4
REMARK    2  A    between atoms: C_7  and  C_8
REMARK    3  A    between atoms: C_11  and  C_12
REMARK    4  A    between atoms: C_12  and  C_13
REMARK    5  A    between atoms: N_22  and  O_23
REMARK                            x       y       z     vdW  Elec       q    Type
REMARK                         _______ _______ _______ _____ _____    ______ ____
ROOT
ATOM      1  C   UNL     1      -0.150  11.348  20.800  0.00  0.00    +0.000 A 
ATOM      2  C   UNL     1       0.519  10.161  21.149  0.00  0.00    +0.000 A 
ATOM      3  C   UNL     1       1.004   9.285  20.181  0.00  0.00    +0.000 A 
ATOM      4  C   UNL     1       0.822   9.569  18.829  0.00  0.00    +0.000 A 
ATOM      5  C   UNL     1       0.160  10.742  18.456  0.00  0.00    +0.000 A 
ATOM      6  C   UNL     1      -0.305  11.626  19.431  0.00  0.00    +0.000 A 
ENDROOT
BRANCH   1  10
ATOM      7  C   UNL     1      -1.736  14.015  23.792  0.00  0.00    +0.000 A 
ATOM      8  C   UNL     1      -2.255  12.729  23.650  0.00  0.00    +0.000 A 
ATOM      9  C   UNL     1      -1.724  11.859  22.692  0.00  0.00    +0.000 A 
ATOM     10  C   UNL     1      -0.680  12.256  21.838  0.00  0.00    +0.000 A 
ATOM     11  C   UNL     1      -0.184  13.566  21.989  0.00  0.00    +0.000 A 
ATOM     12  C   UNL     1      -0.708  14.436  22.948  0.00  0.00    +0.000 A 
BRANCH   7  14
ATOM     13  N   UNL     1      -1.404  15.339  25.800  0.00  0.00    +0.000 N 
ATOM     14  C   UNL     1      -2.259  14.958  24.808  0.00  0.00    +0.000 C 
ATOM     15  O   UNL     1      -3.382  15.417  24.735  0.00  0.00    +0.000 OA
ATOM     16  H   UNL     1      -1.730  16.071  26.422  0.00  0.00    +0.000 HD
ATOM     17  H   UNL     1      -0.411  15.183  25.747  0.00  0.00    +0.000 HD
ENDBRANCH   7  14
ENDBRANCH   1  10
BRANCH   4  18
ATOM     18  C   UNL     1       1.420   8.669  17.795  0.00  0.00    +0.000 C 
BRANCH  18  19
ATOM     19  C   UNL     1       2.460   7.656  18.204  0.00  0.00    +0.000 A 
ATOM     20  C   UNL     1       2.372   6.679  19.204  0.00  0.00    +0.000 A 
ATOM     21  C   UNL     1       3.420   5.750  19.383  0.00  0.00    +0.000 A 
ATOM     22  C   UNL     1       4.518   5.739  18.505  0.00  0.00    +0.000 A 
ATOM     23  C   UNL     1       4.566   6.685  17.482  0.00  0.00    +0.000 A 
ATOM     24  C   UNL     1       3.606   7.690  17.409  0.00  0.00    +0.000 A 
ATOM     25  C   UNL     1       5.467   6.531  16.298  0.00  0.00    +0.000 C 
ATOM     26  C   UNL     1       6.674   5.684  16.535  0.00  0.00    +0.000 C 
ATOM     27  O   UNL     1       7.580   5.601  15.703  0.00  0.00    +0.000 OA
ATOM     28  N   UNL     1       6.659   4.933  17.702  0.00  0.00    +0.000 N 
ATOM     29  C   UNL     1       5.636   4.770  18.641  0.00  0.00    +0.000 C 
ATOM     30  O   UNL     1       5.610   3.927  19.530  0.00  0.00    +0.000 OA
BRANCH  28  31
ATOM     31  O   UNL     1       7.780   4.077  17.832  0.00  0.00    +0.000 OA
ATOM     32  H   UNL     1       7.423   3.221  17.510  0.00  0.00    +0.000 HD
ENDBRANCH  28  31
ENDBRANCH  18  19
ENDBRANCH   4  18
TORSDOF 5
ENDMDL
MODEL 7
REMARK VINA RESULT:      -9.1      3.213     10.831
REMARK  Name = 
REMARK  5 active torsions:
REMARK  status: ('A' for Active; 'I' for Inactive)
REMARK    1  A    between atoms: C_2  and  C_4
REMARK    2  A    between atoms: C_7  and  C_8
REMARK    3  A    between atoms: C_11  and  C_12
REMARK    4  A    between atoms: C_12  and  C_13
REMARK    5  A    between atoms: N_22  and  O_23
REMARK                            x       y       z     vdW  Elec       q    Type
REMARK                         _______ _______ _______ _____ _____    ______ ____
ROOT
ATOM      1  C   UNL     1       2.079   7.630  19.037  0.00  0.00    +0.000 A 
ATOM      2  C   UNL     1       1.463   8.211  20.161  0.00  0.00    +0.000 A 
ATOM      3  C   UNL     1       0.989   9.520  20.138  0.00  0.00    +0.000 A 
ATOM      4  C   UNL     1       1.128  10.292  18.987  0.00  0.00    +0.000 A 
ATOM      5  C   UNL     1       1.736   9.738  17.857  0.00  0.00    +0.000 A 
ATOM      6  C   UNL     1       2.191   8.419  17.879  0.00  0.00    +0.000 A 
ENDROOT
BRANCH   1  10
ATOM      7  C   UNL     1       3.550   3.580  19.148  0.00  0.00    +0.000 A 
ATOM      8  C   UNL     1       3.791   4.385  18.036  0.00  0.00    +0.000 A 
ATOM      9  C   UNL     1       3.330   5.706  18.012  0.00  0.00    +0.000 A 
ATOM     10  C   UNL     1       2.599   6.248  19.083  0.00  0.00    +0.000 A 
ATOM     11  C   UNL     1       2.354   5.410  20.189  0.00  0.00    +0.000 A 
ATOM     12  C   UNL     1       2.817   4.092  20.220  0.00  0.00    +0.000 A 
BRANCH   7  14
ATOM     13  N   UNL     1       5.036   1.919  20.111  0.00  0.00    +0.000 N 
ATOM     14  C   UNL     1       4.039   2.183  19.219  0.00  0.00    +0.000 C 
ATOM     15  O   UNL     1       3.540   1.298  18.552  0.00  0.00    +0.000 OA
ATOM     16  H   UNL     1       5.284   0.943  20.237  0.00  0.00    +0.000 HD
ATOM     17  H   UNL     1       5.289   2.560  20.845  0.00  0.00    +0.000 HD
ENDBRANCH   7  14
ENDBRANCH   1  10
BRANCH   4  18
ATOM     18  C   UNL     1       0.540  11.667  18.940  0.00  0.00    +0.000 C 
BRANCH  18  19
ATOM     19  C   UNL     1      -0.958  11.832  18.868  0.00  0.00    +0.000 A 
ATOM     20  C   UNL     1      -1.833  11.372  17.875  0.00  0.00    +0.000 A 
ATOM     21  C   UNL     1      -3.227  11.542  18.025  0.00  0.00    +0.000 A 
ATOM     22  C   UNL     1      -3.753  12.090  19.208  0.00  0.00    +0.000 A 
ATOM     23  C   UNL     1      -2.872  12.494  20.209  0.00  0.00    +0.000 A 
ATOM     24  C   UNL     1      -1.498  12.464  19.988  0.00  0.00    +0.000 A 
ATOM     25  C   UNL     1      -3.320  12.731  21.616  0.00  0.00    +0.000 C 
ATOM     26  C   UNL     1      -4.764  13.081  21.763  0.00  0.00    +0.000 C 
ATOM     27  O   UNL     1      -5.233  13.456  22.840  0.00  0.00    +0.000 OA
ATOM     28  N   UNL     1      -5.550  12.865  20.640  0.00  0.00    +0.000 N 
ATOM     29  C   UNL     1      -5.213  12.271  19.420  0.00  0.00    +0.000 C 
ATOM     30  O   UNL     1      -6.005  11.917  18.555  0.00  0.00    +0.000 OA
BRANCH  28  31
ATOM     31  O   UNL     1      -6.926  13.123  20.860  0.00  0.00    +0.000 OA
ATOM     32  H   UNL     1      -7.286  13.104  19.946  0.00  0.00    +0.000 HD
ENDBRANCH  28  31
ENDBRANCH  18  19
ENDBRANCH   4  18
TORSDOF 5
ENDMDL
MODEL 8
REMARK VINA RESULT:      -9.0      2.566     10.934
REMARK  Name = 
REMARK  5 active torsions:
REMARK  status: ('A' for Active; 'I' for Inactive)
REMARK    1  A    between atoms: C_2  and  C_4
REMARK    2  A    between atoms: C_7  and  C_8
REMARK    3  A    between atoms: C_11  and  C_12
REMARK    4  A    between atoms: C_12  and  C_13
REMARK    5  A    between atoms: N_22  and  O_23
REMARK                            x       y       z     vdW  Elec       q    Type
REMARK                         _______ _______ _______ _____ _____    ______ ____
ROOT
ATOM      1  C   UNL     1       1.852   7.895  19.758  0.00  0.00    +0.000 A 
ATOM      2  C   UNL     1       1.791   8.737  18.633  0.00  0.00    +0.000 A 
ATOM      3  C   UNL     1       1.294  10.036  18.719  0.00  0.00    +0.000 A 
ATOM      4  C   UNL     1       0.834  10.527  19.939  0.00  0.00    +0.000 A 
ATOM      5  C   UNL     1       0.885   9.710  21.072  0.00  0.00    +0.000 A 
ATOM      6  C   UNL     1       1.402   8.417  20.983  0.00  0.00    +0.000 A 
ENDROOT
BRANCH   1  10
ATOM      7  C   UNL     1       3.287   3.847  19.394  0.00  0.00    +0.000 A 
ATOM      8  C   UNL     1       3.758   4.839  18.537  0.00  0.00    +0.000 A 
ATOM      9  C   UNL     1       3.306   6.157  18.671  0.00  0.00    +0.000 A 
ATOM     10  C   UNL     1       2.358   6.512  19.646  0.00  0.00    +0.000 A 
ATOM     11  C   UNL     1       1.883   5.488  20.490  0.00  0.00    +0.000 A 
ATOM     12  C   UNL     1       2.336   4.172  20.363  0.00  0.00    +0.000 A 
BRANCH   7  14
ATOM     13  N   UNL     1       4.935   2.141  19.910  0.00  0.00    +0.000 N 
ATOM     14  C   UNL     1       3.756   2.445  19.296  0.00  0.00    +0.000 C 
ATOM     15  O   UNL     1       3.097   1.589  18.740  0.00  0.00    +0.000 OA
ATOM     16  H   UNL     1       5.191   1.159  19.938  0.00  0.00    +0.000 HD
ATOM     17  H   UNL     1       5.368   2.752  20.583  0.00  0.00    +0.000 HD
ENDBRANCH   7  14
ENDBRANCH   1  10
BRANCH   4  18
ATOM     18  C   UNL     1       0.385  11.950  20.043  0.00  0.00    +0.000 C 
BRANCH  18  19
ATOM     19  C   UNL     1      -1.065  12.252  20.331  0.00  0.00    +0.000 A 
ATOM     20  C   UNL     1      -2.133  12.314  19.426  0.00  0.00    +0.000 A 
ATOM     21  C   UNL     1      -3.449  12.520  19.895  0.00  0.00    +0.000 A 
ATOM     22  C   UNL     1      -3.711  12.575  21.274  0.00  0.00    +0.000 A 
ATOM     23  C   UNL     1      -2.645  12.460  22.164  0.00  0.00    +0.000 A 
ATOM     24  C   UNL     1      -1.336  12.410  21.690  0.00  0.00    +0.000 A 
ATOM     25  C   UNL     1      -2.846  12.133  23.610  0.00  0.00    +0.000 C 
ATOM     26  C   UNL     1      -4.183  12.510  24.156  0.00  0.00    +0.000 C 
ATOM     27  O   UNL     1      -4.431  12.447  25.363  0.00  0.00    +0.000 OA
ATOM     28  N   UNL     1      -5.145  12.839  23.212  0.00  0.00    +0.000 N 
ATOM     29  C   UNL     1      -5.080  12.772  21.817  0.00  0.00    +0.000 C 
ATOM     30  O   UNL     1      -6.033  12.871  21.052  0.00  0.00    +0.000 OA
BRANCH  28  31
ATOM     31  O   UNL     1      -6.420  13.094  23.775  0.00  0.00    +0.000 OA
ATOM     32  H   UNL     1      -6.222  13.818  24.409  0.00  0.00    +0.000 HD
ENDBRANCH  28  31
ENDBRANCH  18  19
ENDBRANCH   4  18
TORSDOF 5
ENDMDL
MODEL 9
REMARK VINA RESULT:      -9.0      0.965      1.100
REMARK  Name = 
REMARK  5 active torsions:
REMARK  status: ('A' for Active; 'I' for Inactive)
REMARK    1  A    between atoms: C_2  and  C_4
REMARK    2  A    between atoms: C_7  and  C_8
REMARK    3  A    between atoms: C_11  and  C_12
REMARK    4  A    between atoms: C_12  and  C_13
REMARK    5  A    between atoms: N_22  and  O_23
REMARK                            x       y       z     vdW  Elec       q    Type
REMARK                         _______ _______ _______ _____ _____    ______ ____
ROOT
ATOM      1  C   UNL     1       0.129  11.462  20.751  0.00  0.00    +0.000 A 
ATOM      2  C   UNL     1       1.044  11.818  19.744  0.00  0.00    +0.000 A 
ATOM      3  C   UNL     1       1.517  10.885  18.824  0.00  0.00    +0.000 A 
ATOM      4  C   UNL     1       1.093   9.560  18.894  0.00  0.00    +0.000 A 
ATOM      5  C   UNL     1       0.184   9.181  19.886  0.00  0.00    +0.000 A 
ATOM      6  C   UNL     1      -0.302  10.125  20.792  0.00  0.00    +0.000 A 
ENDROOT
BRANCH   1  10
ATOM      7  C   UNL     1      -1.213  14.349  23.656  0.00  0.00    +0.000 A 
ATOM      8  C   UNL     1      -0.232  14.691  22.728  0.00  0.00    +0.000 A 
ATOM      9  C   UNL     1       0.187  13.758  21.772  0.00  0.00    +0.000 A 
ATOM     10  C   UNL     1      -0.345  12.457  21.735  0.00  0.00    +0.000 A 
ATOM     11  C   UNL     1      -1.323  12.130  22.694  0.00  0.00    +0.000 A 
ATOM     12  C   UNL     1      -1.748  13.060  23.646  0.00  0.00    +0.000 A 
BRANCH   7  14
ATOM     13  N   UNL     1      -1.242  16.598  24.572  0.00  0.00    +0.000 N 
ATOM     14  C   UNL     1      -1.696  15.315  24.670  0.00  0.00    +0.000 C 
ATOM     15  O   UNL     1      -2.503  14.997  25.522  0.00  0.00    +0.000 OA
ATOM     16  H   UNL     1      -1.666  17.277  25.196  0.00  0.00    +0.000 HD
ATOM     17  H   UNL     1      -0.786  16.948  23.746  0.00  0.00    +0.000 HD
ENDBRANCH   7  14
ENDBRANCH   1  10
BRANCH   4  18
ATOM     18  C   UNL     1       1.536   8.583  17.852  0.00  0.00    +0.000 C 
BRANCH  18  19
ATOM     19  C   UNL     1       2.631   7.597  18.176  0.00  0.00    +0.000 A 
ATOM     20  C   UNL     1       2.664   6.646  19.204  0.00  0.00    +0.000 A 
ATOM     21  C   UNL     1       3.742   5.738  19.296  0.00  0.00    +0.000 A 
ATOM     22  C   UNL     1       4.743   5.721  18.309  0.00  0.00    +0.000 A 
ATOM     23  C   UNL     1       4.668   6.639  17.263  0.00  0.00    +0.000 A 
ATOM     24  C   UNL     1       3.687   7.627  17.265  0.00  0.00    +0.000 A 
ATOM     25  C   UNL     1       5.443   6.467  15.996  0.00  0.00    +0.000 C 
ATOM     26  C   UNL     1       6.684   5.646  16.127  0.00  0.00    +0.000 C 
ATOM     27  O   UNL     1       7.499   5.553  15.207  0.00  0.00    +0.000 OA
ATOM     28  N   UNL     1       6.803   4.926  17.307  0.00  0.00    +0.000 N 
ATOM     29  C   UNL     1       5.886   4.772  18.352  0.00  0.00    +0.000 C 
ATOM     30  O   UNL     1       5.968   3.954  19.260  0.00  0.00    +0.000 OA
BRANCH  28  31
ATOM     31  O   UNL     1       7.947   4.091  17.342  0.00  0.00    +0.000 OA
ATOM     32  H   UNL     1       8.494   4.463  16.616  0.00  0.00    +0.000 HD
ENDBRANCH  28  31
ENDBRANCH  18  19
ENDBRANCH   4  18
TORSDOF 5
ENDMDL
