MODEL 1
REMARK VINA RESULT:      -8.0      0.000      0.000
REMARK  Name = 
REMARK  8 active torsions:
REMARK  status: ('A' for Active; 'I' for Inactive)
REMARK    1  A    between atoms: N_1  and  S_2
REMARK    2  A    between atoms: S_2  and  C_5
REMARK    3  A    between atoms: C_8  and  N_9
REMARK    4  A    between atoms: N_9  and  N_10
REMARK    5  A    between atoms: C_11  and  C_12
REMARK    6  A    between atoms: C_11  and  C_22
REMARK    7  A    between atoms: C_12  and  S_13
REMARK    8  A    between atoms: S_13  and  C_16
REMARK                            x       y       z     vdW  Elec       q    Type
REMARK                         _______ _______ _______ _____ _____    ______ ____
ROOT
ATOM      1  N   UNL     1       4.541   6.055  17.226  0.00  0.00    +0.000 NA
ATOM      2  C   UNL     1       5.080   4.896  16.947  0.00  0.00    +0.000 C 
ENDROOT
BRANCH   2   3
ATOM      3  C   UNL     1       5.707   4.781  15.641  0.00  0.00    +0.000 A 
ATOM      4  C   UNL     1       5.397   4.000  14.543  0.00  0.00    +0.000 A 
ATOM      5  C   UNL     1       6.393   4.246  13.568  0.00  0.00    +0.000 A 
ATOM      6  C   UNL     1       7.252   5.161  14.124  0.00  0.00    +0.000 A 
ATOM      7  O   UNL     1       6.841   5.499  15.373  0.00  0.00    +0.000 OA
ENDBRANCH   2   3
BRANCH   1   8
ATOM      8  N   UNL     1       3.885   6.187  18.394  0.00  0.00    +0.000 N 
ATOM      9  H   UNL     1       3.989   5.542  19.183  0.00  0.00    +0.000 HD
BRANCH   8  13
ATOM     10  C   UNL     1       1.220   9.392  18.961  0.00  0.00    +0.000 A 
ATOM     11  C   UNL     1       1.946   9.262  17.780  0.00  0.00    +0.000 A 
ATOM     12  C   UNL     1       2.791   8.168  17.621  0.00  0.00    +0.000 A 
ATOM     13  C   UNL     1       2.944   7.203  18.629  0.00  0.00    +0.000 A 
ATOM     14  C   UNL     1       2.218   7.357  19.818  0.00  0.00    +0.000 A 
ATOM     15  C   UNL     1       1.343   8.444  19.980  0.00  0.00    +0.000 A 
BRANCH  10  16
ATOM     16  S   UNL     1       0.108  10.754  19.117  0.00  0.00    +0.000 S 
ATOM     17  O   UNL     1       0.847  11.987  18.949  0.00  0.00    +0.000 OA
ATOM     18  O   UNL     1      -0.783  10.528  20.229  0.00  0.00    +0.000 OA
BRANCH  16  19
ATOM     19  N   UNL     1      -0.846  10.581  17.742  0.00  0.00    +0.000 NA
ATOM     20  H   UNL     1      -0.278  10.697  16.907  0.00  0.00    +0.000 HD
ATOM     21  H   UNL     1      -1.653  11.194  17.792  0.00  0.00    +0.000 HD
ENDBRANCH  16  19
ENDBRANCH  10  16
ENDBRANCH   8  13
ENDBRANCH   1   8
BRANCH   2  22
ATOM     22  C   UNL     1       5.022   3.646  17.790  0.00  0.00    +0.000 C 
BRANCH  22  23
ATOM     23  S   UNL     1       3.505   2.751  17.723  0.00  0.00    +0.000 S 
ATOM     24  O   UNL     1       2.672   3.319  16.675  0.00  0.00    +0.000 OA
ATOM     25  O   UNL     1       3.868   1.346  17.640  0.00  0.00    +0.000 OA
BRANCH  23  26
ATOM     26  C   UNL     1       2.672   2.979  19.272  0.00  0.00    +0.000 A 
ATOM     27  C   UNL     1       3.266   2.528  20.453  0.00  0.00    +0.000 A 
ATOM     28  C   UNL     1       2.563   2.623  21.653  0.00  0.00    +0.000 A 
ATOM     29  C   UNL     1       1.301   3.217  21.681  0.00  0.00    +0.000 A 
ATOM     30  C   UNL     1       0.747   3.740  20.513  0.00  0.00    +0.000 A 
ATOM     31  C   UNL     1       1.432   3.624  19.303  0.00  0.00    +0.000 A 
ENDBRANCH  23  26
ENDBRANCH  22  23
ENDBRANCH   2  22
TORSDOF 8
ENDMDL
MODEL 2
REMARK VINA RESULT:      -7.9      0.611      1.109
REMARK  Name = 
REMARK  8 active torsions:
REMARK  status: ('A' for Active; 'I' for Inactive)
REMARK    1  A    between atoms: N_1  and  S_2
REMARK    2  A    between atoms: S_2  and  C_5
REMARK    3  A    between atoms: C_8  and  N_9
REMARK    4  A    between atoms: N_9  and  N_10
REMARK    5  A    between atoms: C_11  and  C_12
REMARK    6  A    between atoms: C_11  and  C_22
REMARK    7  A    between atoms: C_12  and  S_13
REMARK    8  A    between atoms: S_13  and  C_16
REMARK                            x       y       z     vdW  Elec       q    Type
REMARK                         _______ _______ _______ _____ _____    ______ ____
ROOT
ATOM      1  N   UNL     1       4.418   6.044  17.274  0.00  0.00    +0.000 NA
ATOM      2  C   UNL     1       5.005   4.907  17.006  0.00  0.00    +0.000 C 
ENDROOT
BRANCH   2   3
ATOM      3  C   UNL     1       5.658   4.815  15.711  0.00  0.00    +0.000 A 
ATOM      4  C   UNL     1       5.366   4.058  14.591  0.00  0.00    +0.000 A 
ATOM      5  C   UNL     1       6.382   4.318  13.641  0.00  0.00    +0.000 A 
ATOM      6  C   UNL     1       7.236   5.216  14.234  0.00  0.00    +0.000 A 
ATOM      7  O   UNL     1       6.801   5.530  15.480  0.00  0.00    +0.000 OA
ENDBRANCH   2   3
BRANCH   1   8
ATOM      8  N   UNL     1       3.738   6.152  18.431  0.00  0.00    +0.000 N 
ATOM      9  H   UNL     1       3.794   5.469  19.191  0.00  0.00    +0.000 HD
BRANCH   8  13
ATOM     10  C   UNL     1       1.187   9.437  19.066  0.00  0.00    +0.000 A 
ATOM     11  C   UNL     1       1.890   9.293  17.873  0.00  0.00    +0.000 A 
ATOM     12  C   UNL     1       2.696   8.174  17.691  0.00  0.00    +0.000 A 
ATOM     13  C   UNL     1       2.834   7.196  18.689  0.00  0.00    +0.000 A 
ATOM     14  C   UNL     1       2.132   7.363  19.890  0.00  0.00    +0.000 A 
ATOM     15  C   UNL     1       1.295   8.477  20.075  0.00  0.00    +0.000 A 
BRANCH  10  16
ATOM     16  S   UNL     1       0.122  10.832  19.250  0.00  0.00    +0.000 S 
ATOM     17  O   UNL     1       0.287  11.377  20.581  0.00  0.00    +0.000 OA
ATOM     18  O   UNL     1      -1.172  10.532  18.689  0.00  0.00    +0.000 OA
BRANCH  16  19
ATOM     19  N   UNL     1       0.818  11.941  18.194  0.00  0.00    +0.000 NA
ATOM     20  H   UNL     1       0.096  12.393  17.638  0.00  0.00    +0.000 HD
ATOM     21  H   UNL     1       1.554  11.501  17.652  0.00  0.00    +0.000 HD
ENDBRANCH  16  19
ENDBRANCH  10  16
ENDBRANCH   8  13
ENDBRANCH   1   8
BRANCH   2  22
ATOM     22  C   UNL     1       4.979   3.655  17.849  0.00  0.00    +0.000 C 
BRANCH  22  23
ATOM     23  S   UNL     1       3.505   2.696  17.745  0.00  0.00    +0.000 S 
ATOM     24  O   UNL     1       2.669   3.235  16.685  0.00  0.00    +0.000 OA
ATOM     25  O   UNL     1       3.929   1.309  17.661  0.00  0.00    +0.000 OA
BRANCH  23  26
ATOM     26  C   UNL     1       2.632   2.876  19.279  0.00  0.00    +0.000 A 
ATOM     27  C   UNL     1       1.351   3.433  19.288  0.00  0.00    +0.000 A 
ATOM     28  C   UNL     1       0.712   3.660  20.506  0.00  0.00    +0.000 A 
ATOM     29  C   UNL     1       1.324   3.282  21.701  0.00  0.00    +0.000 A 
ATOM     30  C   UNL     1       2.569   2.651  21.682  0.00  0.00    +0.000 A 
ATOM     31  C   UNL     1       3.227   2.445  20.469  0.00  0.00    +0.000 A 
ENDBRANCH  23  26
ENDBRANCH  22  23
ENDBRANCH   2  22
TORSDOF 8
ENDMDL
MODEL 3
REMARK VINA RESULT:      -7.8      2.304      4.719
REMARK  Name = 
REMARK  8 active torsions:
REMARK  status: ('A' for Active; 'I' for Inactive)
REMARK    1  A    between atoms: N_1  and  S_2
REMARK    2  A    between atoms: S_2  and  C_5
REMARK    3  A    between atoms: C_8  and  N_9
REMARK    4  A    between atoms: N_9  and  N_10
REMARK    5  A    between atoms: C_11  and  C_12
REMARK    6  A    between atoms: C_11  and  C_22
REMARK    7  A    between atoms: C_12  and  S_13
REMARK    8  A    between atoms: S_13  and  C_16
REMARK                            x       y       z     vdW  Elec       q    Type
REMARK                         _______ _______ _______ _____ _____    ______ ____
ROOT
ATOM      1  N   UNL     1       2.142   6.242  18.242  0.00  0.00    +0.000 NA
ATOM      2  C   UNL     1       2.923   5.348  18.791  0.00  0.00    +0.000 C 
ENDROOT
BRANCH   2   3
ATOM      3  C   UNL     1       2.508   3.963  18.648  0.00  0.00    +0.000 A 
ATOM      4  C   UNL     1       2.390   3.154  17.533  0.00  0.00    +0.000 A 
ATOM      5  C   UNL     1       1.874   1.913  17.976  0.00  0.00    +0.000 A 
ATOM      6  C   UNL     1       1.706   2.035  19.334  0.00  0.00    +0.000 A 
ATOM      7  O   UNL     1       2.096   3.266  19.751  0.00  0.00    +0.000 OA
ENDBRANCH   2   3
BRANCH   1   8
ATOM      8  N   UNL     1       2.446   7.542  18.411  0.00  0.00    +0.000 N 
ATOM      9  H   UNL     1       3.240   8.006  17.961  0.00  0.00    +0.000 HD
BRANCH   8  13
ATOM     10  C   UNL     1       0.401  10.279  20.867  0.00  0.00    +0.000 A 
ATOM     11  C   UNL     1       0.644  10.559  19.525  0.00  0.00    +0.000 A 
ATOM     12  C   UNL     1       1.294   9.612  18.741  0.00  0.00    +0.000 A 
ATOM     13  C   UNL     1       1.728   8.387  19.273  0.00  0.00    +0.000 A 
ATOM     14  C   UNL     1       1.490   8.127  20.629  0.00  0.00    +0.000 A 
ATOM     15  C   UNL     1       0.812   9.066  21.426  0.00  0.00    +0.000 A 
BRANCH  10  16
ATOM     16  S   UNL     1      -0.479  11.469  21.828  0.00  0.00    +0.000 S 
ATOM     17  O   UNL     1      -0.483  11.046  23.212  0.00  0.00    +0.000 OA
ATOM     18  O   UNL     1      -1.680  11.861  21.132  0.00  0.00    +0.000 OA
BRANCH  16  19
ATOM     19  N   UNL     1       0.540  12.805  21.743  0.00  0.00    +0.000 NA
ATOM     20  H   UNL     1       1.453  12.572  22.124  0.00  0.00    +0.000 HD
ATOM     21  H   UNL     1       0.099  13.614  22.167  0.00  0.00    +0.000 HD
ENDBRANCH  16  19
ENDBRANCH  10  16
ENDBRANCH   8  13
ENDBRANCH   1   8
BRANCH   2  22
ATOM     22  C   UNL     1       4.140   5.613  19.645  0.00  0.00    +0.000 C 
BRANCH  22  23
ATOM     23  S   UNL     1       5.625   4.824  19.120  0.00  0.00    +0.000 S 
ATOM     24  O   UNL     1       6.760   5.555  19.661  0.00  0.00    +0.000 OA
ATOM     25  O   UNL     1       5.478   3.418  19.456  0.00  0.00    +0.000 OA
BRANCH  23  26
ATOM     26  C   UNL     1       5.697   4.927  17.351  0.00  0.00    +0.000 A 
ATOM     27  C   UNL     1       5.488   6.154  16.717  0.00  0.00    +0.000 A 
ATOM     28  C   UNL     1       5.450   6.208  15.324  0.00  0.00    +0.000 A 
ATOM     29  C   UNL     1       5.676   5.056  14.571  0.00  0.00    +0.000 A 
ATOM     30  C   UNL     1       5.966   3.849  15.207  0.00  0.00    +0.000 A 
ATOM     31  C   UNL     1       5.979   3.781  16.601  0.00  0.00    +0.000 A 
ENDBRANCH  23  26
ENDBRANCH  22  23
ENDBRANCH   2  22
TORSDOF 8
ENDMDL
MODEL 4
REMARK VINA RESULT:      -7.7      2.166      4.708
REMARK  Name = 
REMARK  8 active torsions:
REMARK  status: ('A' for Active; 'I' for Inactive)
REMARK    1  A    between atoms: N_1  and  S_2
REMARK    2  A    between atoms: S_2  and  C_5
REMARK    3  A    between atoms: C_8  and  N_9
REMARK    4  A    between atoms: N_9  and  N_10
REMARK    5  A    between atoms: C_11  and  C_12
REMARK    6  A    between atoms: C_11  and  C_22
REMARK    7  A    between atoms: C_12  and  S_13
REMARK    8  A    between atoms: S_13  and  C_16
REMARK                            x       y       z     vdW  Elec       q    Type
REMARK                         _______ _______ _______ _____ _____    ______ ____
ROOT
ATOM      1  N   UNL     1       2.095   6.283  18.265  0.00  0.00    +0.000 NA
ATOM      2  C   UNL     1       2.839   5.371  18.835  0.00  0.00    +0.000 C 
ENDROOT
BRANCH   2   3
ATOM      3  C   UNL     1       2.364   4.002  18.729  0.00  0.00    +0.000 A 
ATOM      4  C   UNL     1       1.672   3.202  19.619  0.00  0.00    +0.000 A 
ATOM      5  C   UNL     1       1.536   1.930  19.012  0.00  0.00    +0.000 A 
ATOM      6  C   UNL     1       2.152   2.026  17.788  0.00  0.00    +0.000 A 
ATOM      7  O   UNL     1       2.646   3.276  17.603  0.00  0.00    +0.000 OA
ENDBRANCH   2   3
BRANCH   1   8
ATOM      8  N   UNL     1       2.456   7.573  18.399  0.00  0.00    +0.000 N 
ATOM      9  H   UNL     1       3.279   7.985  17.952  0.00  0.00    +0.000 HD
BRANCH   8  13
ATOM     10  C   UNL     1       0.484  10.479  20.715  0.00  0.00    +0.000 A 
ATOM     11  C   UNL     1       0.731  10.686  19.360  0.00  0.00    +0.000 A 
ATOM     12  C   UNL     1       1.355   9.684  18.625  0.00  0.00    +0.000 A 
ATOM     13  C   UNL     1       1.760   8.478  19.218  0.00  0.00    +0.000 A 
ATOM     14  C   UNL     1       1.519   8.292  20.586  0.00  0.00    +0.000 A 
ATOM     15  C   UNL     1       0.866   9.287  21.334  0.00  0.00    +0.000 A 
BRANCH  10  16
ATOM     16  S   UNL     1      -0.365  11.738  21.616  0.00  0.00    +0.000 S 
ATOM     17  O   UNL     1      -1.700  11.883  21.076  0.00  0.00    +0.000 OA
ATOM     18  O   UNL     1       0.515  12.862  21.824  0.00  0.00    +0.000 OA
BRANCH  16  19
ATOM     19  N   UNL     1      -0.539  11.025  23.129  0.00  0.00    +0.000 NA
ATOM     20  H   UNL     1      -0.400  10.020  23.059  0.00  0.00    +0.000 HD
ATOM     21  H   UNL     1      -1.418  11.301  23.552  0.00  0.00    +0.000 HD
ENDBRANCH  16  19
ENDBRANCH  10  16
ENDBRANCH   8  13
ENDBRANCH   1   8
BRANCH   2  22
ATOM     22  C   UNL     1       4.069   5.605  19.678  0.00  0.00    +0.000 C 
BRANCH  22  23
ATOM     23  S   UNL     1       5.528   4.772  19.145  0.00  0.00    +0.000 S 
ATOM     24  O   UNL     1       6.684   5.432  19.729  0.00  0.00    +0.000 OA
ATOM     25  O   UNL     1       5.315   3.362  19.425  0.00  0.00    +0.000 OA
BRANCH  23  26
ATOM     26  C   UNL     1       5.633   4.938  17.382  0.00  0.00    +0.000 A 
ATOM     27  C   UNL     1       5.412   6.182  16.787  0.00  0.00    +0.000 A 
ATOM     28  C   UNL     1       5.401   6.285  15.397  0.00  0.00    +0.000 A 
ATOM     29  C   UNL     1       5.664   5.164  14.609  0.00  0.00    +0.000 A 
ATOM     30  C   UNL     1       5.965   3.941  15.208  0.00  0.00    +0.000 A 
ATOM     31  C   UNL     1       5.951   3.824  16.599  0.00  0.00    +0.000 A 
ENDBRANCH  23  26
ENDBRANCH  22  23
ENDBRANCH   2  22
TORSDOF 8
ENDMDL
MODEL 5
REMARK VINA RESULT:      -7.7      0.948      1.557
REMARK  Name = 
REMARK  8 active torsions:
REMARK  status: ('A' for Active; 'I' for Inactive)
REMARK    1  A    between atoms: N_1  and  S_2
REMARK    2  A    between atoms: S_2  and  C_5
REMARK    3  A    between atoms: C_8  and  N_9
REMARK    4  A    between atoms: N_9  and  N_10
REMARK    5  A    between atoms: C_11  and  C_12
REMARK    6  A    between atoms: C_11  and  C_22
REMARK    7  A    between atoms: C_12  and  S_13
REMARK    8  A    between atoms: S_13  and  C_16
REMARK                            x       y       z     vdW  Elec       q    Type
REMARK                         _______ _______ _______ _____ _____    ______ ____
ROOT
ATOM      1  N   UNL     1       4.285   5.945  17.090  0.00  0.00    +0.000 NA
ATOM      2  C   UNL     1       4.953   4.830  16.939  0.00  0.00    +0.000 C 
ENDROOT
BRANCH   2   3
ATOM      3  C   UNL     1       5.727   4.710  15.715  0.00  0.00    +0.000 A 
ATOM      4  C   UNL     1       6.955   5.233  15.353  0.00  0.00    +0.000 A 
ATOM      5  C   UNL     1       7.189   4.847  14.012  0.00  0.00    +0.000 A 
ATOM      6  C   UNL     1       6.093   4.112  13.631  0.00  0.00    +0.000 A 
ATOM      7  O   UNL     1       5.209   4.014  14.656  0.00  0.00    +0.000 OA
ENDBRANCH   2   3
BRANCH   1   8
ATOM      8  N   UNL     1       3.496   6.073  18.172  0.00  0.00    +0.000 N 
ATOM      9  H   UNL     1       3.304   5.313  18.831  0.00  0.00    +0.000 HD
BRANCH   8  13
ATOM     10  C   UNL     1       1.262   9.477  19.229  0.00  0.00    +0.000 A 
ATOM     11  C   UNL     1       1.404   8.409  20.110  0.00  0.00    +0.000 A 
ATOM     12  C   UNL     1       2.180   7.317  19.733  0.00  0.00    +0.000 A 
ATOM     13  C   UNL     1       2.807   7.258  18.478  0.00  0.00    +0.000 A 
ATOM     14  C   UNL     1       2.642   8.334  17.597  0.00  0.00    +0.000 A 
ATOM     15  C   UNL     1       1.881   9.453  17.976  0.00  0.00    +0.000 A 
BRANCH  10  16
ATOM     16  S   UNL     1       0.325  10.878  19.752  0.00  0.00    +0.000 S 
ATOM     17  O   UNL     1      -1.012  10.447  20.099  0.00  0.00    +0.000 OA
ATOM     18  O   UNL     1       0.578  11.989  18.867  0.00  0.00    +0.000 OA
BRANCH  16  19
ATOM     19  N   UNL     1       1.083  11.282  21.198  0.00  0.00    +0.000 NA
ATOM     20  H   UNL     1       0.693  12.145  21.568  0.00  0.00    +0.000 HD
ATOM     21  H   UNL     1       2.091  11.293  21.079  0.00  0.00    +0.000 HD
ENDBRANCH  16  19
ENDBRANCH  10  16
ENDBRANCH   8  13
ENDBRANCH   1   8
BRANCH   2  22
ATOM     22  C   UNL     1       4.913   3.624  17.844  0.00  0.00    +0.000 C 
BRANCH  22  23
ATOM     23  S   UNL     1       3.439   2.661  17.768  0.00  0.00    +0.000 S 
ATOM     24  O   UNL     1       2.576   3.206  16.733  0.00  0.00    +0.000 OA
ATOM     25  O   UNL     1       3.865   1.276  17.662  0.00  0.00    +0.000 OA
BRANCH  23  26
ATOM     26  C   UNL     1       2.604   2.827  19.324  0.00  0.00    +0.000 A 
ATOM     27  C   UNL     1       3.282   2.542  20.511  0.00  0.00    +0.000 A 
ATOM     28  C   UNL     1       2.592   2.581  21.722  0.00  0.00    +0.000 A 
ATOM     29  C   UNL     1       1.248   2.957  21.751  0.00  0.00    +0.000 A 
ATOM     30  C   UNL     1       0.597   3.320  20.572  0.00  0.00    +0.000 A 
ATOM     31  C   UNL     1       1.273   3.257  19.354  0.00  0.00    +0.000 A 
ENDBRANCH  23  26
ENDBRANCH  22  23
ENDBRANCH   2  22
TORSDOF 8
ENDMDL
MODEL 6
REMARK VINA RESULT:      -7.7      2.123      4.789
REMARK  Name = 
REMARK  8 active torsions:
REMARK  status: ('A' for Active; 'I' for Inactive)
REMARK    1  A    between atoms: N_1  and  S_2
REMARK    2  A    between atoms: S_2  and  C_5
REMARK    3  A    between atoms: C_8  and  N_9
REMARK    4  A    between atoms: N_9  and  N_10
REMARK    5  A    between atoms: C_11  and  C_12
REMARK    6  A    between atoms: C_11  and  C_22
REMARK    7  A    between atoms: C_12  and  S_13
REMARK    8  A    between atoms: S_13  and  C_16
REMARK                            x       y       z     vdW  Elec       q    Type
REMARK                         _______ _______ _______ _____ _____    ______ ____
ROOT
ATOM      1  N   UNL     1       2.018   6.286  18.199  0.00  0.00    +0.000 NA
ATOM      2  C   UNL     1       2.636   5.343  18.861  0.00  0.00    +0.000 C 
ENDROOT
BRANCH   2   3
ATOM      3  C   UNL     1       2.019   4.028  18.825  0.00  0.00    +0.000 A 
ATOM      4  C   UNL     1       1.095   3.427  19.661  0.00  0.00    +0.000 A 
ATOM      5  C   UNL     1       0.905   2.107  19.184  0.00  0.00    +0.000 A 
ATOM      6  C   UNL     1       1.722   1.978  18.088  0.00  0.00    +0.000 A 
ATOM      7  O   UNL     1       2.391   3.136  17.856  0.00  0.00    +0.000 OA
ENDBRANCH   2   3
BRANCH   1   8
ATOM      8  N   UNL     1       2.510   7.537  18.263  0.00  0.00    +0.000 N 
ATOM      9  H   UNL     1       3.399   7.822  17.842  0.00  0.00    +0.000 HD
BRANCH   8  13
ATOM     10  C   UNL     1       0.491  10.454  20.523  0.00  0.00    +0.000 A 
ATOM     11  C   UNL     1       0.947   9.277  21.112  0.00  0.00    +0.000 A 
ATOM     12  C   UNL     1       1.640   8.355  20.335  0.00  0.00    +0.000 A 
ATOM     13  C   UNL     1       1.874   8.572  18.967  0.00  0.00    +0.000 A 
ATOM     14  C   UNL     1       1.396   9.754  18.387  0.00  0.00    +0.000 A 
ATOM     15  C   UNL     1       0.716  10.705  19.168  0.00  0.00    +0.000 A 
BRANCH  10  16
ATOM     16  S   UNL     1      -0.331  11.638  21.542  0.00  0.00    +0.000 S 
ATOM     17  O   UNL     1      -1.702  11.770  21.096  0.00  0.00    +0.000 OA
ATOM     18  O   UNL     1       0.530  12.775  21.755  0.00  0.00    +0.000 OA
BRANCH  16  19
ATOM     19  N   UNL     1      -0.389  10.841  23.022  0.00  0.00    +0.000 NA
ATOM     20  H   UNL     1       0.089   9.946  22.956  0.00  0.00    +0.000 HD
ATOM     21  H   UNL     1      -1.345  10.785  23.358  0.00  0.00    +0.000 HD
ENDBRANCH  16  19
ENDBRANCH  10  16
ENDBRANCH   8  13
ENDBRANCH   1   8
BRANCH   2  22
ATOM     22  C   UNL     1       3.851   5.504  19.742  0.00  0.00    +0.000 C 
BRANCH  22  23
ATOM     23  S   UNL     1       5.325   4.739  19.154  0.00  0.00    +0.000 S 
ATOM     24  O   UNL     1       6.471   5.425  19.729  0.00  0.00    +0.000 OA
ATOM     25  O   UNL     1       5.169   3.316  19.400  0.00  0.00    +0.000 OA
BRANCH  23  26
ATOM     26  C   UNL     1       5.382   4.955  17.394  0.00  0.00    +0.000 A 
ATOM     27  C   UNL     1       5.438   3.837  16.559  0.00  0.00    +0.000 A 
ATOM     28  C   UNL     1       5.580   4.016  15.183  0.00  0.00    +0.000 A 
ATOM     29  C   UNL     1       5.609   5.302  14.642  0.00  0.00    +0.000 A 
ATOM     30  C   UNL     1       5.471   6.414  15.473  0.00  0.00    +0.000 A 
ATOM     31  C   UNL     1       5.355   6.244  16.853  0.00  0.00    +0.000 A 
ENDBRANCH  23  26
ENDBRANCH  22  23
ENDBRANCH   2  22
TORSDOF 8
ENDMDL
MODEL 7
REMARK VINA RESULT:      -7.6      2.419      5.001
REMARK  Name = 
REMARK  8 active torsions:
REMARK  status: ('A' for Active; 'I' for Inactive)
REMARK    1  A    between atoms: N_1  and  S_2
REMARK    2  A    between atoms: S_2  and  C_5
REMARK    3  A    between atoms: C_8  and  N_9
REMARK    4  A    between atoms: N_9  and  N_10
REMARK    5  A    between atoms: C_11  and  C_12
REMARK    6  A    between atoms: C_11  and  C_22
REMARK    7  A    between atoms: C_12  and  S_13
REMARK    8  A    between atoms: S_13  and  C_16
REMARK                            x       y       z     vdW  Elec       q    Type
REMARK                         _______ _______ _______ _____ _____    ______ ____
ROOT
ATOM      1  N   UNL     1       1.706   6.370  20.266  0.00  0.00    +0.000 NA
ATOM      2  C   UNL     1       2.104   5.552  19.326  0.00  0.00    +0.000 C 
ENDROOT
BRANCH   2   3
ATOM      3  C   UNL     1       1.619   4.185  19.421  0.00  0.00    +0.000 A 
ATOM      4  C   UNL     1       1.412   3.362  20.512  0.00  0.00    +0.000 A 
ATOM      5  C   UNL     1       0.995   2.106  20.008  0.00  0.00    +0.000 A 
ATOM      6  C   UNL     1       0.973   2.234  18.640  0.00  0.00    +0.000 A 
ATOM      7  O   UNL     1       1.338   3.490  18.276  0.00  0.00    +0.000 OA
ENDBRANCH   2   3
BRANCH   1   8
ATOM      8  N   UNL     1       2.187   7.627  20.261  0.00  0.00    +0.000 N 
ATOM      9  H   UNL     1       3.141   7.874  20.540  0.00  0.00    +0.000 HD
BRANCH   8  13
ATOM     10  C   UNL     1      -0.353  10.866  19.395  0.00  0.00    +0.000 A 
ATOM     11  C   UNL     1      -0.383  10.242  20.639  0.00  0.00    +0.000 A 
ATOM     12  C   UNL     1       0.498   9.196  20.895  0.00  0.00    +0.000 A 
ATOM     13  C   UNL     1       1.404   8.742  19.923  0.00  0.00    +0.000 A 
ATOM     14  C   UNL     1       1.411   9.371  18.670  0.00  0.00    +0.000 A 
ATOM     15  C   UNL     1       0.542  10.445  18.409  0.00  0.00    +0.000 A 
BRANCH  10  16
ATOM     16  S   UNL     1      -1.436  12.231  19.113  0.00  0.00    +0.000 S 
ATOM     17  O   UNL     1      -1.004  13.350  19.924  0.00  0.00    +0.000 OA
ATOM     18  O   UNL     1      -2.803  11.769  19.092  0.00  0.00    +0.000 OA
BRANCH  16  19
ATOM     19  N   UNL     1      -1.080  12.634  17.520  0.00  0.00    +0.000 NA
ATOM     20  H   UNL     1      -1.168  11.815  16.924  0.00  0.00    +0.000 HD
ATOM     21  H   UNL     1      -0.181  13.101  17.465  0.00  0.00    +0.000 HD
ENDBRANCH  16  19
ENDBRANCH  10  16
ENDBRANCH   8  13
ENDBRANCH   1   8
BRANCH   2  22
ATOM     22  C   UNL     1       3.094   5.852  18.226  0.00  0.00    +0.000 C 
BRANCH  22  23
ATOM     23  S   UNL     1       4.500   4.792  18.156  0.00  0.00    +0.000 S 
ATOM     24  O   UNL     1       4.539   3.986  19.365  0.00  0.00    +0.000 OA
ATOM     25  O   UNL     1       4.436   4.119  16.870  0.00  0.00    +0.000 OA
BRANCH  23  26
ATOM     26  C   UNL     1       5.948   5.816  18.131  0.00  0.00    +0.000 A 
ATOM     27  C   UNL     1       7.003   5.550  19.007  0.00  0.00    +0.000 A 
ATOM     28  C   UNL     1       8.095   6.415  19.049  0.00  0.00    +0.000 A 
ATOM     29  C   UNL     1       8.158   7.507  18.181  0.00  0.00    +0.000 A 
ATOM     30  C   UNL     1       7.141   7.723  17.252  0.00  0.00    +0.000 A 
ATOM     31  C   UNL     1       6.032   6.876  17.223  0.00  0.00    +0.000 A 
ENDBRANCH  23  26
ENDBRANCH  22  23
ENDBRANCH   2  22
TORSDOF 8
ENDMDL
MODEL 8
REMARK VINA RESULT:      -7.5      2.279      2.797
REMARK  Name = 
REMARK  8 active torsions:
REMARK  status: ('A' for Active; 'I' for Inactive)
REMARK    1  A    between atoms: N_1  and  S_2
REMARK    2  A    between atoms: S_2  and  C_5
REMARK    3  A    between atoms: C_8  and  N_9
REMARK    4  A    between atoms: N_9  and  N_10
REMARK    5  A    between atoms: C_11  and  C_12
REMARK    6  A    between atoms: C_11  and  C_22
REMARK    7  A    between atoms: C_12  and  S_13
REMARK    8  A    between atoms: S_13  and  C_16
REMARK                            x       y       z     vdW  Elec       q    Type
REMARK                         _______ _______ _______ _____ _____    ______ ____
ROOT
ATOM      1  N   UNL     1       3.569   6.679  19.444  0.00  0.00    +0.000 NA
ATOM      2  C   UNL     1       4.094   5.984  18.468  0.00  0.00    +0.000 C 
ENDROOT
BRANCH   2   3
ATOM      3  C   UNL     1       5.547   5.935  18.428  0.00  0.00    +0.000 A 
ATOM      4  C   UNL     1       6.464   5.320  19.259  0.00  0.00    +0.000 A 
ATOM      5  C   UNL     1       7.751   5.666  18.782  0.00  0.00    +0.000 A 
ATOM      6  C   UNL     1       7.546   6.472  17.689  0.00  0.00    +0.000 A 
ATOM      7  O   UNL     1       6.218   6.632  17.460  0.00  0.00    +0.000 OA
ENDBRANCH   2   3
BRANCH   1   8
ATOM      8  N   UNL     1       2.231   6.814  19.480  0.00  0.00    +0.000 N 
ATOM      9  H   UNL     1       1.577   6.135  19.078  0.00  0.00    +0.000 HD
BRANCH   8  13
ATOM     10  C   UNL     1       0.470  10.331  20.972  0.00  0.00    +0.000 A 
ATOM     11  C   UNL     1       0.882  10.241  19.645  0.00  0.00    +0.000 A 
ATOM     12  C   UNL     1       1.428   9.047  19.184  0.00  0.00    +0.000 A 
ATOM     13  C   UNL     1       1.592   7.938  20.029  0.00  0.00    +0.000 A 
ATOM     14  C   UNL     1       1.188   8.051  21.366  0.00  0.00    +0.000 A 
ATOM     15  C   UNL     1       0.611   9.244  21.837  0.00  0.00    +0.000 A 
BRANCH  10  16
ATOM     16  S   UNL     1      -0.277  11.834  21.519  0.00  0.00    +0.000 S 
ATOM     17  O   UNL     1      -1.504  12.046  20.780  0.00  0.00    +0.000 OA
ATOM     18  O   UNL     1       0.732  12.855  21.657  0.00  0.00    +0.000 OA
BRANCH  16  19
ATOM     19  N   UNL     1      -0.731  11.444  23.090  0.00  0.00    +0.000 NA
ATOM     20  H   UNL     1      -1.016  12.282  23.590  0.00  0.00    +0.000 HD
ATOM     21  H   UNL     1      -0.002  10.907  23.548  0.00  0.00    +0.000 HD
ENDBRANCH  16  19
ENDBRANCH  10  16
ENDBRANCH   8  13
ENDBRANCH   1   8
BRANCH   2  22
ATOM     22  C   UNL     1       3.357   5.328  17.327  0.00  0.00    +0.000 C 
BRANCH  22  23
ATOM     23  S   UNL     1       3.151   3.582  17.456  0.00  0.00    +0.000 S 
ATOM     24  O   UNL     1       2.117   3.162  16.524  0.00  0.00    +0.000 OA
ATOM     25  O   UNL     1       4.479   3.007  17.329  0.00  0.00    +0.000 OA
BRANCH  23  26
ATOM     26  C   UNL     1       2.588   3.224  19.099  0.00  0.00    +0.000 A 
ATOM     27  C   UNL     1       1.249   3.432  19.436  0.00  0.00    +0.000 A 
ATOM     28  C   UNL     1       0.836   3.240  20.754  0.00  0.00    +0.000 A 
ATOM     29  C   UNL     1       1.742   2.789  21.714  0.00  0.00    +0.000 A 
ATOM     30  C   UNL     1       3.059   2.504  21.355  0.00  0.00    +0.000 A 
ATOM     31  C   UNL     1       3.487   2.720  20.045  0.00  0.00    +0.000 A 
ENDBRANCH  23  26
ENDBRANCH  22  23
ENDBRANCH   2  22
TORSDOF 8
ENDMDL
MODEL 9
REMARK VINA RESULT:      -7.5      0.689      1.540
REMARK  Name = 
REMARK  8 active torsions:
REMARK  status: ('A' for Active; 'I' for Inactive)
REMARK    1  A    between atoms: N_1  and  S_2
REMARK    2  A    between atoms: S_2  and  C_5
REMARK    3  A    between atoms: C_8  and  N_9
REMARK    4  A    between atoms: N_9  and  N_10
REMARK    5  A    between atoms: C_11  and  C_12
REMARK    6  A    between atoms: C_11  and  C_22
REMARK    7  A    between atoms: C_12  and  S_13
REMARK    8  A    between atoms: S_13  and  C_16
REMARK                            x       y       z     vdW  Elec       q    Type
REMARK                         _______ _______ _______ _____ _____    ______ ____
ROOT
ATOM      1  N   UNL     1       4.627   6.021  17.323  0.00  0.00    +0.000 NA
ATOM      2  C   UNL     1       4.611   4.891  16.666  0.00  0.00    +0.000 C 
ENDROOT
BRANCH   2   3
ATOM      3  C   UNL     1       5.483   4.814  15.505  0.00  0.00    +0.000 A 
ATOM      4  C   UNL     1       5.429   4.025  14.371  0.00  0.00    +0.000 A 
ATOM      5  C   UNL     1       6.582   4.325  13.606  0.00  0.00    +0.000 A 
ATOM      6  C   UNL     1       7.272   5.277  14.315  0.00  0.00    +0.000 A 
ATOM      7  O   UNL     1       6.611   5.587  15.459  0.00  0.00    +0.000 OA
ENDBRANCH   2   3
BRANCH   1   8
ATOM      8  N   UNL     1       3.782   6.166  18.361  0.00  0.00    +0.000 N 
ATOM      9  H   UNL     1       3.625   5.448  19.073  0.00  0.00    +0.000 HD
BRANCH   8  13
ATOM     10  C   UNL     1       1.224   9.436  19.038  0.00  0.00    +0.000 A 
ATOM     11  C   UNL     1       1.388   8.441  19.998  0.00  0.00    +0.000 A 
ATOM     12  C   UNL     1       2.270   7.395  19.747  0.00  0.00    +0.000 A 
ATOM     13  C   UNL     1       2.984   7.308  18.541  0.00  0.00    +0.000 A 
ATOM     14  C   UNL     1       2.795   8.308  17.578  0.00  0.00    +0.000 A 
ATOM     15  C   UNL     1       1.925   9.383  17.831  0.00  0.00    +0.000 A 
BRANCH  10  16
ATOM     16  S   UNL     1       0.147  10.786  19.404  0.00  0.00    +0.000 S 
ATOM     17  O   UNL     1       0.940  11.983  19.589  0.00  0.00    +0.000 OA
ATOM     18  O   UNL     1      -0.855  10.364  20.351  0.00  0.00    +0.000 OA
BRANCH  16  19
ATOM     19  N   UNL     1      -0.673  10.980  17.948  0.00  0.00    +0.000 NA
ATOM     20  H   UNL     1      -0.672  10.106  17.428  0.00  0.00    +0.000 HD
ATOM     21  H   UNL     1      -0.304  11.775  17.436  0.00  0.00    +0.000 HD
ENDBRANCH  16  19
ENDBRANCH  10  16
ENDBRANCH   8  13
ENDBRANCH   1   8
BRANCH   2  22
ATOM     22  C   UNL     1       3.706   3.710  16.920  0.00  0.00    +0.000 C 
BRANCH  22  23
ATOM     23  S   UNL     1       4.167   2.674  18.270  0.00  0.00    +0.000 S 
ATOM     24  O   UNL     1       4.167   1.291  17.820  0.00  0.00    +0.000 OA
ATOM     25  O   UNL     1       5.396   3.233  18.808  0.00  0.00    +0.000 OA
BRANCH  23  26
ATOM     26  C   UNL     1       2.928   2.842  19.529  0.00  0.00    +0.000 A 
ATOM     27  C   UNL     1       1.659   3.319  19.195  0.00  0.00    +0.000 A 
ATOM     28  C   UNL     1       0.722   3.540  20.204  0.00  0.00    +0.000 A 
ATOM     29  C   UNL     1       1.034   3.233  21.529  0.00  0.00    +0.000 A 
ATOM     30  C   UNL     1       2.274   2.680  21.847  0.00  0.00    +0.000 A 
ATOM     31  C   UNL     1       3.226   2.481  20.846  0.00  0.00    +0.000 A 
ENDBRANCH  23  26
ENDBRANCH  22  23
ENDBRANCH   2  22
TORSDOF 8
ENDMDL
