MODEL 1
REMARK VINA RESULT:      -9.6      0.000      0.000
REMARK  Name = 
REMARK  5 active torsions:
REMARK  status: ('A' for Active; 'I' for Inactive)
REMARK    1  A    between atoms: C_1  and  O_2
REMARK    2  A    between atoms: O_2  and  C_3
REMARK    3  A    between atoms: C_9  and  C_10
REMARK    4  A    between atoms: N_17  and  C_18
REMARK    5  A    between atoms: C_18  and  C_19
REMARK                            x       y       z     vdW  Elec       q    Type
REMARK                         _______ _______ _______ _____ _____    ______ ____
ROOT
ATOM      1  C   UNL     1       4.323   4.111  17.860  0.00  0.00    +0.000 C 
ATOM      2  C   UNL     1       4.328   3.386  16.518  0.00  0.00    +0.000 C 
ATOM      3  C   UNL     1       5.187   4.300  15.677  0.00  0.00    +0.000 C 
ATOM      4  F   UNL     1       4.870   4.165  14.364  0.00  0.00    +0.000 F 
ATOM      5  F   UNL     1       6.491   3.930  15.811  0.00  0.00    +0.000 F 
ATOM      6  C   UNL     1       4.924   5.690  16.260  0.00  0.00    +0.000 C 
ATOM      7  O   UNL     1       5.305   6.735  15.756  0.00  0.00    +0.000 OA
ATOM      8  N   UNL     1       4.269   5.526  17.499  0.00  0.00    +0.000 N 
ENDROOT
BRANCH   1  15
ATOM      9  C   UNL     1       3.488   2.873  19.936  0.00  0.00    +0.000 A 
ATOM     10  C   UNL     1       2.434   2.476  20.772  0.00  0.00    +0.000 A 
ATOM     11  C   UNL     1       1.116   2.830  20.475  0.00  0.00    +0.000 A 
ATOM     12  C   UNL     1       0.842   3.576  19.336  0.00  0.00    +0.000 A 
ATOM     13  C   UNL     1       1.885   3.975  18.510  0.00  0.00    +0.000 A 
ATOM     14  F   UNL     1       1.584   4.698  17.422  0.00  0.00    +0.000 F 
ATOM     15  C   UNL     1       3.221   3.645  18.784  0.00  0.00    +0.000 A 
BRANCH   9  17
ATOM     16  C   UNL     1       5.073   1.386  20.938  0.00  0.00    +0.000 C 
ATOM     17  O   UNL     1       4.803   2.550  20.160  0.00  0.00    +0.000 OA
ENDBRANCH   9  17
ENDBRANCH   1  15
BRANCH   8  18
ATOM     18  C   UNL     1       4.311   6.536  18.550  0.00  0.00    +0.000 C 
BRANCH  18  19
ATOM     19  C   UNL     1       3.116   7.456  18.686  0.00  0.00    +0.000 A 
ATOM     20  C   UNL     1       2.663   8.160  17.554  0.00  0.00    +0.000 A 
ATOM     21  C   UNL     1       1.626   9.092  17.627  0.00  0.00    +0.000 A 
ATOM     22  C   UNL     1       1.085   9.316  18.887  0.00  0.00    +0.000 A 
ATOM     23  O   UNL     1       0.136  10.248  19.170  0.00  0.00    +0.000 OA
ATOM     24  C   UNL     1      -0.096  10.183  20.508  0.00  0.00    +0.000 A 
ATOM     25  C   UNL     1      -0.959  11.020  21.212  0.00  0.00    +0.000 A 
ATOM     26  C   UNL     1      -1.064  10.795  22.588  0.00  0.00    +0.000 A 
ATOM     27  C   UNL     1      -0.345   9.769  23.206  0.00  0.00    +0.000 A 
ATOM     28  C   UNL     1       0.525   8.947  22.471  0.00  0.00    +0.000 A 
ATOM     29  C   UNL     1       0.665   9.172  21.088  0.00  0.00    +0.000 A 
ATOM     30  C   UNL     1       1.465   8.629  20.036  0.00  0.00    +0.000 A 
ATOM     31  C   UNL     1       2.486   7.659  19.932  0.00  0.00    +0.000 A 
ENDBRANCH  18  19
ENDBRANCH   8  18
TORSDOF 4
ENDMDL
MODEL 2
REMARK VINA RESULT:      -9.3      2.239      7.464
REMARK  Name = 
REMARK  5 active torsions:
REMARK  status: ('A' for Active; 'I' for Inactive)
REMARK    1  A    between atoms: C_1  and  O_2
REMARK    2  A    between atoms: O_2  and  C_3
REMARK    3  A    between atoms: C_9  and  C_10
REMARK    4  A    between atoms: N_17  and  C_18
REMARK    5  A    between atoms: C_18  and  C_19
REMARK                            x       y       z     vdW  Elec       q    Type
REMARK                         _______ _______ _______ _____ _____    ______ ____
ROOT
ATOM      1  C   UNL     1       2.264   5.096  19.975  0.00  0.00    +0.000 C 
ATOM      2  C   UNL     1       1.069   4.206  19.655  0.00  0.00    +0.000 C 
ATOM      3  C   UNL     1       1.566   2.850  20.096  0.00  0.00    +0.000 C 
ATOM      4  F   UNL     1       0.927   1.869  19.410  0.00  0.00    +0.000 F 
ATOM      5  F   UNL     1       1.266   2.675  21.413  0.00  0.00    +0.000 F 
ATOM      6  C   UNL     1       3.076   2.919  19.859  0.00  0.00    +0.000 C 
ATOM      7  O   UNL     1       3.833   1.963  19.937  0.00  0.00    +0.000 OA
ATOM      8  N   UNL     1       3.423   4.269  19.642  0.00  0.00    +0.000 N 
ENDROOT
BRANCH   1  15
ATOM      9  C   UNL     1       1.872   7.623  19.959  0.00  0.00    +0.000 A 
ATOM     10  C   UNL     1       1.853   8.845  19.271  0.00  0.00    +0.000 A 
ATOM     11  C   UNL     1       2.160   8.903  17.910  0.00  0.00    +0.000 A 
ATOM     12  C   UNL     1       2.482   7.738  17.226  0.00  0.00    +0.000 A 
ATOM     13  C   UNL     1       2.508   6.528  17.907  0.00  0.00    +0.000 A 
ATOM     14  F   UNL     1       2.827   5.424  17.215  0.00  0.00    +0.000 F 
ATOM     15  C   UNL     1       2.213   6.436  19.275  0.00  0.00    +0.000 A 
BRANCH   9  17
ATOM     16  C   UNL     1       1.064   8.641  21.969  0.00  0.00    +0.000 C 
ATOM     17  O   UNL     1       1.568   7.492  21.291  0.00  0.00    +0.000 OA
ENDBRANCH   9  17
ENDBRANCH   1  15
BRANCH   8  18
ATOM     18  C   UNL     1       4.765   4.786  19.881  0.00  0.00    +0.000 C 
BRANCH  18  19
ATOM     19  C   UNL     1       5.659   5.000  18.679  0.00  0.00    +0.000 A 
ATOM     20  C   UNL     1       6.714   5.929  18.768  0.00  0.00    +0.000 A 
ATOM     21  C   UNL     1       7.520   6.242  17.672  0.00  0.00    +0.000 A 
ATOM     22  C   UNL     1       7.205   5.613  16.474  0.00  0.00    +0.000 A 
ATOM     23  O   UNL     1       7.814   5.859  15.284  0.00  0.00    +0.000 OA
ATOM     24  C   UNL     1       7.198   5.080  14.355  0.00  0.00    +0.000 A 
ATOM     25  C   UNL     1       7.486   5.081  12.992  0.00  0.00    +0.000 A 
ATOM     26  C   UNL     1       6.742   4.205  12.195  0.00  0.00    +0.000 A 
ATOM     27  C   UNL     1       5.776   3.367  12.756  0.00  0.00    +0.000 A 
ATOM     28  C   UNL     1       5.502   3.395  14.134  0.00  0.00    +0.000 A 
ATOM     29  C   UNL     1       6.222   4.287  14.951  0.00  0.00    +0.000 A 
ATOM     30  C   UNL     1       6.199   4.662  16.329  0.00  0.00    +0.000 A 
ATOM     31  C   UNL     1       5.423   4.328  17.462  0.00  0.00    +0.000 A 
ENDBRANCH  18  19
ENDBRANCH   8  18
TORSDOF 4
ENDMDL
MODEL 3
REMARK VINA RESULT:      -8.7      2.049      4.044
REMARK  Name = 
REMARK  5 active torsions:
REMARK  status: ('A' for Active; 'I' for Inactive)
REMARK    1  A    between atoms: C_1  and  O_2
REMARK    2  A    between atoms: O_2  and  C_3
REMARK    3  A    between atoms: C_9  and  C_10
REMARK    4  A    between atoms: N_17  and  C_18
REMARK    5  A    between atoms: C_18  and  C_19
REMARK                            x       y       z     vdW  Elec       q    Type
REMARK                         _______ _______ _______ _____ _____    ______ ____
ROOT
ATOM      1  C   UNL     1       3.536   5.298  18.145  0.00  0.00    +0.000 C 
ATOM      2  C   UNL     1       3.238   3.981  17.436  0.00  0.00    +0.000 C 
ATOM      3  C   UNL     1       1.819   3.709  17.873  0.00  0.00    +0.000 C 
ATOM      4  F   UNL     1       1.562   2.377  17.835  0.00  0.00    +0.000 F 
ATOM      5  F   UNL     1       0.963   4.305  16.996  0.00  0.00    +0.000 F 
ATOM      6  C   UNL     1       1.738   4.338  19.266  0.00  0.00    +0.000 C 
ATOM      7  O   UNL     1       0.800   4.196  20.035  0.00  0.00    +0.000 OA
ATOM      8  N   UNL     1       2.868   5.164  19.438  0.00  0.00    +0.000 N 
ENDROOT
BRANCH   1  15
ATOM      9  C   UNL     1       5.614   6.577  17.381  0.00  0.00    +0.000 A 
ATOM     10  C   UNL     1       6.986   6.846  17.496  0.00  0.00    +0.000 A 
ATOM     11  C   UNL     1       7.771   6.164  18.428  0.00  0.00    +0.000 A 
ATOM     12  C   UNL     1       7.192   5.203  19.246  0.00  0.00    +0.000 A 
ATOM     13  C   UNL     1       5.832   4.939  19.137  0.00  0.00    +0.000 A 
ATOM     14  F   UNL     1       5.306   4.008  19.946  0.00  0.00    +0.000 F 
ATOM     15  C   UNL     1       5.014   5.612  18.219  0.00  0.00    +0.000 A 
BRANCH   9  17
ATOM     16  C   UNL     1       4.908   6.829  15.108  0.00  0.00    +0.000 C 
ATOM     17  O   UNL     1       4.788   7.199  16.479  0.00  0.00    +0.000 OA
ENDBRANCH   9  17
ENDBRANCH   1  15
BRANCH   8  18
ATOM     18  C   UNL     1       2.892   6.280  20.376  0.00  0.00    +0.000 C 
BRANCH  18  19
ATOM     19  C   UNL     1       2.033   7.485  20.054  0.00  0.00    +0.000 A 
ATOM     20  C   UNL     1       2.089   8.038  18.761  0.00  0.00    +0.000 A 
ATOM     21  C   UNL     1       1.393   9.200  18.422  0.00  0.00    +0.000 A 
ATOM     22  C   UNL     1       0.668   9.805  19.440  0.00  0.00    +0.000 A 
ATOM     23  O   UNL     1       0.005  10.987  19.326  0.00  0.00    +0.000 OA
ATOM     24  C   UNL     1      -0.540  11.255  20.542  0.00  0.00    +0.000 A 
ATOM     25  C   UNL     1      -1.250  12.409  20.864  0.00  0.00    +0.000 A 
ATOM     26  C   UNL     1      -1.734  12.501  22.173  0.00  0.00    +0.000 A 
ATOM     27  C   UNL     1      -1.522  11.471  23.092  0.00  0.00    +0.000 A 
ATOM     28  C   UNL     1      -0.794  10.322  22.741  0.00  0.00    +0.000 A 
ATOM     29  C   UNL     1      -0.276  10.220  21.435  0.00  0.00    +0.000 A 
ATOM     30  C   UNL     1       0.545   9.290  20.727  0.00  0.00    +0.000 A 
ATOM     31  C   UNL     1       1.222   8.089  21.037  0.00  0.00    +0.000 A 
ENDBRANCH  18  19
ENDBRANCH   8  18
TORSDOF 4
ENDMDL
MODEL 4
REMARK VINA RESULT:      -8.5      1.749      3.532
REMARK  Name = 
REMARK  5 active torsions:
REMARK  status: ('A' for Active; 'I' for Inactive)
REMARK    1  A    between atoms: C_1  and  O_2
REMARK    2  A    between atoms: O_2  and  C_3
REMARK    3  A    between atoms: C_9  and  C_10
REMARK    4  A    between atoms: N_17  and  C_18
REMARK    5  A    between atoms: C_18  and  C_19
REMARK                            x       y       z     vdW  Elec       q    Type
REMARK                         _______ _______ _______ _____ _____    ______ ____
ROOT
ATOM      1  C   UNL     1       3.282   4.987  17.894  0.00  0.00    +0.000 C 
ATOM      2  C   UNL     1       2.742   3.641  17.421  0.00  0.00    +0.000 C 
ATOM      3  C   UNL     1       1.368   3.623  18.046  0.00  0.00    +0.000 C 
ATOM      4  F   UNL     1       0.953   2.345  18.231  0.00  0.00    +0.000 F 
ATOM      5  F   UNL     1       0.485   4.209  17.190  0.00  0.00    +0.000 F 
ATOM      6  C   UNL     1       1.540   4.434  19.332  0.00  0.00    +0.000 C 
ATOM      7  O   UNL     1       0.697   4.522  20.212  0.00  0.00    +0.000 OA
ATOM      8  N   UNL     1       2.773   5.115  19.258  0.00  0.00    +0.000 N 
ENDROOT
BRANCH   1  15
ATOM      9  C   UNL     1       5.667   4.445  18.641  0.00  0.00    +0.000 A 
ATOM     10  C   UNL     1       7.053   4.573  18.467  0.00  0.00    +0.000 A 
ATOM     11  C   UNL     1       7.574   5.354  17.433  0.00  0.00    +0.000 A 
ATOM     12  C   UNL     1       6.713   6.019  16.570  0.00  0.00    +0.000 A 
ATOM     13  C   UNL     1       5.340   5.889  16.737  0.00  0.00    +0.000 A 
ATOM     14  F   UNL     1       4.539   6.542  15.883  0.00  0.00    +0.000 F 
ATOM     15  C   UNL     1       4.784   5.106  17.759  0.00  0.00    +0.000 A 
BRANCH   9  17
ATOM     16  C   UNL     1       4.940   2.305  19.426  0.00  0.00    +0.000 C 
ATOM     17  O   UNL     1       5.088   3.706  19.642  0.00  0.00    +0.000 OA
ENDBRANCH   9  17
ENDBRANCH   1  15
BRANCH   8  18
ATOM     18  C   UNL     1       3.047   6.331  20.014  0.00  0.00    +0.000 C 
BRANCH  18  19
ATOM     19  C   UNL     1       2.141   7.521  19.781  0.00  0.00    +0.000 A 
ATOM     20  C   UNL     1       2.132   8.136  18.515  0.00  0.00    +0.000 A 
ATOM     21  C   UNL     1       1.389   9.290  18.257  0.00  0.00    +0.000 A 
ATOM     22  C   UNL     1       0.684   9.823  19.329  0.00  0.00    +0.000 A 
ATOM     23  O   UNL     1      -0.018  10.987  19.296  0.00  0.00    +0.000 OA
ATOM     24  C   UNL     1      -0.525  11.180  20.542  0.00  0.00    +0.000 A 
ATOM     25  C   UNL     1      -1.257  12.295  20.945  0.00  0.00    +0.000 A 
ATOM     26  C   UNL     1      -1.695  12.309  22.273  0.00  0.00    +0.000 A 
ATOM     27  C   UNL     1      -1.418  11.244  23.133  0.00  0.00    +0.000 A 
ATOM     28  C   UNL     1      -0.669  10.138  22.701  0.00  0.00    +0.000 A 
ATOM     29  C   UNL     1      -0.197  10.114  21.374  0.00  0.00    +0.000 A 
ATOM     30  C   UNL     1       0.625   9.244  20.593  0.00  0.00    +0.000 A 
ATOM     31  C   UNL     1       1.349   8.052  20.820  0.00  0.00    +0.000 A 
ENDBRANCH  18  19
ENDBRANCH   8  18
TORSDOF 4
ENDMDL
MODEL 5
REMARK VINA RESULT:      -8.4      2.189      4.224
REMARK  Name = 
REMARK  5 active torsions:
REMARK  status: ('A' for Active; 'I' for Inactive)
REMARK    1  A    between atoms: C_1  and  O_2
REMARK    2  A    between atoms: O_2  and  C_3
REMARK    3  A    between atoms: C_9  and  C_10
REMARK    4  A    between atoms: N_17  and  C_18
REMARK    5  A    between atoms: C_18  and  C_19
REMARK                            x       y       z     vdW  Elec       q    Type
REMARK                         _______ _______ _______ _____ _____    ______ ____
ROOT
ATOM      1  C   UNL     1       4.182   4.239  17.503  0.00  0.00    +0.000 C 
ATOM      2  C   UNL     1       4.198   2.835  18.097  0.00  0.00    +0.000 C 
ATOM      3  C   UNL     1       2.733   2.472  18.070  0.00  0.00    +0.000 C 
ATOM      4  F   UNL     1       2.459   1.552  19.030  0.00  0.00    +0.000 F 
ATOM      5  F   UNL     1       2.440   1.895  16.871  0.00  0.00    +0.000 F 
ATOM      6  C   UNL     1       2.020   3.814  18.248  0.00  0.00    +0.000 C 
ATOM      7  O   UNL     1       0.821   3.939  18.444  0.00  0.00    +0.000 OA
ATOM      8  N   UNL     1       2.966   4.841  18.046  0.00  0.00    +0.000 N 
ENDROOT
BRANCH   1  15
ATOM      9  C   UNL     1       6.155   5.678  16.744  0.00  0.00    +0.000 A 
ATOM     10  C   UNL     1       7.322   6.397  17.045  0.00  0.00    +0.000 A 
ATOM     11  C   UNL     1       7.804   6.458  18.354  0.00  0.00    +0.000 A 
ATOM     12  C   UNL     1       7.129   5.795  19.370  0.00  0.00    +0.000 A 
ATOM     13  C   UNL     1       5.970   5.088  19.075  0.00  0.00    +0.000 A 
ATOM     14  F   UNL     1       5.341   4.463  20.081  0.00  0.00    +0.000 F 
ATOM     15  C   UNL     1       5.453   5.013  17.773  0.00  0.00    +0.000 A 
BRANCH   9  17
ATOM     16  C   UNL     1       6.393   4.843  14.514  0.00  0.00    +0.000 C 
ATOM     17  O   UNL     1       5.634   5.565  15.479  0.00  0.00    +0.000 OA
ENDBRANCH   9  17
ENDBRANCH   1  15
BRANCH   8  18
ATOM     18  C   UNL     1       2.590   6.189  17.638  0.00  0.00    +0.000 C 
BRANCH  18  19
ATOM     19  C   UNL     1       2.183   7.162  18.724  0.00  0.00    +0.000 A 
ATOM     20  C   UNL     1       2.167   6.726  20.062  0.00  0.00    +0.000 A 
ATOM     21  C   UNL     1       1.717   7.542  21.102  0.00  0.00    +0.000 A 
ATOM     22  C   UNL     1       1.250   8.799  20.742  0.00  0.00    +0.000 A 
ATOM     23  O   UNL     1       0.689   9.694  21.599  0.00  0.00    +0.000 OA
ATOM     24  C   UNL     1       0.328  10.777  20.860  0.00  0.00    +0.000 A 
ATOM     25  C   UNL     1      -0.339  11.896  21.354  0.00  0.00    +0.000 A 
ATOM     26  C   UNL     1      -0.622  12.911  20.435  0.00  0.00    +0.000 A 
ATOM     27  C   UNL     1      -0.235  12.799  19.098  0.00  0.00    +0.000 A 
ATOM     28  C   UNL     1       0.428  11.654  18.627  0.00  0.00    +0.000 A 
ATOM     29  C   UNL     1       0.702  10.609  19.531  0.00  0.00    +0.000 A 
ATOM     30  C   UNL     1       1.271   9.301  19.444  0.00  0.00    +0.000 A 
ATOM     31  C   UNL     1       1.771   8.475  18.413  0.00  0.00    +0.000 A 
ENDBRANCH  18  19
ENDBRANCH   8  18
TORSDOF 4
ENDMDL
MODEL 6
REMARK VINA RESULT:      -8.2      3.888      8.287
REMARK  Name = 
REMARK  5 active torsions:
REMARK  status: ('A' for Active; 'I' for Inactive)
REMARK    1  A    between atoms: C_1  and  O_2
REMARK    2  A    between atoms: O_2  and  C_3
REMARK    3  A    between atoms: C_9  and  C_10
REMARK    4  A    between atoms: N_17  and  C_18
REMARK    5  A    between atoms: C_18  and  C_19
REMARK                            x       y       z     vdW  Elec       q    Type
REMARK                         _______ _______ _______ _____ _____    ______ ____
ROOT
ATOM      1  C   UNL     1      -0.308  11.790  18.646  0.00  0.00    +0.000 C 
ATOM      2  C   UNL     1      -0.064  13.271  18.377  0.00  0.00    +0.000 C 
ATOM      3  C   UNL     1       1.261  13.496  19.065  0.00  0.00    +0.000 C 
ATOM      4  F   UNL     1       1.385  14.797  19.432  0.00  0.00    +0.000 F 
ATOM      5  F   UNL     1       2.267  13.233  18.185  0.00  0.00    +0.000 F 
ATOM      6  C   UNL     1       1.244  12.501  20.227  0.00  0.00    +0.000 C 
ATOM      7  O   UNL     1       2.068  12.476  21.128  0.00  0.00    +0.000 OA
ATOM      8  N   UNL     1       0.190  11.590  20.006  0.00  0.00    +0.000 N 
ENDROOT
BRANCH   1  15
ATOM      9  C   UNL     1      -2.821  12.046  19.045  0.00  0.00    +0.000 A 
ATOM     10  C   UNL     1      -4.139  11.633  18.797  0.00  0.00    +0.000 A 
ATOM     11  C   UNL     1      -4.401  10.557  17.946  0.00  0.00    +0.000 A 
ATOM     12  C   UNL     1      -3.348   9.881  17.343  0.00  0.00    +0.000 A 
ATOM     13  C   UNL     1      -2.043  10.292  17.583  0.00  0.00    +0.000 A 
ATOM     14  F   UNL     1      -1.052   9.619  16.981  0.00  0.00    +0.000 F 
ATOM     15  C   UNL     1      -1.745  11.374  18.425  0.00  0.00    +0.000 A 
BRANCH   9  17
ATOM     16  C   UNL     1      -3.361  13.353  20.975  0.00  0.00    +0.000 C 
ATOM     17  O   UNL     1      -2.491  13.085  19.879  0.00  0.00    +0.000 OA
ENDBRANCH   9  17
ENDBRANCH   1  15
BRANCH   8  18
ATOM     18  C   UNL     1       0.171  10.252  20.586  0.00  0.00    +0.000 C 
BRANCH  18  19
ATOM     19  C   UNL     1       1.053   9.199  19.949  0.00  0.00    +0.000 A 
ATOM     20  C   UNL     1       1.627   9.459  18.690  0.00  0.00    +0.000 A 
ATOM     21  C   UNL     1       2.375   8.500  18.005  0.00  0.00    +0.000 A 
ATOM     22  C   UNL     1       2.495   7.259  18.616  0.00  0.00    +0.000 A 
ATOM     23  O   UNL     1       3.104   6.176  18.063  0.00  0.00    +0.000 OA
ATOM     24  C   UNL     1       2.977   5.153  18.949  0.00  0.00    +0.000 A 
ATOM     25  C   UNL     1       3.413   3.848  18.734  0.00  0.00    +0.000 A 
ATOM     26  C   UNL     1       3.192   2.935  19.770  0.00  0.00    +0.000 A 
ATOM     27  C   UNL     1       2.577   3.333  20.959  0.00  0.00    +0.000 A 
ATOM     28  C   UNL     1       2.139   4.655  21.144  0.00  0.00    +0.000 A 
ATOM     29  C   UNL     1       2.330   5.585  20.104  0.00  0.00    +0.000 A 
ATOM     30  C   UNL     1       1.981   6.950  19.872  0.00  0.00    +0.000 A 
ATOM     31  C   UNL     1       1.265   7.950  20.567  0.00  0.00    +0.000 A 
ENDBRANCH  18  19
ENDBRANCH   8  18
TORSDOF 4
ENDMDL
MODEL 7
REMARK VINA RESULT:      -8.1      1.999      3.905
REMARK  Name = 
REMARK  5 active torsions:
REMARK  status: ('A' for Active; 'I' for Inactive)
REMARK    1  A    between atoms: C_1  and  O_2
REMARK    2  A    between atoms: O_2  and  C_3
REMARK    3  A    between atoms: C_9  and  C_10
REMARK    4  A    between atoms: N_17  and  C_18
REMARK    5  A    between atoms: C_18  and  C_19
REMARK                            x       y       z     vdW  Elec       q    Type
REMARK                         _______ _______ _______ _____ _____    ______ ____
ROOT
ATOM      1  C   UNL     1       3.552   4.663  17.690  0.00  0.00    +0.000 C 
ATOM      2  C   UNL     1       2.935   3.298  17.408  0.00  0.00    +0.000 C 
ATOM      3  C   UNL     1       1.563   3.447  18.021  0.00  0.00    +0.000 C 
ATOM      4  F   UNL     1       1.075   2.233  18.382  0.00  0.00    +0.000 F 
ATOM      5  F   UNL     1       0.713   3.956  17.087  0.00  0.00    +0.000 F 
ATOM      6  C   UNL     1       1.784   4.419  19.182  0.00  0.00    +0.000 C 
ATOM      7  O   UNL     1       0.950   4.678  20.035  0.00  0.00    +0.000 OA
ATOM      8  N   UNL     1       3.054   5.011  19.019  0.00  0.00    +0.000 N 
ENDROOT
BRANCH   1  15
ATOM      9  C   UNL     1       5.689   4.853  16.298  0.00  0.00    +0.000 A 
ATOM     10  C   UNL     1       7.089   4.873  16.218  0.00  0.00    +0.000 A 
ATOM     11  C   UNL     1       7.872   4.712  17.364  0.00  0.00    +0.000 A 
ATOM     12  C   UNL     1       7.260   4.522  18.596  0.00  0.00    +0.000 A 
ATOM     13  C   UNL     1       5.873   4.508  18.677  0.00  0.00    +0.000 A 
ATOM     14  F   UNL     1       5.317   4.326  19.884  0.00  0.00    +0.000 F 
ATOM     15  C   UNL     1       5.058   4.676  17.549  0.00  0.00    +0.000 A 
BRANCH   9  17
ATOM     16  C   UNL     1       5.230   4.320  14.010  0.00  0.00    +0.000 C 
ATOM     17  O   UNL     1       4.861   4.992  15.212  0.00  0.00    +0.000 OA
ENDBRANCH   9  17
ENDBRANCH   1  15
BRANCH   8  18
ATOM     18  C   UNL     1       3.400   6.304  19.599  0.00  0.00    +0.000 C 
BRANCH  18  19
ATOM     19  C   UNL     1       2.402   7.431  19.445  0.00  0.00    +0.000 A 
ATOM     20  C   UNL     1       2.264   8.056  18.191  0.00  0.00    +0.000 A 
ATOM     21  C   UNL     1       1.429   9.159  18.000  0.00  0.00    +0.000 A 
ATOM     22  C   UNL     1       0.765   9.632  19.124  0.00  0.00    +0.000 A 
ATOM     23  O   UNL     1      -0.014  10.746  19.155  0.00  0.00    +0.000 OA
ATOM     24  C   UNL     1      -0.446  10.892  20.436  0.00  0.00    +0.000 A 
ATOM     25  C   UNL     1      -1.222  11.951  20.902  0.00  0.00    +0.000 A 
ATOM     26  C   UNL     1      -1.567  11.923  22.257  0.00  0.00    +0.000 A 
ATOM     27  C   UNL     1      -1.161  10.872  23.082  0.00  0.00    +0.000 A 
ATOM     28  C   UNL     1      -0.370   9.823  22.584  0.00  0.00    +0.000 A 
ATOM     29  C   UNL     1       0.010   9.843  21.229  0.00  0.00    +0.000 A 
ATOM     30  C   UNL     1       0.833   9.039  20.382  0.00  0.00    +0.000 A 
ATOM     31  C   UNL     1       1.649   7.898  20.543  0.00  0.00    +0.000 A 
ENDBRANCH  18  19
ENDBRANCH   8  18
TORSDOF 4
ENDMDL
MODEL 8
REMARK VINA RESULT:      -8.0      1.350      1.944
REMARK  Name = 
REMARK  5 active torsions:
REMARK  status: ('A' for Active; 'I' for Inactive)
REMARK    1  A    between atoms: C_1  and  O_2
REMARK    2  A    between atoms: O_2  and  C_3
REMARK    3  A    between atoms: C_9  and  C_10
REMARK    4  A    between atoms: N_17  and  C_18
REMARK    5  A    between atoms: C_18  and  C_19
REMARK                            x       y       z     vdW  Elec       q    Type
REMARK                         _______ _______ _______ _____ _____    ______ ____
ROOT
ATOM      1  C   UNL     1       4.248   4.069  18.447  0.00  0.00    +0.000 C 
ATOM      2  C   UNL     1       4.251   3.270  17.148  0.00  0.00    +0.000 C 
ATOM      3  C   UNL     1       5.038   4.174  16.230  0.00  0.00    +0.000 C 
ATOM      4  F   UNL     1       4.691   3.948  14.938  0.00  0.00    +0.000 F 
ATOM      5  F   UNL     1       6.362   3.876  16.344  0.00  0.00    +0.000 F 
ATOM      6  C   UNL     1       4.723   5.581  16.743  0.00  0.00    +0.000 C 
ATOM      7  O   UNL     1       5.037   6.612  16.169  0.00  0.00    +0.000 OA
ATOM      8  N   UNL     1       4.113   5.457  18.009  0.00  0.00    +0.000 N 
ENDROOT
BRANCH   1  15
ATOM      9  C   UNL     1       1.835   3.947  19.284  0.00  0.00    +0.000 A 
ATOM     10  C   UNL     1       0.893   3.479  20.212  0.00  0.00    +0.000 A 
ATOM     11  C   UNL     1       1.288   2.682  21.289  0.00  0.00    +0.000 A 
ATOM     12  C   UNL     1       2.628   2.353  21.449  0.00  0.00    +0.000 A 
ATOM     13  C   UNL     1       3.561   2.811  20.527  0.00  0.00    +0.000 A 
ATOM     14  F   UNL     1       4.845   2.470  20.711  0.00  0.00    +0.000 F 
ATOM     15  C   UNL     1       3.197   3.605  19.430  0.00  0.00    +0.000 A 
BRANCH   9  17
ATOM     16  C   UNL     1       0.802   4.145  17.134  0.00  0.00    +0.000 C 
ATOM     17  O   UNL     1       1.519   4.743  18.211  0.00  0.00    +0.000 OA
ENDBRANCH   9  17
ENDBRANCH   1  15
BRANCH   8  18
ATOM     18  C   UNL     1       4.134   6.527  19.000  0.00  0.00    +0.000 C 
BRANCH  18  19
ATOM     19  C   UNL     1       2.973   7.498  19.008  0.00  0.00    +0.000 A 
ATOM     20  C   UNL     1       2.636   8.170  17.818  0.00  0.00    +0.000 A 
ATOM     21  C   UNL     1       1.637   9.144  17.775  0.00  0.00    +0.000 A 
ATOM     22  C   UNL     1       1.014   9.444  18.979  0.00  0.00    +0.000 A 
ATOM     23  O   UNL     1       0.088  10.424  19.153  0.00  0.00    +0.000 OA
ATOM     24  C   UNL     1      -0.245  10.427  20.471  0.00  0.00    +0.000 A 
ATOM     25  C   UNL     1      -1.121  11.327  21.073  0.00  0.00    +0.000 A 
ATOM     26  C   UNL     1      -1.337  11.166  22.445  0.00  0.00    +0.000 A 
ATOM     27  C   UNL     1      -0.710  10.140  23.157  0.00  0.00    +0.000 A 
ATOM     28  C   UNL     1       0.176   9.254  22.523  0.00  0.00    +0.000 A 
ATOM     29  C   UNL     1       0.427   9.412  21.147  0.00  0.00    +0.000 A 
ATOM     30  C   UNL     1       1.278   8.793  20.181  0.00  0.00    +0.000 A 
ATOM     31  C   UNL     1       2.262   7.780  20.193  0.00  0.00    +0.000 A 
ENDBRANCH  18  19
ENDBRANCH   8  18
TORSDOF 4
ENDMDL
MODEL 9
REMARK VINA RESULT:      -7.9      4.308      8.537
REMARK  Name = 
REMARK  5 active torsions:
REMARK  status: ('A' for Active; 'I' for Inactive)
REMARK    1  A    between atoms: C_1  and  O_2
REMARK    2  A    between atoms: O_2  and  C_3
REMARK    3  A    between atoms: C_9  and  C_10
REMARK    4  A    between atoms: N_17  and  C_18
REMARK    5  A    between atoms: C_18  and  C_19
REMARK                            x       y       z     vdW  Elec       q    Type
REMARK                         _______ _______ _______ _____ _____    ______ ____
ROOT
ATOM      1  C   UNL     1      -0.744  12.319  18.766  0.00  0.00    +0.000 C 
ATOM      2  C   UNL     1      -0.392  13.789  18.563  0.00  0.00    +0.000 C 
ATOM      3  C   UNL     1       1.045  13.828  19.024  0.00  0.00    +0.000 C 
ATOM      4  F   UNL     1       1.366  15.075  19.455  0.00  0.00    +0.000 F 
ATOM      5  F   UNL     1       1.858  13.552  17.966  0.00  0.00    +0.000 F 
ATOM      6  C   UNL     1       1.116  12.741  20.098  0.00  0.00    +0.000 C 
ATOM      7  O   UNL     1       2.071  12.561  20.838  0.00  0.00    +0.000 OA
ATOM      8  N   UNL     1      -0.050  11.954  20.000  0.00  0.00    +0.000 N 
ENDROOT
BRANCH   1  15
ATOM      9  C   UNL     1      -2.860  11.294  17.761  0.00  0.00    +0.000 A 
ATOM     10  C   UNL     1      -4.243  11.066  17.814  0.00  0.00    +0.000 A 
ATOM     11  C   UNL     1      -5.013  11.594  18.852  0.00  0.00    +0.000 A 
ATOM     12  C   UNL     1      -4.409  12.360  19.840  0.00  0.00    +0.000 A 
ATOM     13  C   UNL     1      -3.038  12.582  19.792  0.00  0.00    +0.000 A 
ATOM     14  F   UNL     1      -2.487  13.323  20.764  0.00  0.00    +0.000 F 
ATOM     15  C   UNL     1      -2.233  12.058  18.769  0.00  0.00    +0.000 A 
BRANCH   9  17
ATOM     16  C   UNL     1      -2.669  10.345  15.572  0.00  0.00    +0.000 C 
ATOM     17  O   UNL     1      -2.046  10.816  16.764  0.00  0.00    +0.000 OA
ENDBRANCH   9  17
ENDBRANCH   1  15
BRANCH   8  18
ATOM     18  C   UNL     1      -0.115  10.578  20.478  0.00  0.00    +0.000 C 
BRANCH  18  19
ATOM     19  C   UNL     1       0.811   9.568  19.834  0.00  0.00    +0.000 A 
ATOM     20  C   UNL     1       1.368   9.858  18.575  0.00  0.00    +0.000 A 
ATOM     21  C   UNL     1       2.156   8.936  17.883  0.00  0.00    +0.000 A 
ATOM     22  C   UNL     1       2.334   7.699  18.489  0.00  0.00    +0.000 A 
ATOM     23  O   UNL     1       2.988   6.646  17.929  0.00  0.00    +0.000 OA
ATOM     24  C   UNL     1       2.909   5.616  18.812  0.00  0.00    +0.000 A 
ATOM     25  C   UNL     1       3.403   4.332  18.590  0.00  0.00    +0.000 A 
ATOM     26  C   UNL     1       3.225   3.407  19.623  0.00  0.00    +0.000 A 
ATOM     27  C   UNL     1       2.598   3.772  20.816  0.00  0.00    +0.000 A 
ATOM     28  C   UNL     1       2.102   5.072  21.007  0.00  0.00    +0.000 A 
ATOM     29  C   UNL     1       2.248   6.013  19.970  0.00  0.00    +0.000 A 
ATOM     30  C   UNL     1       1.838   7.363  19.745  0.00  0.00    +0.000 A 
ATOM     31  C   UNL     1       1.080   8.327  20.447  0.00  0.00    +0.000 A 
ENDBRANCH  18  19
ENDBRANCH   8  18
TORSDOF 4
ENDMDL
