MODEL 1
REMARK VINA RESULT:      -6.9      0.000      0.000
REMARK  Name = 
REMARK  7 active torsions:
REMARK  status: ('A' for Active; 'I' for Inactive)
REMARK    1  A    between atoms: C_1  and  C_2
REMARK    2  A    between atoms: C_2  and  O_3
REMARK    3  A    between atoms: O_3  and  C_4
REMARK    4  A    between atoms: C_6  and  C_7
REMARK    5  A    between atoms: C_7  and  N_8
REMARK    6  A    between atoms: C_11  and  N_12
REMARK    7  A    between atoms: C_17  and  O_18
REMARK                            x       y       z     vdW  Elec       q    Type
REMARK                         _______ _______ _______ _____ _____    ______ ____
ROOT
ATOM      1  C   UNL     1       6.571   6.105  16.489  0.00  0.00    +0.000 A 
ATOM      2  C   UNL     1       5.379   6.217  17.217  0.00  0.00    +0.000 A 
ATOM      3  C   UNL     1       4.367   5.253  17.116  0.00  0.00    +0.000 A 
ATOM      4  C   UNL     1       4.559   4.164  16.257  0.00  0.00    +0.000 A 
ATOM      5  C   UNL     1       5.747   4.032  15.538  0.00  0.00    +0.000 A 
ATOM      6  C   UNL     1       6.750   4.999  15.650  0.00  0.00    +0.000 A 
ENDROOT
BRANCH   6   7
ATOM      7  O   UNL     1       7.880   4.850  14.896  0.00  0.00    +0.000 OA
ATOM      8  H   UNL     1       8.647   4.778  15.487  0.00  0.00    +0.000 HD
ENDBRANCH   6   7
BRANCH   1   9
ATOM      9  O   UNL     1       7.406   7.178  16.644  0.00  0.00    +0.000 OA
BRANCH   9  11
ATOM     10  C   UNL     1       8.211   8.990  17.948  0.00  0.00    +0.000 C 
ATOM     11  C   UNL     1       7.778   7.533  17.973  0.00  0.00    +0.000 C 
ENDBRANCH   9  11
ENDBRANCH   1   9
BRANCH   3  12
ATOM     12  C   UNL     1       3.087   5.404  17.909  0.00  0.00    +0.000 C 
BRANCH  12  13
ATOM     13  N   UNL     1       2.669   4.192  18.656  0.00  0.00    +0.000 NA
ATOM     14  C   UNL     1       1.300   4.343  19.177  0.00  0.00    +0.000 C 
ATOM     15  C   UNL     1       0.881   3.266  20.185  0.00  0.00    +0.000 C 
ATOM     16  C   UNL     1       1.895   3.194  21.319  0.00  0.00    +0.000 C 
ATOM     17  C   UNL     1       3.259   2.862  20.724  0.00  0.00    +0.000 C 
ATOM     18  C   UNL     1       3.665   3.935  19.713  0.00  0.00    +0.000 C 
BRANCH  16  19
ATOM     19  N   UNL     1       1.508   2.197  22.316  0.00  0.00    +0.000 NA
ATOM     20  H   UNL     1       2.072   2.314  23.157  0.00  0.00    +0.000 HD
ATOM     21  H   UNL     1       1.718   1.264  21.964  0.00  0.00    +0.000 HD
ENDBRANCH  16  19
ENDBRANCH  12  13
ENDBRANCH   3  12
TORSDOF 6
ENDMDL
MODEL 2
REMARK VINA RESULT:      -6.7      1.890      3.082
REMARK  Name = 
REMARK  7 active torsions:
REMARK  status: ('A' for Active; 'I' for Inactive)
REMARK    1  A    between atoms: C_1  and  C_2
REMARK    2  A    between atoms: C_2  and  O_3
REMARK    3  A    between atoms: O_3  and  C_4
REMARK    4  A    between atoms: C_6  and  C_7
REMARK    5  A    between atoms: C_7  and  N_8
REMARK    6  A    between atoms: C_11  and  N_12
REMARK    7  A    between atoms: C_17  and  O_18
REMARK                            x       y       z     vdW  Elec       q    Type
REMARK                         _______ _______ _______ _____ _____    ______ ____
ROOT
ATOM      1  C   UNL     1       6.487   4.993  16.274  0.00  0.00    +0.000 A 
ATOM      2  C   UNL     1       5.286   5.709  16.368  0.00  0.00    +0.000 A 
ATOM      3  C   UNL     1       4.782   6.135  17.604  0.00  0.00    +0.000 A 
ATOM      4  C   UNL     1       5.500   5.823  18.765  0.00  0.00    +0.000 A 
ATOM      5  C   UNL     1       6.704   5.124  18.686  0.00  0.00    +0.000 A 
ATOM      6  C   UNL     1       7.197   4.708  17.446  0.00  0.00    +0.000 A 
ENDROOT
BRANCH   6   7
ATOM      7  O   UNL     1       8.360   3.991  17.420  0.00  0.00    +0.000 OA
ATOM      8  H   UNL     1       8.155   3.050  17.545  0.00  0.00    +0.000 HD
ENDBRANCH   6   7
BRANCH   1   9
ATOM      9  O   UNL     1       6.780   4.585  15.002  0.00  0.00    +0.000 OA
BRANCH   9  11
ATOM     10  C   UNL     1       6.278   3.664  12.872  0.00  0.00    +0.000 C 
ATOM     11  C   UNL     1       5.691   4.174  14.179  0.00  0.00    +0.000 C 
ENDBRANCH   9  11
ENDBRANCH   1   9
BRANCH   3  12
ATOM     12  C   UNL     1       3.479   6.900  17.674  0.00  0.00    +0.000 C 
BRANCH  12  13
ATOM     13  N   UNL     1       2.365   6.177  18.335  0.00  0.00    +0.000 NA
ATOM     14  C   UNL     1       2.479   6.265  19.800  0.00  0.00    +0.000 C 
ATOM     15  C   UNL     1       1.538   5.329  20.569  0.00  0.00    +0.000 C 
ATOM     16  C   UNL     1       1.727   3.896  20.090  0.00  0.00    +0.000 C 
ATOM     17  C   UNL     1       1.423   3.845  18.597  0.00  0.00    +0.000 C 
ATOM     18  C   UNL     1       2.359   4.788  17.839  0.00  0.00    +0.000 C 
BRANCH  16  19
ATOM     19  N   UNL     1       0.865   2.971  20.826  0.00  0.00    +0.000 NA
ATOM     20  H   UNL     1       0.061   3.474  21.199  0.00  0.00    +0.000 HD
ATOM     21  H   UNL     1       1.369   2.607  21.634  0.00  0.00    +0.000 HD
ENDBRANCH  16  19
ENDBRANCH  12  13
ENDBRANCH   3  12
TORSDOF 6
ENDMDL
MODEL 3
REMARK VINA RESULT:      -6.6      1.178      1.646
REMARK  Name = 
REMARK  7 active torsions:
REMARK  status: ('A' for Active; 'I' for Inactive)
REMARK    1  A    between atoms: C_1  and  C_2
REMARK    2  A    between atoms: C_2  and  O_3
REMARK    3  A    between atoms: O_3  and  C_4
REMARK    4  A    between atoms: C_6  and  C_7
REMARK    5  A    between atoms: C_7  and  N_8
REMARK    6  A    between atoms: C_11  and  N_12
REMARK    7  A    between atoms: C_17  and  O_18
REMARK                            x       y       z     vdW  Elec       q    Type
REMARK                         _______ _______ _______ _____ _____    ______ ____
ROOT
ATOM      1  C   UNL     1       6.888   4.968  16.537  0.00  0.00    +0.000 A 
ATOM      2  C   UNL     1       5.717   4.466  17.119  0.00  0.00    +0.000 A 
ATOM      3  C   UNL     1       4.628   4.056  16.339  0.00  0.00    +0.000 A 
ATOM      4  C   UNL     1       4.721   4.167  14.946  0.00  0.00    +0.000 A 
ATOM      5  C   UNL     1       5.886   4.651  14.351  0.00  0.00    +0.000 A 
ATOM      6  C   UNL     1       6.966   5.053  15.142  0.00  0.00    +0.000 A 
ENDROOT
BRANCH   6   7
ATOM      7  O   UNL     1       8.072   5.559  14.519  0.00  0.00    +0.000 OA
ATOM      8  H   UNL     1       8.208   6.475  14.811  0.00  0.00    +0.000 HD
ENDBRANCH   6   7
BRANCH   1   9
ATOM      9  O   UNL     1       7.809   5.399  17.452  0.00  0.00    +0.000 OA
BRANCH   9  11
ATOM     10  C   UNL     1       7.724   7.766  17.606  0.00  0.00    +0.000 C 
ATOM     11  C   UNL     1       7.423   6.458  18.322  0.00  0.00    +0.000 C 
ENDBRANCH   9  11
ENDBRANCH   1   9
BRANCH   3  12
ATOM     12  C   UNL     1       3.373   3.524  16.996  0.00  0.00    +0.000 C 
BRANCH  12  13
ATOM     13  N   UNL     1       3.322   3.691  18.469  0.00  0.00    +0.000 NA
ATOM     14  C   UNL     1       3.663   2.433  19.152  0.00  0.00    +0.000 C 
ATOM     15  C   UNL     1       3.376   2.429  20.658  0.00  0.00    +0.000 C 
ATOM     16  C   UNL     1       1.924   2.813  20.911  0.00  0.00    +0.000 C 
ATOM     17  C   UNL     1       1.687   4.203  20.329  0.00  0.00    +0.000 C 
ATOM     18  C   UNL     1       1.985   4.200  18.829  0.00  0.00    +0.000 C 
BRANCH  16  19
ATOM     19  N   UNL     1       1.607   2.788  22.338  0.00  0.00    +0.000 NA
ATOM     20  H   UNL     1       1.632   3.735  22.713  0.00  0.00    +0.000 HD
ATOM     21  H   UNL     1       2.328   2.268  22.838  0.00  0.00    +0.000 HD
ENDBRANCH  16  19
ENDBRANCH  12  13
ENDBRANCH   3  12
TORSDOF 6
ENDMDL
MODEL 4
REMARK VINA RESULT:      -6.4      1.837      3.724
REMARK  Name = 
REMARK  7 active torsions:
REMARK  status: ('A' for Active; 'I' for Inactive)
REMARK    1  A    between atoms: C_1  and  C_2
REMARK    2  A    between atoms: C_2  and  O_3
REMARK    3  A    between atoms: O_3  and  C_4
REMARK    4  A    between atoms: C_6  and  C_7
REMARK    5  A    between atoms: C_7  and  N_8
REMARK    6  A    between atoms: C_11  and  N_12
REMARK    7  A    between atoms: C_17  and  O_18
REMARK                            x       y       z     vdW  Elec       q    Type
REMARK                         _______ _______ _______ _____ _____    ______ ____
ROOT
ATOM      1  C   UNL     1       6.326   4.218  14.118  0.00  0.00    +0.000 A 
ATOM      2  C   UNL     1       5.211   3.761  14.833  0.00  0.00    +0.000 A 
ATOM      3  C   UNL     1       4.903   4.258  16.106  0.00  0.00    +0.000 A 
ATOM      4  C   UNL     1       5.743   5.226  16.671  0.00  0.00    +0.000 A 
ATOM      5  C   UNL     1       6.848   5.701  15.965  0.00  0.00    +0.000 A 
ATOM      6  C   UNL     1       7.141   5.199  14.694  0.00  0.00    +0.000 A 
ENDROOT
BRANCH   6   7
ATOM      7  O   UNL     1       8.257   5.665  14.056  0.00  0.00    +0.000 OA
ATOM      8  H   UNL     1       9.005   5.649  14.675  0.00  0.00    +0.000 HD
ENDBRANCH   6   7
BRANCH   1   9
ATOM      9  O   UNL     1       6.521   3.561  12.934  0.00  0.00    +0.000 OA
BRANCH   9  11
ATOM     10  C   UNL     1       5.630   1.986  11.399  0.00  0.00    +0.000 C 
ATOM     11  C   UNL     1       5.370   3.289  12.139  0.00  0.00    +0.000 C 
ENDBRANCH   9  11
ENDBRANCH   1   9
BRANCH   3  12
ATOM     12  C   UNL     1       3.696   3.740  16.857  0.00  0.00    +0.000 C 
BRANCH  12  13
ATOM     13  N   UNL     1       3.798   3.821  18.335  0.00  0.00    +0.000 NA
ATOM     14  C   UNL     1       3.910   2.478  18.928  0.00  0.00    +0.000 C 
ATOM     15  C   UNL     1       3.747   2.441  20.452  0.00  0.00    +0.000 C 
ATOM     16  C   UNL     1       2.438   3.109  20.852  0.00  0.00    +0.000 C 
ATOM     17  C   UNL     1       2.465   4.551  20.356  0.00  0.00    +0.000 C 
ATOM     18  C   UNL     1       2.637   4.580  18.836  0.00  0.00    +0.000 C 
BRANCH  16  19
ATOM     19  N   UNL     1       2.237   3.062  22.299  0.00  0.00    +0.000 NA
ATOM     20  H   UNL     1       3.061   2.662  22.748  0.00  0.00    +0.000 HD
ATOM     21  H   UNL     1       1.465   2.431  22.515  0.00  0.00    +0.000 HD
ENDBRANCH  16  19
ENDBRANCH  12  13
ENDBRANCH   3  12
TORSDOF 6
ENDMDL
MODEL 5
REMARK VINA RESULT:      -6.4      0.967      1.372
REMARK  Name = 
REMARK  7 active torsions:
REMARK  status: ('A' for Active; 'I' for Inactive)
REMARK    1  A    between atoms: C_1  and  C_2
REMARK    2  A    between atoms: C_2  and  O_3
REMARK    3  A    between atoms: O_3  and  C_4
REMARK    4  A    between atoms: C_6  and  C_7
REMARK    5  A    between atoms: C_7  and  N_8
REMARK    6  A    between atoms: C_11  and  N_12
REMARK    7  A    between atoms: C_17  and  O_18
REMARK                            x       y       z     vdW  Elec       q    Type
REMARK                         _______ _______ _______ _____ _____    ______ ____
ROOT
ATOM      1  C   UNL     1       6.314   6.224  17.003  0.00  0.00    +0.000 A 
ATOM      2  C   UNL     1       5.002   6.604  17.318  0.00  0.00    +0.000 A 
ATOM      3  C   UNL     1       3.962   5.667  17.376  0.00  0.00    +0.000 A 
ATOM      4  C   UNL     1       4.251   4.325  17.101  0.00  0.00    +0.000 A 
ATOM      5  C   UNL     1       5.554   3.929  16.800  0.00  0.00    +0.000 A 
ATOM      6  C   UNL     1       6.583   4.874  16.749  0.00  0.00    +0.000 A 
ENDROOT
BRANCH   6   7
ATOM      7  O   UNL     1       7.837   4.448  16.411  0.00  0.00    +0.000 OA
ATOM      8  H   UNL     1       8.493   5.026  16.835  0.00  0.00    +0.000 HD
ENDBRANCH   6   7
BRANCH   1   9
ATOM      9  O   UNL     1       7.178   7.280  16.906  0.00  0.00    +0.000 OA
BRANCH   9  11
ATOM     10  C   UNL     1       8.218   9.117  17.990  0.00  0.00    +0.000 C 
ATOM     11  C   UNL     1       7.920   7.628  18.071  0.00  0.00    +0.000 C 
ENDBRANCH   9  11
ENDBRANCH   1   9
BRANCH   3  12
ATOM     12  C   UNL     1       2.554   6.108  17.711  0.00  0.00    +0.000 C 
BRANCH  12  13
ATOM     13  N   UNL     1       1.984   5.496  18.937  0.00  0.00    +0.000 NA
ATOM     14  C   UNL     1       2.982   5.458  20.017  0.00  0.00    +0.000 C 
ATOM     15  C   UNL     1       2.579   4.606  21.226  0.00  0.00    +0.000 C 
ATOM     16  C   UNL     1       2.211   3.200  20.770  0.00  0.00    +0.000 C 
ATOM     17  C   UNL     1       1.053   3.303  19.783  0.00  0.00    +0.000 C 
ATOM     18  C   UNL     1       1.461   4.163  18.585  0.00  0.00    +0.000 C 
BRANCH  16  19
ATOM     19  N   UNL     1       1.851   2.349  21.904  0.00  0.00    +0.000 NA
ATOM     20  H   UNL     1       2.102   2.814  22.776  0.00  0.00    +0.000 HD
ATOM     21  H   UNL     1       2.401   1.491  21.874  0.00  0.00    +0.000 HD
ENDBRANCH  16  19
ENDBRANCH  12  13
ENDBRANCH   3  12
TORSDOF 6
ENDMDL
MODEL 6
REMARK VINA RESULT:      -6.4      3.561      6.244
REMARK  Name = 
REMARK  7 active torsions:
REMARK  status: ('A' for Active; 'I' for Inactive)
REMARK    1  A    between atoms: C_1  and  C_2
REMARK    2  A    between atoms: C_2  and  O_3
REMARK    3  A    between atoms: O_3  and  C_4
REMARK    4  A    between atoms: C_6  and  C_7
REMARK    5  A    between atoms: C_7  and  N_8
REMARK    6  A    between atoms: C_11  and  N_12
REMARK    7  A    between atoms: C_17  and  O_18
REMARK                            x       y       z     vdW  Elec       q    Type
REMARK                         _______ _______ _______ _____ _____    ______ ____
ROOT
ATOM      1  C   UNL     1       1.684   3.756  18.801  0.00  0.00    +0.000 A 
ATOM      2  C   UNL     1       2.354   4.769  18.101  0.00  0.00    +0.000 A 
ATOM      3  C   UNL     1       2.591   6.024  18.676  0.00  0.00    +0.000 A 
ATOM      4  C   UNL     1       2.133   6.263  19.977  0.00  0.00    +0.000 A 
ATOM      5  C   UNL     1       1.478   5.261  20.692  0.00  0.00    +0.000 A 
ATOM      6  C   UNL     1       1.251   4.012  20.108  0.00  0.00    +0.000 A 
ENDROOT
BRANCH   6   7
ATOM      7  O   UNL     1       0.570   3.073  20.830  0.00  0.00    +0.000 OA
ATOM      8  H   UNL     1       0.985   2.206  20.693  0.00  0.00    +0.000 HD
ENDBRANCH   6   7
BRANCH   1   9
ATOM      9  O   UNL     1       1.465   2.631  18.055  0.00  0.00    +0.000 OA
BRANCH   9  11
ATOM     10  C   UNL     1       3.478   1.459  18.512  0.00  0.00    +0.000 C 
ATOM     11  C   UNL     1       2.593   2.037  17.419  0.00  0.00    +0.000 C 
ENDBRANCH   9  11
ENDBRANCH   1   9
BRANCH   3  12
ATOM     12  C   UNL     1       3.311   7.100  17.892  0.00  0.00    +0.000 C 
BRANCH  12  13
ATOM     13  N   UNL     1       4.752   6.841  17.657  0.00  0.00    +0.000 NA
ATOM     14  C   UNL     1       4.965   6.215  16.341  0.00  0.00    +0.000 C 
ATOM     15  C   UNL     1       6.379   5.665  16.120  0.00  0.00    +0.000 C 
ATOM     16  C   UNL     1       6.746   4.710  17.248  0.00  0.00    +0.000 C 
ATOM     17  C   UNL     1       6.674   5.473  18.566  0.00  0.00    +0.000 C 
ATOM     18  C   UNL     1       5.263   6.026  18.775  0.00  0.00    +0.000 C 
BRANCH  16  19
ATOM     19  N   UNL     1       8.079   4.141  17.050  0.00  0.00    +0.000 NA
ATOM     20  H   UNL     1       8.522   3.981  17.954  0.00  0.00    +0.000 HD
ATOM     21  H   UNL     1       8.668   4.816  16.564  0.00  0.00    +0.000 HD
ENDBRANCH  16  19
ENDBRANCH  12  13
ENDBRANCH   3  12
TORSDOF 6
ENDMDL
MODEL 7
REMARK VINA RESULT:      -6.3      0.836      1.241
REMARK  Name = 
REMARK  7 active torsions:
REMARK  status: ('A' for Active; 'I' for Inactive)
REMARK    1  A    between atoms: C_1  and  C_2
REMARK    2  A    between atoms: C_2  and  O_3
REMARK    3  A    between atoms: O_3  and  C_4
REMARK    4  A    between atoms: C_6  and  C_7
REMARK    5  A    between atoms: C_7  and  N_8
REMARK    6  A    between atoms: C_11  and  N_12
REMARK    7  A    between atoms: C_17  and  O_18
REMARK                            x       y       z     vdW  Elec       q    Type
REMARK                         _______ _______ _______ _____ _____    ______ ____
ROOT
ATOM      1  C   UNL     1       6.748   6.076  16.388  0.00  0.00    +0.000 A 
ATOM      2  C   UNL     1       5.567   6.112  17.141  0.00  0.00    +0.000 A 
ATOM      3  C   UNL     1       4.493   5.256  16.861  0.00  0.00    +0.000 A 
ATOM      4  C   UNL     1       4.612   4.357  15.794  0.00  0.00    +0.000 A 
ATOM      5  C   UNL     1       5.787   4.300  15.044  0.00  0.00    +0.000 A 
ATOM      6  C   UNL     1       6.852   5.157  15.337  0.00  0.00    +0.000 A 
ENDROOT
BRANCH   6   7
ATOM      7  O   UNL     1       7.968   5.094  14.551  0.00  0.00    +0.000 OA
ATOM      8  H   UNL     1       8.756   5.163  15.115  0.00  0.00    +0.000 HD
ENDBRANCH   6   7
BRANCH   1   9
ATOM      9  O   UNL     1       7.651   7.039  16.746  0.00  0.00    +0.000 OA
BRANCH   9  11
ATOM     10  C   UNL     1       8.006   6.081  18.889  0.00  0.00    +0.000 C 
ATOM     11  C   UNL     1       7.741   7.371  18.129  0.00  0.00    +0.000 C 
ENDBRANCH   9  11
ENDBRANCH   1   9
BRANCH   3  12
ATOM     12  C   UNL     1       3.228   5.322  17.687  0.00  0.00    +0.000 C 
BRANCH  12  13
ATOM     13  N   UNL     1       3.292   4.608  18.986  0.00  0.00    +0.000 NA
ATOM     14  C   UNL     1       2.951   3.186  18.820  0.00  0.00    +0.000 C 
ATOM     15  C   UNL     1       2.726   2.429  20.134  0.00  0.00    +0.000 C 
ATOM     16  C   UNL     1       1.680   3.149  20.975  0.00  0.00    +0.000 C 
ATOM     17  C   UNL     1       2.180   4.562  21.256  0.00  0.00    +0.000 C 
ATOM     18  C   UNL     1       2.411   5.307  19.940  0.00  0.00    +0.000 C 
BRANCH  16  19
ATOM     19  N   UNL     1       1.418   2.434  22.224  0.00  0.00    +0.000 NA
ATOM     20  H   UNL     1       0.479   2.654  22.555  0.00  0.00    +0.000 HD
ATOM     21  H   UNL     1       2.056   2.766  22.947  0.00  0.00    +0.000 HD
ENDBRANCH  16  19
ENDBRANCH  12  13
ENDBRANCH   3  12
TORSDOF 6
ENDMDL
MODEL 8
REMARK VINA RESULT:      -6.3      2.897      3.759
REMARK  Name = 
REMARK  7 active torsions:
REMARK  status: ('A' for Active; 'I' for Inactive)
REMARK    1  A    between atoms: C_1  and  C_2
REMARK    2  A    between atoms: C_2  and  O_3
REMARK    3  A    between atoms: O_3  and  C_4
REMARK    4  A    between atoms: C_6  and  C_7
REMARK    5  A    between atoms: C_7  and  N_8
REMARK    6  A    between atoms: C_11  and  N_12
REMARK    7  A    between atoms: C_17  and  O_18
REMARK                            x       y       z     vdW  Elec       q    Type
REMARK                         _______ _______ _______ _____ _____    ______ ____
ROOT
ATOM      1  C   UNL     1       6.357   6.325  16.928  0.00  0.00    +0.000 A 
ATOM      2  C   UNL     1       5.080   6.655  17.403  0.00  0.00    +0.000 A 
ATOM      3  C   UNL     1       4.051   5.706  17.457  0.00  0.00    +0.000 A 
ATOM      4  C   UNL     1       4.314   4.404  17.013  0.00  0.00    +0.000 A 
ATOM      5  C   UNL     1       5.583   4.057  16.552  0.00  0.00    +0.000 A 
ATOM      6  C   UNL     1       6.602   5.013  16.506  0.00  0.00    +0.000 A 
ENDROOT
BRANCH   6   7
ATOM      7  O   UNL     1       7.819   4.639  16.009  0.00  0.00    +0.000 OA
ATOM      8  H   UNL     1       8.376   5.429  15.910  0.00  0.00    +0.000 HD
ENDBRANCH   6   7
BRANCH   1   9
ATOM      9  O   UNL     1       7.207   7.394  16.865  0.00  0.00    +0.000 OA
BRANCH   9  11
ATOM     10  C   UNL     1       8.265   9.171  18.031  0.00  0.00    +0.000 C 
ATOM     11  C   UNL     1       7.995   7.674  18.019  0.00  0.00    +0.000 C 
ENDBRANCH   9  11
ENDBRANCH   1   9
BRANCH   3  12
ATOM     12  C   UNL     1       2.681   6.093  17.969  0.00  0.00    +0.000 C 
BRANCH  12  13
ATOM     13  N   UNL     1       2.626   7.391  18.686  0.00  0.00    +0.000 NA
ATOM     14  C   UNL     1       1.975   7.238  19.998  0.00  0.00    +0.000 C 
ATOM     15  C   UNL     1       1.629   8.559  20.694  0.00  0.00    +0.000 C 
ATOM     16  C   UNL     1       0.793   9.431  19.766  0.00  0.00    +0.000 C 
ATOM     17  C   UNL     1       1.600   9.694  18.499  0.00  0.00    +0.000 C 
ATOM     18  C   UNL     1       1.950   8.371  17.816  0.00  0.00    +0.000 C 
BRANCH  16  19
ATOM     19  N   UNL     1       0.418  10.689  20.412  0.00  0.00    +0.000 NA
ATOM     20  H   UNL     1      -0.257  11.185  19.831  0.00  0.00    +0.000 HD
ATOM     21  H   UNL     1       1.235  11.295  20.476  0.00  0.00    +0.000 HD
ENDBRANCH  16  19
ENDBRANCH  12  13
ENDBRANCH   3  12
TORSDOF 6
ENDMDL
MODEL 9
REMARK VINA RESULT:      -6.3      1.399      3.228
REMARK  Name = 
REMARK  7 active torsions:
REMARK  status: ('A' for Active; 'I' for Inactive)
REMARK    1  A    between atoms: C_1  and  C_2
REMARK    2  A    between atoms: C_2  and  O_3
REMARK    3  A    between atoms: O_3  and  C_4
REMARK    4  A    between atoms: C_6  and  C_7
REMARK    5  A    between atoms: C_7  and  N_8
REMARK    6  A    between atoms: C_11  and  N_12
REMARK    7  A    between atoms: C_17  and  O_18
REMARK                            x       y       z     vdW  Elec       q    Type
REMARK                         _______ _______ _______ _____ _____    ______ ____
ROOT
ATOM      1  C   UNL     1       6.084   4.488  15.252  0.00  0.00    +0.000 A 
ATOM      2  C   UNL     1       4.889   3.938  15.734  0.00  0.00    +0.000 A 
ATOM      3  C   UNL     1       4.236   4.473  16.852  0.00  0.00    +0.000 A 
ATOM      4  C   UNL     1       4.806   5.576  17.499  0.00  0.00    +0.000 A 
ATOM      5  C   UNL     1       5.987   6.143  17.022  0.00  0.00    +0.000 A 
ATOM      6  C   UNL     1       6.627   5.602  15.904  0.00  0.00    +0.000 A 
ENDROOT
BRANCH   6   7
ATOM      7  O   UNL     1       7.804   6.164  15.495  0.00  0.00    +0.000 OA
ATOM      8  H   UNL     1       7.623   7.047  15.132  0.00  0.00    +0.000 HD
ENDBRANCH   6   7
BRANCH   1   9
ATOM      9  O   UNL     1       6.625   3.786  14.210  0.00  0.00    +0.000 OA
BRANCH   9  11
ATOM     10  C   UNL     1       6.779   3.163  11.925  0.00  0.00    +0.000 C 
ATOM     11  C   UNL     1       5.860   3.698  13.012  0.00  0.00    +0.000 C 
ENDBRANCH   9  11
ENDBRANCH   1   9
BRANCH   3  12
ATOM     12  C   UNL     1       2.950   3.854  17.354  0.00  0.00    +0.000 C 
BRANCH  12  13
ATOM     13  N   UNL     1       2.755   3.925  18.823  0.00  0.00    +0.000 NA
ATOM     14  C   UNL     1       3.399   2.783  19.493  0.00  0.00    +0.000 C 
ATOM     15  C   UNL     1       3.026   2.621  20.972  0.00  0.00    +0.000 C 
ATOM     16  C   UNL     1       1.511   2.562  21.121  0.00  0.00    +0.000 C 
ATOM     17  C   UNL     1       0.923   3.853  20.564  0.00  0.00    +0.000 C 
ATOM     18  C   UNL     1       1.307   4.012  19.092  0.00  0.00    +0.000 C 
BRANCH  16  19
ATOM     19  N   UNL     1       1.122   2.375  22.519  0.00  0.00    +0.000 NA
ATOM     20  H   UNL     1       1.464   3.155  23.078  0.00  0.00    +0.000 HD
ATOM     21  H   UNL     1       1.576   1.541  22.890  0.00  0.00    +0.000 HD
ENDBRANCH  16  19
ENDBRANCH  12  13
ENDBRANCH   3  12
TORSDOF 6
ENDMDL
