MODEL 1
REMARK VINA RESULT:      -8.4      0.000      0.000
REMARK  Name = 
REMARK  10 active torsions:
REMARK  status: ('A' for Active; 'I' for Inactive)
REMARK    1  A    between atoms: C_1  and  C_2
REMARK    2  A    between atoms: C_2  and  N_3
REMARK    3  A    between atoms: N_3  and  C_4
REMARK    4  A    between atoms: N_3  and  C_11
REMARK    5  A    between atoms: C_4  and  C_5
REMARK    6  A    between atoms: C_14  and  N_15
REMARK    7  A    between atoms: C_16  and  C_18
REMARK    8  A    between atoms: C_21  and  C_22
REMARK    9  A    between atoms: C_26  and  C_27
REMARK   10  A    between atoms: C_27  and  O_29
REMARK                            x       y       z     vdW  Elec       q    Type
REMARK                         _______ _______ _______ _____ _____    ______ ____
ROOT
ATOM      1  C   UNL     1       2.778   5.946  18.716  0.00  0.00    +0.000 A 
ATOM      2  C   UNL     1       2.856   7.213  18.112  0.00  0.00    +0.000 A 
ATOM      3  C   UNL     1       2.186   8.321  18.635  0.00  0.00    +0.000 A 
ATOM      4  C   UNL     1       1.460   8.232  19.818  0.00  0.00    +0.000 A 
ATOM      5  C   UNL     1       1.470   7.017  20.506  0.00  0.00    +0.000 A 
ATOM      6  C   UNL     1       2.096   5.877  19.952  0.00  0.00    +0.000 A 
ENDROOT
BRANCH   4   7
ATOM      7  N   UNL     1       0.726   9.319  20.353  0.00  0.00    +0.000 N 
ATOM      8  C   UNL     1       0.844   9.800  21.652  0.00  0.00    +0.000 C 
ATOM      9  O   UNL     1       1.682   9.428  22.470  0.00  0.00    +0.000 OA
ATOM     10  H   UNL     1       0.108   9.798  19.714  0.00  0.00    +0.000 HD
BRANCH   8  11
ATOM     11  C   UNL     1      -0.129  10.839  22.095  0.00  0.00    +0.000 A 
ATOM     12  C   UNL     1       0.001  12.113  21.518  0.00  0.00    +0.000 A 
ATOM     13  C   UNL     1      -0.854  13.155  21.881  0.00  0.00    +0.000 A 
ATOM     14  C   UNL     1      -1.860  12.935  22.828  0.00  0.00    +0.000 A 
ATOM     15  C   UNL     1      -2.779  14.055  23.229  0.00  0.00    +0.000 C 
ATOM     16  C   UNL     1      -2.007  11.662  23.386  0.00  0.00    +0.000 A 
ATOM     17  C   UNL     1      -1.148  10.614  23.024  0.00  0.00    +0.000 A 
ENDBRANCH   8  11
ENDBRANCH   4   7
BRANCH   6  18
ATOM     18  C   UNL     1       1.912   4.613  20.717  0.00  0.00    +0.000 C 
ATOM     19  O   UNL     1       2.767   4.167  21.465  0.00  0.00    +0.000 OA
BRANCH  18  20
ATOM     20  O   UNL     1       0.689   4.065  20.581  0.00  0.00    +0.000 OA
ATOM     21  H   UNL     1       0.571   3.293  21.188  0.00  0.00    +0.000 HD
ENDBRANCH  18  20
ENDBRANCH   6  18
BRANCH   1  22
ATOM     22  N   UNL     1       3.303   4.776  18.077  0.00  0.00    +0.000 N 
BRANCH  22  24
ATOM     23  C   UNL     1       2.556   2.371  17.786  0.00  0.00    +0.000 C 
ATOM     24  C   UNL     1       2.259   3.848  17.545  0.00  0.00    +0.000 C 
ENDBRANCH  22  24
BRANCH  22  25
ATOM     25  C   UNL     1       4.330   5.148  17.043  0.00  0.00    +0.000 C 
BRANCH  25  26
ATOM     26  C   UNL     1       5.590   5.703  17.693  0.00  0.00    +0.000 A 
ATOM     27  C   UNL     1       6.313   6.763  17.125  0.00  0.00    +0.000 A 
ATOM     28  C   UNL     1       7.541   7.165  17.660  0.00  0.00    +0.000 A 
ATOM     29  C   UNL     1       8.046   6.541  18.796  0.00  0.00    +0.000 A 
ATOM     30  C   UNL     1       7.305   5.541  19.419  0.00  0.00    +0.000 A 
ATOM     31  C   UNL     1       6.084   5.130  18.877  0.00  0.00    +0.000 A 
ENDBRANCH  25  26
ENDBRANCH  22  25
ENDBRANCH   1  22
TORSDOF 8
ENDMDL
MODEL 2
REMARK VINA RESULT:      -8.1      0.443      1.310
REMARK  Name = 
REMARK  10 active torsions:
REMARK  status: ('A' for Active; 'I' for Inactive)
REMARK    1  A    between atoms: C_1  and  C_2
REMARK    2  A    between atoms: C_2  and  N_3
REMARK    3  A    between atoms: N_3  and  C_4
REMARK    4  A    between atoms: N_3  and  C_11
REMARK    5  A    between atoms: C_4  and  C_5
REMARK    6  A    between atoms: C_14  and  N_15
REMARK    7  A    between atoms: C_16  and  C_18
REMARK    8  A    between atoms: C_21  and  C_22
REMARK    9  A    between atoms: C_26  and  C_27
REMARK   10  A    between atoms: C_27  and  O_29
REMARK                            x       y       z     vdW  Elec       q    Type
REMARK                         _______ _______ _______ _____ _____    ______ ____
ROOT
ATOM      1  C   UNL     1       2.968   6.137  18.562  0.00  0.00    +0.000 A 
ATOM      2  C   UNL     1       3.019   7.390  17.929  0.00  0.00    +0.000 A 
ATOM      3  C   UNL     1       2.285   8.483  18.398  0.00  0.00    +0.000 A 
ATOM      4  C   UNL     1       1.516   8.393  19.553  0.00  0.00    +0.000 A 
ATOM      5  C   UNL     1       1.547   7.195  20.272  0.00  0.00    +0.000 A 
ATOM      6  C   UNL     1       2.240   6.069  19.772  0.00  0.00    +0.000 A 
ENDROOT
BRANCH   4   7
ATOM      7  N   UNL     1       0.719   9.461  20.031  0.00  0.00    +0.000 N 
ATOM      8  C   UNL     1       0.676   9.897  21.350  0.00  0.00    +0.000 C 
ATOM      9  O   UNL     1       1.410   9.498  22.252  0.00  0.00    +0.000 OA
ATOM     10  H   UNL     1       0.180   9.961  19.338  0.00  0.00    +0.000 HD
BRANCH   8  11
ATOM     11  C   UNL     1      -0.348  10.921  21.707  0.00  0.00    +0.000 A 
ATOM     12  C   UNL     1      -0.985  10.770  22.949  0.00  0.00    +0.000 A 
ATOM     13  C   UNL     1      -1.968  11.670  23.364  0.00  0.00    +0.000 A 
ATOM     14  C   UNL     1      -2.327  12.742  22.539  0.00  0.00    +0.000 A 
ATOM     15  C   UNL     1      -3.390  13.710  22.977  0.00  0.00    +0.000 C 
ATOM     16  C   UNL     1      -1.678  12.908  21.313  0.00  0.00    +0.000 A 
ATOM     17  C   UNL     1      -0.690  12.005  20.894  0.00  0.00    +0.000 A 
ENDBRANCH   8  11
ENDBRANCH   4   7
BRANCH   6  18
ATOM     18  C   UNL     1       2.077   4.818  20.561  0.00  0.00    +0.000 C 
ATOM     19  O   UNL     1       2.975   4.345  21.238  0.00  0.00    +0.000 OA
BRANCH  18  20
ATOM     20  O   UNL     1       0.828   4.313  20.534  0.00  0.00    +0.000 OA
ATOM     21  H   UNL     1       0.312   4.586  21.332  0.00  0.00    +0.000 HD
ENDBRANCH  18  20
ENDBRANCH   6  18
BRANCH   1  22
ATOM     22  N   UNL     1       3.564   4.975  17.974  0.00  0.00    +0.000 N 
BRANCH  22  24
ATOM     23  C   UNL     1       2.987   2.511  17.812  0.00  0.00    +0.000 C 
ATOM     24  C   UNL     1       2.581   3.950  17.508  0.00  0.00    +0.000 C 
ENDBRANCH  22  24
BRANCH  22  25
ATOM     25  C   UNL     1       4.548   5.362  16.904  0.00  0.00    +0.000 C 
BRANCH  25  26
ATOM     26  C   UNL     1       5.867   5.824  17.511  0.00  0.00    +0.000 A 
ATOM     27  C   UNL     1       6.459   5.156  18.593  0.00  0.00    +0.000 A 
ATOM     28  C   UNL     1       7.594   5.675  19.226  0.00  0.00    +0.000 A 
ATOM     29  C   UNL     1       8.178   6.848  18.759  0.00  0.00    +0.000 A 
ATOM     30  C   UNL     1       7.651   7.481  17.636  0.00  0.00    +0.000 A 
ATOM     31  C   UNL     1       6.510   6.970  17.013  0.00  0.00    +0.000 A 
ENDBRANCH  25  26
ENDBRANCH  22  25
ENDBRANCH   1  22
TORSDOF 8
ENDMDL
MODEL 3
REMARK VINA RESULT:      -8.0      1.275      1.790
REMARK  Name = 
REMARK  10 active torsions:
REMARK  status: ('A' for Active; 'I' for Inactive)
REMARK    1  A    between atoms: C_1  and  C_2
REMARK    2  A    between atoms: C_2  and  N_3
REMARK    3  A    between atoms: N_3  and  C_4
REMARK    4  A    between atoms: N_3  and  C_11
REMARK    5  A    between atoms: C_4  and  C_5
REMARK    6  A    between atoms: C_14  and  N_15
REMARK    7  A    between atoms: C_16  and  C_18
REMARK    8  A    between atoms: C_21  and  C_22
REMARK    9  A    between atoms: C_26  and  C_27
REMARK   10  A    between atoms: C_27  and  O_29
REMARK                            x       y       z     vdW  Elec       q    Type
REMARK                         _______ _______ _______ _____ _____    ______ ____
ROOT
ATOM      1  C   UNL     1       2.960   5.441  19.252  0.00  0.00    +0.000 A 
ATOM      2  C   UNL     1       3.162   6.708  18.680  0.00  0.00    +0.000 A 
ATOM      3  C   UNL     1       2.395   7.815  19.052  0.00  0.00    +0.000 A 
ATOM      4  C   UNL     1       1.435   7.723  20.055  0.00  0.00    +0.000 A 
ATOM      5  C   UNL     1       1.301   6.506  20.727  0.00  0.00    +0.000 A 
ATOM      6  C   UNL     1       2.031   5.368  20.316  0.00  0.00    +0.000 A 
ENDROOT
BRANCH   4   7
ATOM      7  N   UNL     1       0.604   8.808  20.423  0.00  0.00    +0.000 N 
ATOM      8  C   UNL     1       0.713   9.531  21.606  0.00  0.00    +0.000 C 
ATOM      9  O   UNL     1       1.616   9.407  22.430  0.00  0.00    +0.000 OA
ATOM     10  H   UNL     1      -0.087   9.093  19.744  0.00  0.00    +0.000 HD
BRANCH   8  11
ATOM     11  C   UNL     1      -0.355  10.528  21.907  0.00  0.00    +0.000 A 
ATOM     12  C   UNL     1      -0.730  11.387  20.862  0.00  0.00    +0.000 A 
ATOM     13  C   UNL     1      -1.709  12.363  21.052  0.00  0.00    +0.000 A 
ATOM     14  C   UNL     1      -2.335  12.490  22.297  0.00  0.00    +0.000 A 
ATOM     15  C   UNL     1      -3.385  13.544  22.512  0.00  0.00    +0.000 C 
ATOM     16  C   UNL     1      -1.981  11.621  23.332  0.00  0.00    +0.000 A 
ATOM     17  C   UNL     1      -0.996  10.641  23.144  0.00  0.00    +0.000 A 
ENDBRANCH   8  11
ENDBRANCH   4   7
BRANCH   6  18
ATOM     18  C   UNL     1       1.692   4.102  21.022  0.00  0.00    +0.000 C 
ATOM     19  O   UNL     1       2.297   3.718  22.010  0.00  0.00    +0.000 OA
BRANCH  18  20
ATOM     20  O   UNL     1       0.606   3.476  20.530  0.00  0.00    +0.000 OA
ATOM     21  H   UNL     1       0.004   3.177  21.255  0.00  0.00    +0.000 HD
ENDBRANCH  18  20
ENDBRANCH   6  18
BRANCH   1  22
ATOM     22  N   UNL     1       3.610   4.273  18.736  0.00  0.00    +0.000 N 
BRANCH  22  24
ATOM     23  C   UNL     1       2.532   2.237  17.675  0.00  0.00    +0.000 C 
ATOM     24  C   UNL     1       2.959   3.695  17.521  0.00  0.00    +0.000 C 
ENDBRANCH  22  24
BRANCH  22  25
ATOM     25  C   UNL     1       5.081   4.521  18.543  0.00  0.00    +0.000 C 
BRANCH  25  26
ATOM     26  C   UNL     1       5.421   4.698  17.070  0.00  0.00    +0.000 A 
ATOM     27  C   UNL     1       5.190   5.906  16.395  0.00  0.00    +0.000 A 
ATOM     28  C   UNL     1       5.376   6.006  15.012  0.00  0.00    +0.000 A 
ATOM     29  C   UNL     1       5.837   4.910  14.289  0.00  0.00    +0.000 A 
ATOM     30  C   UNL     1       6.147   3.727  14.954  0.00  0.00    +0.000 A 
ATOM     31  C   UNL     1       5.947   3.623  16.333  0.00  0.00    +0.000 A 
ENDBRANCH  25  26
ENDBRANCH  22  25
ENDBRANCH   1  22
TORSDOF 8
ENDMDL
MODEL 4
REMARK VINA RESULT:      -8.0      1.085      1.119
REMARK  Name = 
REMARK  10 active torsions:
REMARK  status: ('A' for Active; 'I' for Inactive)
REMARK    1  A    between atoms: C_1  and  C_2
REMARK    2  A    between atoms: C_2  and  N_3
REMARK    3  A    between atoms: N_3  and  C_4
REMARK    4  A    between atoms: N_3  and  C_11
REMARK    5  A    between atoms: C_4  and  C_5
REMARK    6  A    between atoms: C_14  and  N_15
REMARK    7  A    between atoms: C_16  and  C_18
REMARK    8  A    between atoms: C_21  and  C_22
REMARK    9  A    between atoms: C_26  and  C_27
REMARK   10  A    between atoms: C_27  and  O_29
REMARK                            x       y       z     vdW  Elec       q    Type
REMARK                         _______ _______ _______ _____ _____    ______ ____
ROOT
ATOM      1  C   UNL     1       2.648   6.011  18.809  0.00  0.00    +0.000 A 
ATOM      2  C   UNL     1       2.688   7.319  18.297  0.00  0.00    +0.000 A 
ATOM      3  C   UNL     1       2.017   8.375  18.920  0.00  0.00    +0.000 A 
ATOM      4  C   UNL     1       1.328   8.187  20.113  0.00  0.00    +0.000 A 
ATOM      5  C   UNL     1       1.378   6.925  20.709  0.00  0.00    +0.000 A 
ATOM      6  C   UNL     1       2.004   5.839  20.056  0.00  0.00    +0.000 A 
ENDROOT
BRANCH   4   7
ATOM      7  N   UNL     1       0.595   9.219  20.747  0.00  0.00    +0.000 N 
ATOM      8  C   UNL     1      -0.262  10.102  20.100  0.00  0.00    +0.000 C 
ATOM      9  O   UNL     1      -0.591  10.031  18.918  0.00  0.00    +0.000 OA
ATOM     10  H   UNL     1       0.677   9.274  21.752  0.00  0.00    +0.000 HD
BRANCH   8  11
ATOM     11  C   UNL     1      -0.819  11.234  20.896  0.00  0.00    +0.000 A 
ATOM     12  C   UNL     1      -1.617  12.160  20.204  0.00  0.00    +0.000 A 
ATOM     13  C   UNL     1      -2.169  13.261  20.861  0.00  0.00    +0.000 A 
ATOM     14  C   UNL     1      -1.934  13.449  22.227  0.00  0.00    +0.000 A 
ATOM     15  C   UNL     1      -2.519  14.637  22.938  0.00  0.00    +0.000 C 
ATOM     16  C   UNL     1      -1.160  12.517  22.923  0.00  0.00    +0.000 A 
ATOM     17  C   UNL     1      -0.603  11.410  22.265  0.00  0.00    +0.000 A 
ENDBRANCH   8  11
ENDBRANCH   4   7
BRANCH   6  18
ATOM     18  C   UNL     1       1.863   4.520  20.730  0.00  0.00    +0.000 C 
ATOM     19  O   UNL     1       2.735   4.049  21.442  0.00  0.00    +0.000 OA
BRANCH  18  20
ATOM     20  O   UNL     1       0.656   3.945  20.559  0.00  0.00    +0.000 OA
ATOM     21  H   UNL     1       0.669   2.994  20.830  0.00  0.00    +0.000 HD
ENDBRANCH  18  20
ENDBRANCH   6  18
BRANCH   1  22
ATOM     22  N   UNL     1       3.171   4.900  18.070  0.00  0.00    +0.000 N 
BRANCH  22  24
ATOM     23  C   UNL     1       2.411   2.511  17.689  0.00  0.00    +0.000 C 
ATOM     24  C   UNL     1       2.126   3.999  17.497  0.00  0.00    +0.000 C 
ENDBRANCH  22  24
BRANCH  22  25
ATOM     25  C   UNL     1       4.165   5.364  17.041  0.00  0.00    +0.000 C 
BRANCH  25  26
ATOM     26  C   UNL     1       5.464   5.816  17.695  0.00  0.00    +0.000 A 
ATOM     27  C   UNL     1       6.274   6.810  17.126  0.00  0.00    +0.000 A 
ATOM     28  C   UNL     1       7.529   7.111  17.664  0.00  0.00    +0.000 A 
ATOM     29  C   UNL     1       7.976   6.452  18.805  0.00  0.00    +0.000 A 
ATOM     30  C   UNL     1       7.152   5.520  19.429  0.00  0.00    +0.000 A 
ATOM     31  C   UNL     1       5.905   5.209  18.883  0.00  0.00    +0.000 A 
ENDBRANCH  25  26
ENDBRANCH  22  25
ENDBRANCH   1  22
TORSDOF 8
ENDMDL
MODEL 5
REMARK VINA RESULT:      -8.0      1.021      1.421
REMARK  Name = 
REMARK  10 active torsions:
REMARK  status: ('A' for Active; 'I' for Inactive)
REMARK    1  A    between atoms: C_1  and  C_2
REMARK    2  A    between atoms: C_2  and  N_3
REMARK    3  A    between atoms: N_3  and  C_4
REMARK    4  A    between atoms: N_3  and  C_11
REMARK    5  A    between atoms: C_4  and  C_5
REMARK    6  A    between atoms: C_14  and  N_15
REMARK    7  A    between atoms: C_16  and  C_18
REMARK    8  A    between atoms: C_21  and  C_22
REMARK    9  A    between atoms: C_26  and  C_27
REMARK   10  A    between atoms: C_27  and  O_29
REMARK                            x       y       z     vdW  Elec       q    Type
REMARK                         _______ _______ _______ _____ _____    ______ ____
ROOT
ATOM      1  C   UNL     1       3.132   5.001  19.487  0.00  0.00    +0.000 A 
ATOM      2  C   UNL     1       3.375   6.246  18.883  0.00  0.00    +0.000 A 
ATOM      3  C   UNL     1       2.621   7.379  19.201  0.00  0.00    +0.000 A 
ATOM      4  C   UNL     1       1.634   7.336  20.179  0.00  0.00    +0.000 A 
ATOM      5  C   UNL     1       1.458   6.143  20.884  0.00  0.00    +0.000 A 
ATOM      6  C   UNL     1       2.175   4.979  20.527  0.00  0.00    +0.000 A 
ENDROOT
BRANCH   4   7
ATOM      7  N   UNL     1       0.815   8.448  20.493  0.00  0.00    +0.000 N 
ATOM      8  C   UNL     1       0.931   9.226  21.639  0.00  0.00    +0.000 C 
ATOM      9  O   UNL     1       1.832   9.132  22.471  0.00  0.00    +0.000 OA
ATOM     10  H   UNL     1       0.129   8.708  19.799  0.00  0.00    +0.000 HD
BRANCH   8  11
ATOM     11  C   UNL     1      -0.124  10.250  21.890  0.00  0.00    +0.000 A 
ATOM     12  C   UNL     1      -0.480  11.068  20.805  0.00  0.00    +0.000 A 
ATOM     13  C   UNL     1      -1.447  12.065  20.947  0.00  0.00    +0.000 A 
ATOM     14  C   UNL     1      -2.080  12.254  22.180  0.00  0.00    +0.000 A 
ATOM     15  C   UNL     1      -3.117  13.330  22.341  0.00  0.00    +0.000 C 
ATOM     16  C   UNL     1      -1.745  11.425  23.254  0.00  0.00    +0.000 A 
ATOM     17  C   UNL     1      -0.773  10.424  23.115  0.00  0.00    +0.000 A 
ENDBRANCH   8  11
ENDBRANCH   4   7
BRANCH   6  18
ATOM     18  C   UNL     1       1.792   3.742  21.261  0.00  0.00    +0.000 C 
ATOM     19  O   UNL     1       2.393   3.351  22.248  0.00  0.00    +0.000 OA
BRANCH  18  20
ATOM     20  O   UNL     1       0.673   3.154  20.795  0.00  0.00    +0.000 OA
ATOM     21  H   UNL     1      -0.135   3.663  21.052  0.00  0.00    +0.000 HD
ENDBRANCH  18  20
ENDBRANCH   6  18
BRANCH   1  22
ATOM     22  N   UNL     1       3.772   3.805  19.023  0.00  0.00    +0.000 N 
BRANCH  22  24
ATOM     23  C   UNL     1       2.154   3.237  17.155  0.00  0.00    +0.000 C 
ATOM     24  C   UNL     1       3.593   3.541  17.563  0.00  0.00    +0.000 C 
ENDBRANCH  22  24
BRANCH  22  25
ATOM     25  C   UNL     1       5.215   3.773  19.446  0.00  0.00    +0.000 C 
BRANCH  25  26
ATOM     26  C   UNL     1       6.065   4.686  18.573  0.00  0.00    +0.000 A 
ATOM     27  C   UNL     1       6.884   5.685  19.121  0.00  0.00    +0.000 A 
ATOM     28  C   UNL     1       7.546   6.604  18.300  0.00  0.00    +0.000 A 
ATOM     29  C   UNL     1       7.434   6.511  16.917  0.00  0.00    +0.000 A 
ATOM     30  C   UNL     1       6.690   5.478  16.354  0.00  0.00    +0.000 A 
ATOM     31  C   UNL     1       6.017   4.570  17.174  0.00  0.00    +0.000 A 
ENDBRANCH  25  26
ENDBRANCH  22  25
ENDBRANCH   1  22
TORSDOF 8
ENDMDL
MODEL 6
REMARK VINA RESULT:      -7.9      1.557      2.261
REMARK  Name = 
REMARK  10 active torsions:
REMARK  status: ('A' for Active; 'I' for Inactive)
REMARK    1  A    between atoms: C_1  and  C_2
REMARK    2  A    between atoms: C_2  and  N_3
REMARK    3  A    between atoms: N_3  and  C_4
REMARK    4  A    between atoms: N_3  and  C_11
REMARK    5  A    between atoms: C_4  and  C_5
REMARK    6  A    between atoms: C_14  and  N_15
REMARK    7  A    between atoms: C_16  and  C_18
REMARK    8  A    between atoms: C_21  and  C_22
REMARK    9  A    between atoms: C_26  and  C_27
REMARK   10  A    between atoms: C_27  and  O_29
REMARK                            x       y       z     vdW  Elec       q    Type
REMARK                         _______ _______ _______ _____ _____    ______ ____
ROOT
ATOM      1  C   UNL     1       3.002   5.086  19.516  0.00  0.00    +0.000 A 
ATOM      2  C   UNL     1       3.176   6.402  19.053  0.00  0.00    +0.000 A 
ATOM      3  C   UNL     1       2.418   7.464  19.550  0.00  0.00    +0.000 A 
ATOM      4  C   UNL     1       1.497   7.275  20.575  0.00  0.00    +0.000 A 
ATOM      5  C   UNL     1       1.394   6.002  21.141  0.00  0.00    +0.000 A 
ATOM      6  C   UNL     1       2.114   4.911  20.603  0.00  0.00    +0.000 A 
ENDROOT
BRANCH   4   7
ATOM      7  N   UNL     1       0.674   8.316  21.070  0.00  0.00    +0.000 N 
ATOM      8  C   UNL     1       0.333   9.466  20.368  0.00  0.00    +0.000 C 
ATOM      9  O   UNL     1       0.597   9.678  19.186  0.00  0.00    +0.000 OA
ATOM     10  H   UNL     1       0.277   8.174  21.989  0.00  0.00    +0.000 HD
BRANCH   8  11
ATOM     11  C   UNL     1      -0.400  10.535  21.106  0.00  0.00    +0.000 A 
ATOM     12  C   UNL     1      -0.665  10.295  22.465  0.00  0.00    +0.000 A 
ATOM     13  C   UNL     1      -1.359  11.231  23.235  0.00  0.00    +0.000 A 
ATOM     14  C   UNL     1      -1.795  12.427  22.655  0.00  0.00    +0.000 A 
ATOM     15  C   UNL     1      -2.550  13.434  23.477  0.00  0.00    +0.000 C 
ATOM     16  C   UNL     1      -1.512  12.678  21.310  0.00  0.00    +0.000 A 
ATOM     17  C   UNL     1      -0.817  11.739  20.534  0.00  0.00    +0.000 A 
ENDBRANCH   8  11
ENDBRANCH   4   7
BRANCH   6  18
ATOM     18  C   UNL     1       1.808   3.585  21.205  0.00  0.00    +0.000 C 
ATOM     19  O   UNL     1       2.503   3.081  22.073  0.00  0.00    +0.000 OA
BRANCH  18  20
ATOM     20  O   UNL     1       0.653   3.043  20.774  0.00  0.00    +0.000 OA
ATOM     21  H   UNL     1       0.245   2.467  21.467  0.00  0.00    +0.000 HD
ENDBRANCH  18  20
ENDBRANCH   6  18
BRANCH   1  22
ATOM     22  N   UNL     1       3.638   3.975  18.874  0.00  0.00    +0.000 N 
BRANCH  22  24
ATOM     23  C   UNL     1       2.416   2.020  17.818  0.00  0.00    +0.000 C 
ATOM     24  C   UNL     1       2.907   3.458  17.677  0.00  0.00    +0.000 C 
ENDBRANCH  22  24
BRANCH  22  25
ATOM     25  C   UNL     1       5.082   4.279  18.585  0.00  0.00    +0.000 C 
BRANCH  25  26
ATOM     26  C   UNL     1       5.306   4.530  17.100  0.00  0.00    +0.000 A 
ATOM     27  C   UNL     1       5.778   3.526  16.241  0.00  0.00    +0.000 A 
ATOM     28  C   UNL     1       6.111   3.813  14.913  0.00  0.00    +0.000 A 
ATOM     29  C   UNL     1       5.936   5.098  14.412  0.00  0.00    +0.000 A 
ATOM     30  C   UNL     1       5.393   6.088  15.226  0.00  0.00    +0.000 A 
ATOM     31  C   UNL     1       5.074   5.805  16.557  0.00  0.00    +0.000 A 
ENDBRANCH  25  26
ENDBRANCH  22  25
ENDBRANCH   1  22
TORSDOF 8
ENDMDL
MODEL 7
REMARK VINA RESULT:      -7.9      0.735      1.156
REMARK  Name = 
REMARK  10 active torsions:
REMARK  status: ('A' for Active; 'I' for Inactive)
REMARK    1  A    between atoms: C_1  and  C_2
REMARK    2  A    between atoms: C_2  and  N_3
REMARK    3  A    between atoms: N_3  and  C_4
REMARK    4  A    between atoms: N_3  and  C_11
REMARK    5  A    between atoms: C_4  and  C_5
REMARK    6  A    between atoms: C_14  and  N_15
REMARK    7  A    between atoms: C_16  and  C_18
REMARK    8  A    between atoms: C_21  and  C_22
REMARK    9  A    between atoms: C_26  and  C_27
REMARK   10  A    between atoms: C_27  and  O_29
REMARK                            x       y       z     vdW  Elec       q    Type
REMARK                         _______ _______ _______ _____ _____    ______ ____
ROOT
ATOM      1  C   UNL     1       2.743   5.965  18.709  0.00  0.00    +0.000 A 
ATOM      2  C   UNL     1       2.862   7.223  18.094  0.00  0.00    +0.000 A 
ATOM      3  C   UNL     1       2.275   8.368  18.640  0.00  0.00    +0.000 A 
ATOM      4  C   UNL     1       1.598   8.322  19.854  0.00  0.00    +0.000 A 
ATOM      5  C   UNL     1       1.574   7.110  20.548  0.00  0.00    +0.000 A 
ATOM      6  C   UNL     1       2.113   5.936  19.974  0.00  0.00    +0.000 A 
ENDROOT
BRANCH   4   7
ATOM      7  N   UNL     1       0.947   9.448  20.413  0.00  0.00    +0.000 N 
ATOM      8  C   UNL     1      -0.129   9.393  21.292  0.00  0.00    +0.000 C 
ATOM      9  O   UNL     1      -0.580   8.366  21.795  0.00  0.00    +0.000 OA
ATOM     10  H   UNL     1       1.336  10.351  20.180  0.00  0.00    +0.000 HD
BRANCH   8  11
ATOM     11  C   UNL     1      -0.799  10.678  21.646  0.00  0.00    +0.000 A 
ATOM     12  C   UNL     1      -1.068  11.561  20.587  0.00  0.00    +0.000 A 
ATOM     13  C   UNL     1      -1.679  12.795  20.821  0.00  0.00    +0.000 A 
ATOM     14  C   UNL     1      -2.035  13.161  22.123  0.00  0.00    +0.000 A 
ATOM     15  C   UNL     1      -2.686  14.491  22.383  0.00  0.00    +0.000 C 
ATOM     16  C   UNL     1      -1.790  12.275  23.175  0.00  0.00    +0.000 A 
ATOM     17  C   UNL     1      -1.176  11.036  22.943  0.00  0.00    +0.000 A 
ENDBRANCH   8  11
ENDBRANCH   4   7
BRANCH   6  18
ATOM     18  C   UNL     1       1.897   4.687  20.753  0.00  0.00    +0.000 C 
ATOM     19  O   UNL     1       2.733   4.238  21.520  0.00  0.00    +0.000 OA
BRANCH  18  20
ATOM     20  O   UNL     1       0.667   4.157  20.606  0.00  0.00    +0.000 OA
ATOM     21  H   UNL     1       0.693   3.169  20.655  0.00  0.00    +0.000 HD
ENDBRANCH  18  20
ENDBRANCH   6  18
BRANCH   1  22
ATOM     22  N   UNL     1       3.177   4.767  18.054  0.00  0.00    +0.000 N 
BRANCH  22  24
ATOM     23  C   UNL     1       2.335   2.398  17.722  0.00  0.00    +0.000 C 
ATOM     24  C   UNL     1       2.063   3.893  17.575  0.00  0.00    +0.000 C 
ENDBRANCH  22  24
BRANCH  22  25
ATOM     25  C   UNL     1       4.175   5.080  16.973  0.00  0.00    +0.000 C 
BRANCH  25  26
ATOM     26  C   UNL     1       5.511   5.508  17.564  0.00  0.00    +0.000 A 
ATOM     27  C   UNL     1       5.996   4.974  18.767  0.00  0.00    +0.000 A 
ATOM     28  C   UNL     1       7.154   5.480  19.365  0.00  0.00    +0.000 A 
ATOM     29  C   UNL     1       7.868   6.502  18.748  0.00  0.00    +0.000 A 
ATOM     30  C   UNL     1       7.446   6.990  17.515  0.00  0.00    +0.000 A 
ATOM     31  C   UNL     1       6.282   6.494  16.924  0.00  0.00    +0.000 A 
ENDBRANCH  25  26
ENDBRANCH  22  25
ENDBRANCH   1  22
TORSDOF 8
ENDMDL
MODEL 8
REMARK VINA RESULT:      -7.9      1.987      2.883
REMARK  Name = 
REMARK  10 active torsions:
REMARK  status: ('A' for Active; 'I' for Inactive)
REMARK    1  A    between atoms: C_1  and  C_2
REMARK    2  A    between atoms: C_2  and  N_3
REMARK    3  A    between atoms: N_3  and  C_4
REMARK    4  A    between atoms: N_3  and  C_11
REMARK    5  A    between atoms: C_4  and  C_5
REMARK    6  A    between atoms: C_14  and  N_15
REMARK    7  A    between atoms: C_16  and  C_18
REMARK    8  A    between atoms: C_21  and  C_22
REMARK    9  A    between atoms: C_26  and  C_27
REMARK   10  A    between atoms: C_27  and  O_29
REMARK                            x       y       z     vdW  Elec       q    Type
REMARK                         _______ _______ _______ _____ _____    ______ ____
ROOT
ATOM      1  C   UNL     1       4.627   5.032  17.101  0.00  0.00    +0.000 A 
ATOM      2  C   UNL     1       4.424   6.406  16.884  0.00  0.00    +0.000 A 
ATOM      3  C   UNL     1       3.600   7.169  17.715  0.00  0.00    +0.000 A 
ATOM      4  C   UNL     1       2.991   6.612  18.835  0.00  0.00    +0.000 A 
ATOM      5  C   UNL     1       3.277   5.280  19.144  0.00  0.00    +0.000 A 
ATOM      6  C   UNL     1       4.061   4.487  18.276  0.00  0.00    +0.000 A 
ENDROOT
BRANCH   4   7
ATOM      7  N   UNL     1       2.109   7.338  19.671  0.00  0.00    +0.000 N 
ATOM      8  C   UNL     1       1.459   8.514  19.315  0.00  0.00    +0.000 C 
ATOM      9  O   UNL     1       1.466   9.014  18.192  0.00  0.00    +0.000 OA
ATOM     10  H   UNL     1       1.914   6.932  20.575  0.00  0.00    +0.000 HD
BRANCH   8  11
ATOM     11  C   UNL     1       0.703   9.236  20.379  0.00  0.00    +0.000 A 
ATOM     12  C   UNL     1       0.030  10.406  19.991  0.00  0.00    +0.000 A 
ATOM     13  C   UNL     1      -0.692  11.158  20.920  0.00  0.00    +0.000 A 
ATOM     14  C   UNL     1      -0.754  10.745  22.256  0.00  0.00    +0.000 A 
ATOM     15  C   UNL     1      -1.523  11.555  23.262  0.00  0.00    +0.000 C 
ATOM     16  C   UNL     1      -0.105   9.569  22.638  0.00  0.00    +0.000 A 
ATOM     17  C   UNL     1       0.622   8.812  21.708  0.00  0.00    +0.000 A 
ENDBRANCH   8  11
ENDBRANCH   4   7
BRANCH   6  18
ATOM     18  C   UNL     1       4.172   3.050  18.648  0.00  0.00    +0.000 C 
ATOM     19  O   UNL     1       3.426   2.195  18.199  0.00  0.00    +0.000 OA
BRANCH  18  20
ATOM     20  O   UNL     1       5.222   2.772  19.445  0.00  0.00    +0.000 OA
ATOM     21  H   UNL     1       5.727   3.590  19.676  0.00  0.00    +0.000 HD
ENDBRANCH  18  20
ENDBRANCH   6  18
BRANCH   1  22
ATOM     22  N   UNL     1       5.312   4.215  16.144  0.00  0.00    +0.000 N 
BRANCH  22  24
ATOM     23  C   UNL     1       6.086   4.085  13.732  0.00  0.00    +0.000 C 
ATOM     24  C   UNL     1       5.028   4.570  14.720  0.00  0.00    +0.000 C 
ENDBRANCH  22  24
BRANCH  22  25
ATOM     25  C   UNL     1       6.785   4.161  16.445  0.00  0.00    +0.000 C 
BRANCH  25  26
ATOM     26  C   UNL     1       7.228   5.375  17.251  0.00  0.00    +0.000 A 
ATOM     27  C   UNL     1       7.303   6.655  16.683  0.00  0.00    +0.000 A 
ATOM     28  C   UNL     1       7.845   7.729  17.397  0.00  0.00    +0.000 A 
ATOM     29  C   UNL     1       8.281   7.548  18.705  0.00  0.00    +0.000 A 
ATOM     30  C   UNL     1       8.140   6.303  19.312  0.00  0.00    +0.000 A 
ATOM     31  C   UNL     1       7.612   5.227  18.595  0.00  0.00    +0.000 A 
ENDBRANCH  25  26
ENDBRANCH  22  25
ENDBRANCH   1  22
TORSDOF 8
ENDMDL
MODEL 9
REMARK VINA RESULT:      -7.8      2.130      9.670
REMARK  Name = 
REMARK  10 active torsions:
REMARK  status: ('A' for Active; 'I' for Inactive)
REMARK    1  A    between atoms: C_1  and  C_2
REMARK    2  A    between atoms: C_2  and  N_3
REMARK    3  A    between atoms: N_3  and  C_4
REMARK    4  A    between atoms: N_3  and  C_11
REMARK    5  A    between atoms: C_4  and  C_5
REMARK    6  A    between atoms: C_14  and  N_15
REMARK    7  A    between atoms: C_16  and  C_18
REMARK    8  A    between atoms: C_21  and  C_22
REMARK    9  A    between atoms: C_26  and  C_27
REMARK   10  A    between atoms: C_27  and  O_29
REMARK                            x       y       z     vdW  Elec       q    Type
REMARK                         _______ _______ _______ _____ _____    ______ ____
ROOT
ATOM      1  C   UNL     1      -0.247  10.991  20.639  0.00  0.00    +0.000 A 
ATOM      2  C   UNL     1      -0.140  11.145  19.246  0.00  0.00    +0.000 A 
ATOM      3  C   UNL     1       0.590  10.250  18.460  0.00  0.00    +0.000 A 
ATOM      4  C   UNL     1       1.194   9.127  19.017  0.00  0.00    +0.000 A 
ATOM      5  C   UNL     1       0.998   8.883  20.378  0.00  0.00    +0.000 A 
ATOM      6  C   UNL     1       0.311   9.814  21.190  0.00  0.00    +0.000 A 
ENDROOT
BRANCH   4   7
ATOM      7  N   UNL     1       1.984   8.226  18.263  0.00  0.00    +0.000 N 
ATOM      8  C   UNL     1       2.540   7.050  18.753  0.00  0.00    +0.000 C 
ATOM      9  O   UNL     1       2.323   6.574  19.865  0.00  0.00    +0.000 OA
ATOM     10  H   UNL     1       2.105   8.448  17.285  0.00  0.00    +0.000 HD
BRANCH   8  11
ATOM     11  C   UNL     1       3.486   6.311  17.867  0.00  0.00    +0.000 A 
ATOM     12  C   UNL     1       3.297   4.924  17.760  0.00  0.00    +0.000 A 
ATOM     13  C   UNL     1       4.141   4.145  16.966  0.00  0.00    +0.000 A 
ATOM     14  C   UNL     1       5.189   4.747  16.262  0.00  0.00    +0.000 A 
ATOM     15  C   UNL     1       6.106   3.913  15.412  0.00  0.00    +0.000 C 
ATOM     16  C   UNL     1       5.364   6.131  16.348  0.00  0.00    +0.000 A 
ATOM     17  C   UNL     1       4.518   6.915  17.145  0.00  0.00    +0.000 A 
ENDBRANCH   8  11
ENDBRANCH   4   7
BRANCH   6  18
ATOM     18  C   UNL     1       0.295   9.503  22.645  0.00  0.00    +0.000 C 
ATOM     19  O   UNL     1       1.278   9.634  23.357  0.00  0.00    +0.000 OA
BRANCH  18  20
ATOM     20  O   UNL     1      -0.919   9.159  23.117  0.00  0.00    +0.000 OA
ATOM     21  H   UNL     1      -1.575   9.888  22.991  0.00  0.00    +0.000 HD
ENDBRANCH  18  20
ENDBRANCH   6  18
BRANCH   1  22
ATOM     22  N   UNL     1      -0.829  12.008  21.464  0.00  0.00    +0.000 N 
BRANCH  22  24
ATOM     23  C   UNL     1      -0.159  14.398  20.945  0.00  0.00    +0.000 C 
ATOM     24  C   UNL     1       0.091  13.143  21.778  0.00  0.00    +0.000 C 
ENDBRANCH  22  24
BRANCH  22  25
ATOM     25  C   UNL     1      -2.145  12.467  20.897  0.00  0.00    +0.000 C 
BRANCH  25  26
ATOM     26  C   UNL     1      -3.215  12.539  21.978  0.00  0.00    +0.000 A 
ATOM     27  C   UNL     1      -4.520  12.972  21.702  0.00  0.00    +0.000 A 
ATOM     28  C   UNL     1      -5.447  13.166  22.731  0.00  0.00    +0.000 A 
ATOM     29  C   UNL     1      -5.096  12.888  24.048  0.00  0.00    +0.000 A 
ATOM     30  C   UNL     1      -3.831  12.382  24.331  0.00  0.00    +0.000 A 
ATOM     31  C   UNL     1      -2.900  12.202  23.306  0.00  0.00    +0.000 A 
ENDBRANCH  25  26
ENDBRANCH  22  25
ENDBRANCH   1  22
TORSDOF 8
ENDMDL
