MODEL 1
REMARK VINA RESULT:      -9.0      0.000      0.000
REMARK  Name = 
REMARK  3 active torsions:
REMARK  status: ('A' for Active; 'I' for Inactive)
REMARK    1  A    between atoms: C_1  and  C_2
REMARK    2  A    between atoms: C_7  and  C_8
REMARK    3  A    between atoms: C_13  and  C_15
REMARK                            x       y       z     vdW  Elec       q    Type
REMARK                         _______ _______ _______ _____ _____    ______ ____
ROOT
ATOM      1  C   UNL     1       2.220   5.991  19.677  0.00  0.00    +0.000 C 
ATOM      2  C   UNL     1       1.130   5.276  20.483  0.00  0.00    +0.000 C 
ATOM      3  C   UNL     1       1.740   3.997  21.070  0.00  0.00    +0.000 C 
ATOM      4  C   UNL     1       2.403   3.115  19.999  0.00  0.00    +0.000 C 
ATOM      5  N   UNL     1       3.248   3.872  19.064  0.00  0.00    +0.000 N 
ATOM      6  C   UNL     1       4.618   3.627  19.026  0.00  0.00    +0.000 C 
ATOM      7  O   UNL     1       5.190   2.915  19.848  0.00  0.00    +0.000 OA
ATOM      8  C   UNL     1       2.616   5.080  18.513  0.00  0.00    +0.000 C 
ENDROOT
BRANCH   6   9
ATOM      9  C   UNL     1       5.415   4.268  17.920  0.00  0.00    +0.000 A 
ATOM     10  C   UNL     1       5.465   3.638  16.733  0.00  0.00    +0.000 A 
ATOM     11  N   UNL     1       6.220   4.154  15.706  0.00  0.00    +0.000 N 
ATOM     12  C   UNL     1       6.979   5.303  15.798  0.00  0.00    +0.000 A 
ATOM     13  O   UNL     1       7.681   5.690  14.867  0.00  0.00    +0.000 OA
ATOM     14  C   UNL     1       6.877   6.033  17.100  0.00  0.00    +0.000 A 
ATOM     15 CL   UNL     1       7.786   7.474  17.321  0.00  0.00    +0.000 Cl
ATOM     16  C   UNL     1       6.081   5.551  18.065  0.00  0.00    +0.000 A 
ATOM     17  H   UNL     1       6.266   3.675  14.811  0.00  0.00    +0.000 HD
ENDBRANCH   6   9
BRANCH   1  24
ATOM     18  C   UNL     1       1.047   8.087  21.707  0.00  0.00    +0.000 C 
ATOM     19  C   UNL     1       1.410   8.398  20.281  0.00  0.00    +0.000 A 
ATOM     20  C   UNL     1       1.193   9.714  19.827  0.00  0.00    +0.000 A 
ATOM     21  C   UNL     1       1.474  10.091  18.513  0.00  0.00    +0.000 A 
ATOM     22  C   UNL     1       1.969   9.156  17.621  0.00  0.00    +0.000 A 
ATOM     23  C   UNL     1       2.190   7.853  18.050  0.00  0.00    +0.000 A 
ATOM     24  C   UNL     1       1.918   7.446  19.379  0.00  0.00    +0.000 A 
ENDBRANCH   1  24
TORSDOF 2
ENDMDL
MODEL 2
REMARK VINA RESULT:      -9.0      1.275      1.498
REMARK  Name = 
REMARK  3 active torsions:
REMARK  status: ('A' for Active; 'I' for Inactive)
REMARK    1  A    between atoms: C_1  and  C_2
REMARK    2  A    between atoms: C_7  and  C_8
REMARK    3  A    between atoms: C_13  and  C_15
REMARK                            x       y       z     vdW  Elec       q    Type
REMARK                         _______ _______ _______ _____ _____    ______ ____
ROOT
ATOM      1  C   UNL     1       2.328   5.863  19.691  0.00  0.00    +0.000 C 
ATOM      2  C   UNL     1       1.227   5.219  20.540  0.00  0.00    +0.000 C 
ATOM      3  C   UNL     1       1.808   3.956  21.187  0.00  0.00    +0.000 C 
ATOM      4  C   UNL     1       2.438   3.003  20.158  0.00  0.00    +0.000 C 
ATOM      5  N   UNL     1       3.295   3.690  19.180  0.00  0.00    +0.000 N 
ATOM      6  C   UNL     1       4.658   3.407  19.144  0.00  0.00    +0.000 C 
ATOM      7  O   UNL     1       5.218   2.723  19.998  0.00  0.00    +0.000 OA
ATOM      8  C   UNL     1       2.690   4.884  18.573  0.00  0.00    +0.000 C 
ENDROOT
BRANCH   6   9
ATOM      9  C   UNL     1       5.462   3.969  18.003  0.00  0.00    +0.000 A 
ATOM     10  C   UNL     1       6.548   4.705  18.300  0.00  0.00    +0.000 A 
ATOM     11  N   UNL     1       7.289   5.284  17.296  0.00  0.00    +0.000 N 
ATOM     12  C   UNL     1       6.991   5.186  15.952  0.00  0.00    +0.000 A 
ATOM     13  O   UNL     1       7.654   5.770  15.099  0.00  0.00    +0.000 OA
ATOM     14  C   UNL     1       5.817   4.319  15.620  0.00  0.00    +0.000 A 
ATOM     15 CL   UNL     1       5.357   4.134  13.975  0.00  0.00    +0.000 Cl
ATOM     16  C   UNL     1       5.149   3.708  16.609  0.00  0.00    +0.000 A 
ATOM     17  H   UNL     1       8.105   5.847  17.519  0.00  0.00    +0.000 HD
ENDBRANCH   6   9
BRANCH   1  24
ATOM     18  C   UNL     1       1.075   8.050  21.572  0.00  0.00    +0.000 C 
ATOM     19  C   UNL     1       1.519   8.301  20.158  0.00  0.00    +0.000 A 
ATOM     20  C   UNL     1       1.344   9.601  19.642  0.00  0.00    +0.000 A 
ATOM     21  C   UNL     1       1.700   9.923  18.332  0.00  0.00    +0.000 A 
ATOM     22  C   UNL     1       2.229   8.948  17.505  0.00  0.00    +0.000 A 
ATOM     23  C   UNL     1       2.409   7.660  17.995  0.00  0.00    +0.000 A 
ATOM     24  C   UNL     1       2.061   7.308  19.321  0.00  0.00    +0.000 A 
ENDBRANCH   1  24
TORSDOF 2
ENDMDL
MODEL 3
REMARK VINA RESULT:      -8.9      1.347      2.121
REMARK  Name = 
REMARK  3 active torsions:
REMARK  status: ('A' for Active; 'I' for Inactive)
REMARK    1  A    between atoms: C_1  and  C_2
REMARK    2  A    between atoms: C_7  and  C_8
REMARK    3  A    between atoms: C_13  and  C_15
REMARK                            x       y       z     vdW  Elec       q    Type
REMARK                         _______ _______ _______ _____ _____    ______ ____
ROOT
ATOM      1  C   UNL     1       2.405   5.949  19.640  0.00  0.00    +0.000 C 
ATOM      2  C   UNL     1       1.314   5.336  20.524  0.00  0.00    +0.000 C 
ATOM      3  C   UNL     1       1.889   4.072  21.176  0.00  0.00    +0.000 C 
ATOM      4  C   UNL     1       2.478   3.094  20.146  0.00  0.00    +0.000 C 
ATOM      5  N   UNL     1       3.322   3.751  19.138  0.00  0.00    +0.000 N 
ATOM      6  C   UNL     1       4.679   3.444  19.074  0.00  0.00    +0.000 C 
ATOM      7  O   UNL     1       5.247   2.763  19.924  0.00  0.00    +0.000 OA
ATOM      8  C   UNL     1       2.724   4.947  18.527  0.00  0.00    +0.000 C 
ENDROOT
BRANCH   6   9
ATOM      9  C   UNL     1       5.465   3.976  17.905  0.00  0.00    +0.000 A 
ATOM     10  C   UNL     1       6.563   4.709  18.166  0.00  0.00    +0.000 A 
ATOM     11  N   UNL     1       7.289   5.260  17.136  0.00  0.00    +0.000 N 
ATOM     12  C   UNL     1       6.963   5.137  15.800  0.00  0.00    +0.000 A 
ATOM     13  O   UNL     1       7.614   5.697  14.922  0.00  0.00    +0.000 OA
ATOM     14  C   UNL     1       5.775   4.274  15.509  0.00  0.00    +0.000 A 
ATOM     15 CL   UNL     1       5.282   4.058  13.878  0.00  0.00    +0.000 Cl
ATOM     16  C   UNL     1       5.122   3.689  16.523  0.00  0.00    +0.000 A 
ATOM     17  H   UNL     1       8.113   5.821  17.331  0.00  0.00    +0.000 HD
ENDBRANCH   6   9
BRANCH   1  24
ATOM     18  C   UNL     1       3.605   7.427  17.136  0.00  0.00    +0.000 C 
ATOM     19  C   UNL     1       2.670   8.061  18.129  0.00  0.00    +0.000 A 
ATOM     20  C   UNL     1       2.324   9.412  17.925  0.00  0.00    +0.000 A 
ATOM     21  C   UNL     1       1.485  10.094  18.807  0.00  0.00    +0.000 A 
ATOM     22  C   UNL     1       0.980   9.442  19.918  0.00  0.00    +0.000 A 
ATOM     23  C   UNL     1       1.309   8.108  20.136  0.00  0.00    +0.000 A 
ATOM     24  C   UNL     1       2.155   7.393  19.254  0.00  0.00    +0.000 A 
ENDBRANCH   1  24
TORSDOF 2
ENDMDL
MODEL 4
REMARK VINA RESULT:      -8.8      0.684      1.555
REMARK  Name = 
REMARK  3 active torsions:
REMARK  status: ('A' for Active; 'I' for Inactive)
REMARK    1  A    between atoms: C_1  and  C_2
REMARK    2  A    between atoms: C_7  and  C_8
REMARK    3  A    between atoms: C_13  and  C_15
REMARK                            x       y       z     vdW  Elec       q    Type
REMARK                         _______ _______ _______ _____ _____    ______ ____
ROOT
ATOM      1  C   UNL     1       2.149   5.489  20.102  0.00  0.00    +0.000 C 
ATOM      2  C   UNL     1       1.070   4.660  20.808  0.00  0.00    +0.000 C 
ATOM      3  C   UNL     1       1.705   3.336  21.250  0.00  0.00    +0.000 C 
ATOM      4  C   UNL     1       2.398   2.599  20.092  0.00  0.00    +0.000 C 
ATOM      5  N   UNL     1       3.232   3.479  19.260  0.00  0.00    +0.000 N 
ATOM      6  C   UNL     1       4.608   3.272  19.208  0.00  0.00    +0.000 C 
ATOM      7  O   UNL     1       5.190   2.483  19.949  0.00  0.00    +0.000 OA
ATOM      8  C   UNL     1       2.576   4.727  18.845  0.00  0.00    +0.000 C 
ENDROOT
BRANCH   6   9
ATOM      9  C   UNL     1       5.398   4.054  18.193  0.00  0.00    +0.000 A 
ATOM     10  C   UNL     1       5.393   3.620  16.921  0.00  0.00    +0.000 A 
ATOM     11  N   UNL     1       6.139   4.268  15.963  0.00  0.00    +0.000 N 
ATOM     12  C   UNL     1       6.943   5.362  16.212  0.00  0.00    +0.000 A 
ATOM     13  O   UNL     1       7.633   5.869  15.331  0.00  0.00    +0.000 OA
ATOM     14  C   UNL     1       6.903   5.878  17.616  0.00  0.00    +0.000 A 
ATOM     15 CL   UNL     1       7.871   7.235  18.032  0.00  0.00    +0.000 Cl
ATOM     16  C   UNL     1       6.115   5.275  18.518  0.00  0.00    +0.000 A 
ATOM     17  H   UNL     1       6.142   3.936  15.003  0.00  0.00    +0.000 HD
ENDBRANCH   6   9
BRANCH   1  24
ATOM     18  C   UNL     1       3.079   7.393  17.778  0.00  0.00    +0.000 C 
ATOM     19  C   UNL     1       2.208   7.819  18.927  0.00  0.00    +0.000 A 
ATOM     20  C   UNL     1       1.798   9.166  18.967  0.00  0.00    +0.000 A 
ATOM     21  C   UNL     1       1.011   9.662  20.008  0.00  0.00    +0.000 A 
ATOM     22  C   UNL     1       0.626   8.822  21.038  0.00  0.00    +0.000 A 
ATOM     23  C   UNL     1       1.020   7.489  21.016  0.00  0.00    +0.000 A 
ATOM     24  C   UNL     1       1.814   6.960  19.970  0.00  0.00    +0.000 A 
ENDBRANCH   1  24
TORSDOF 2
ENDMDL
MODEL 5
REMARK VINA RESULT:      -8.8      1.400      2.130
REMARK  Name = 
REMARK  3 active torsions:
REMARK  status: ('A' for Active; 'I' for Inactive)
REMARK    1  A    between atoms: C_1  and  C_2
REMARK    2  A    between atoms: C_7  and  C_8
REMARK    3  A    between atoms: C_13  and  C_15
REMARK                            x       y       z     vdW  Elec       q    Type
REMARK                         _______ _______ _______ _____ _____    ______ ____
ROOT
ATOM      1  C   UNL     1       2.054   5.460  20.125  0.00  0.00    +0.000 C 
ATOM      2  C   UNL     1       0.923   4.539  20.594  0.00  0.00    +0.000 C 
ATOM      3  C   UNL     1       1.541   3.185  20.964  0.00  0.00    +0.000 C 
ATOM      4  C   UNL     1       2.393   2.595  19.827  0.00  0.00    +0.000 C 
ATOM      5  N   UNL     1       3.294   3.578  19.209  0.00  0.00    +0.000 N 
ATOM      6  C   UNL     1       4.672   3.401  19.307  0.00  0.00    +0.000 C 
ATOM      7  O   UNL     1       5.183   2.543  20.024  0.00  0.00    +0.000 OA
ATOM      8  C   UNL     1       2.656   4.853  18.855  0.00  0.00    +0.000 C 
ENDROOT
BRANCH   6   9
ATOM      9  C   UNL     1       5.557   4.307  18.492  0.00  0.00    +0.000 A 
ATOM     10  C   UNL     1       6.273   5.240  19.143  0.00  0.00    +0.000 A 
ATOM     11  N   UNL     1       7.058   6.126  18.442  0.00  0.00    +0.000 N 
ATOM     12  C   UNL     1       7.164   6.152  17.066  0.00  0.00    +0.000 A 
ATOM     13  O   UNL     1       7.837   7.001  16.486  0.00  0.00    +0.000 OA
ATOM     14  C   UNL     1       6.412   5.076  16.347  0.00  0.00    +0.000 A 
ATOM     15 CL   UNL     1       6.474   5.021  14.631  0.00  0.00    +0.000 Cl
ATOM     16  C   UNL     1       5.708   4.180  17.053  0.00  0.00    +0.000 A 
ATOM     17  H   UNL     1       7.593   6.838  18.931  0.00  0.00    +0.000 HD
ENDBRANCH   6   9
BRANCH   1  24
ATOM     18  C   UNL     1       2.902   7.555  17.938  0.00  0.00    +0.000 C 
ATOM     19  C   UNL     1       2.050   7.875  19.134  0.00  0.00    +0.000 A 
ATOM     20  C   UNL     1       1.619   9.208  19.288  0.00  0.00    +0.000 A 
ATOM     21  C   UNL     1       0.847   9.608  20.380  0.00  0.00    +0.000 A 
ATOM     22  C   UNL     1       0.498   8.683  21.348  0.00  0.00    +0.000 A 
ATOM     23  C   UNL     1       0.914   7.363  21.215  0.00  0.00    +0.000 A 
ATOM     24  C   UNL     1       1.693   6.932  20.115  0.00  0.00    +0.000 A 
ENDBRANCH   1  24
TORSDOF 2
ENDMDL
MODEL 6
REMARK VINA RESULT:      -7.4      3.176      5.290
REMARK  Name = 
REMARK  3 active torsions:
REMARK  status: ('A' for Active; 'I' for Inactive)
REMARK    1  A    between atoms: C_1  and  C_2
REMARK    2  A    between atoms: C_7  and  C_8
REMARK    3  A    between atoms: C_13  and  C_15
REMARK                            x       y       z     vdW  Elec       q    Type
REMARK                         _______ _______ _______ _____ _____    ______ ____
ROOT
ATOM      1  C   UNL     1       4.915   4.371  17.955  0.00  0.00    +0.000 C 
ATOM      2  C   UNL     1       5.674   4.613  19.264  0.00  0.00    +0.000 C 
ATOM      3  C   UNL     1       6.887   5.497  18.949  0.00  0.00    +0.000 C 
ATOM      4  C   UNL     1       7.759   4.921  17.820  0.00  0.00    +0.000 C 
ATOM      5  N   UNL     1       6.978   4.448  16.668  0.00  0.00    +0.000 N 
ATOM      6  C   UNL     1       7.130   5.074  15.433  0.00  0.00    +0.000 C 
ATOM      7  O   UNL     1       7.772   6.111  15.288  0.00  0.00    +0.000 OA
ATOM      8  C   UNL     1       5.837   3.590  17.016  0.00  0.00    +0.000 C 
ENDROOT
BRANCH   6   9
ATOM      9  C   UNL     1       6.475   4.435  14.237  0.00  0.00    +0.000 A 
ATOM     10  C   UNL     1       5.137   4.516  14.134  0.00  0.00    +0.000 A 
ATOM     11  N   UNL     1       4.484   3.907  13.087  0.00  0.00    +0.000 N 
ATOM     12  C   UNL     1       5.110   3.172  12.101  0.00  0.00    +0.000 A 
ATOM     13  O   UNL     1       4.474   2.601  11.219  0.00  0.00    +0.000 OA
ATOM     14  C   UNL     1       6.604   3.132  12.186  0.00  0.00    +0.000 A 
ATOM     15 CL   UNL     1       7.480   2.239  11.008  0.00  0.00    +0.000 Cl
ATOM     16  C   UNL     1       7.226   3.790  13.174  0.00  0.00    +0.000 A 
ATOM     17  H   UNL     1       3.472   3.960  13.012  0.00  0.00    +0.000 HD
ENDBRANCH   6   9
BRANCH   1  24
ATOM     18  C   UNL     1       2.335   6.164  18.098  0.00  0.00    +0.000 C 
ATOM     19  C   UNL     1       2.332   4.664  18.191  0.00  0.00    +0.000 A 
ATOM     20  C   UNL     1       1.087   4.026  18.370  0.00  0.00    +0.000 A 
ATOM     21  C   UNL     1       0.986   2.640  18.494  0.00  0.00    +0.000 A 
ATOM     22  C   UNL     1       2.129   1.861  18.453  0.00  0.00    +0.000 A 
ATOM     23  C   UNL     1       3.366   2.472  18.277  0.00  0.00    +0.000 A 
ATOM     24  C   UNL     1       3.495   3.875  18.143  0.00  0.00    +0.000 A 
ENDBRANCH   1  24
TORSDOF 2
ENDMDL
MODEL 7
REMARK VINA RESULT:      -7.2      7.507     10.435
REMARK  Name = 
REMARK  3 active torsions:
REMARK  status: ('A' for Active; 'I' for Inactive)
REMARK    1  A    between atoms: C_1  and  C_2
REMARK    2  A    between atoms: C_7  and  C_8
REMARK    3  A    between atoms: C_13  and  C_15
REMARK                            x       y       z     vdW  Elec       q    Type
REMARK                         _______ _______ _______ _____ _____    ______ ____
ROOT
ATOM      1  C   UNL     1      -1.251  10.654  19.231  0.00  0.00    +0.000 C 
ATOM      2  C   UNL     1       0.018   9.919  18.786  0.00  0.00    +0.000 C 
ATOM      3  C   UNL     1       0.765   9.461  20.045  0.00  0.00    +0.000 C 
ATOM      4  C   UNL     1       1.026  10.615  21.027  0.00  0.00    +0.000 C 
ATOM      5  N   UNL     1      -0.148  11.473  21.240  0.00  0.00    +0.000 N 
ATOM      6  C   UNL     1      -0.729  11.540  22.503  0.00  0.00    +0.000 C 
ATOM      7  O   UNL     1      -0.407  10.792  23.424  0.00  0.00    +0.000 OA
ATOM      8  C   UNL     1      -0.821  11.902  20.005  0.00  0.00    +0.000 C 
ENDROOT
BRANCH   6   9
ATOM      9  C   UNL     1      -1.794  12.579  22.733  0.00  0.00    +0.000 A 
ATOM     10  C   UNL     1      -1.457  13.871  22.578  0.00  0.00    +0.000 A 
ATOM     11  N   UNL     1      -2.378  14.863  22.824  0.00  0.00    +0.000 N 
ATOM     12  C   UNL     1      -3.670  14.637  23.255  0.00  0.00    +0.000 A 
ATOM     13  O   UNL     1      -4.435  15.562  23.515  0.00  0.00    +0.000 OA
ATOM     14  C   UNL     1      -4.061  13.197  23.371  0.00  0.00    +0.000 A 
ATOM     15 CL   UNL     1      -5.647  12.805  23.903  0.00  0.00    +0.000 Cl
ATOM     16  C   UNL     1      -3.170  12.245  23.059  0.00  0.00    +0.000 A 
ATOM     17  H   UNL     1      -2.122  15.841  22.716  0.00  0.00    +0.000 HD
ENDBRANCH   6   9
BRANCH   1  24
ATOM     18  C   UNL     1      -3.966  12.221  19.484  0.00  0.00    +0.000 C 
ATOM     19  C   UNL     1      -3.503  11.521  18.236  0.00  0.00    +0.000 A 
ATOM     20  C   UNL     1      -4.355  11.560  17.114  0.00  0.00    +0.000 A 
ATOM     21  C   UNL     1      -4.024  10.918  15.920  0.00  0.00    +0.000 A 
ATOM     22  C   UNL     1      -2.838  10.212  15.826  0.00  0.00    +0.000 A 
ATOM     23  C   UNL     1      -1.984  10.161  16.922  0.00  0.00    +0.000 A 
ATOM     24  C   UNL     1      -2.293  10.808  18.143  0.00  0.00    +0.000 A 
ENDBRANCH   1  24
TORSDOF 2
ENDMDL
MODEL 8
REMARK VINA RESULT:      -7.2      9.278     12.455
REMARK  Name = 
REMARK  3 active torsions:
REMARK  status: ('A' for Active; 'I' for Inactive)
REMARK    1  A    between atoms: C_1  and  C_2
REMARK    2  A    between atoms: C_7  and  C_8
REMARK    3  A    between atoms: C_13  and  C_15
REMARK                            x       y       z     vdW  Elec       q    Type
REMARK                         _______ _______ _______ _____ _____    ______ ____
ROOT
ATOM      1  C   UNL     1      -4.952  12.170  18.273  0.00  0.00    +0.000 C 
ATOM      2  C   UNL     1      -5.816  12.193  17.007  0.00  0.00    +0.000 C 
ATOM      3  C   UNL     1      -6.884  13.279  17.184  0.00  0.00    +0.000 C 
ATOM      4  C   UNL     1      -7.688  13.107  18.484  0.00  0.00    +0.000 C 
ATOM      5  N   UNL     1      -6.846  12.822  19.654  0.00  0.00    +0.000 N 
ATOM      6  C   UNL     1      -6.796  13.737  20.702  0.00  0.00    +0.000 C 
ATOM      7  O   UNL     1      -7.301  14.855  20.634  0.00  0.00    +0.000 OA
ATOM      8  C   UNL     1      -5.849  11.762  19.444  0.00  0.00    +0.000 C 
ENDROOT
BRANCH   6   9
ATOM      9  C   UNL     1      -6.092  13.319  21.966  0.00  0.00    +0.000 A 
ATOM     10  C   UNL     1      -6.790  12.612  22.872  0.00  0.00    +0.000 A 
ATOM     11  N   UNL     1      -6.210  12.249  24.065  0.00  0.00    +0.000 N 
ATOM     12  C   UNL     1      -4.922  12.579  24.437  0.00  0.00    +0.000 A 
ATOM     13  O   UNL     1      -4.471  12.277  25.540  0.00  0.00    +0.000 OA
ATOM     14  C   UNL     1      -4.128  13.316  23.405  0.00  0.00    +0.000 A 
ATOM     15 CL   UNL     1      -2.514  13.778  23.770  0.00  0.00    +0.000 Cl
ATOM     16  C   UNL     1      -4.690  13.600  22.221  0.00  0.00    +0.000 A 
ATOM     17  H   UNL     1      -6.739  11.722  24.754  0.00  0.00    +0.000 HD
ENDBRANCH   6   9
BRANCH   1  24
ATOM     18  C   UNL     1      -2.345  12.711  19.945  0.00  0.00    +0.000 C 
ATOM     19  C   UNL     1      -2.456  11.679  18.859  0.00  0.00    +0.000 A 
ATOM     20  C   UNL     1      -1.307  10.917  18.565  0.00  0.00    +0.000 A 
ATOM     21  C   UNL     1      -1.305   9.954  17.554  0.00  0.00    +0.000 A 
ATOM     22  C   UNL     1      -2.450   9.739  16.809  0.00  0.00    +0.000 A 
ATOM     23  C   UNL     1      -3.594  10.480  17.083  0.00  0.00    +0.000 A 
ATOM     24  C   UNL     1      -3.624  11.459  18.106  0.00  0.00    +0.000 A 
ENDBRANCH   1  24
TORSDOF 2
ENDMDL
MODEL 9
REMARK VINA RESULT:      -7.1      7.277     10.281
REMARK  Name = 
REMARK  3 active torsions:
REMARK  status: ('A' for Active; 'I' for Inactive)
REMARK    1  A    between atoms: C_1  and  C_2
REMARK    2  A    between atoms: C_7  and  C_8
REMARK    3  A    between atoms: C_13  and  C_15
REMARK                            x       y       z     vdW  Elec       q    Type
REMARK                         _______ _______ _______ _____ _____    ______ ____
ROOT
ATOM      1  C   UNL     1      -1.215  10.631  19.230  0.00  0.00    +0.000 C 
ATOM      2  C   UNL     1       0.092   9.999  18.738  0.00  0.00    +0.000 C 
ATOM      3  C   UNL     1       0.878   9.525  19.966  0.00  0.00    +0.000 C 
ATOM      4  C   UNL     1       1.078  10.641  21.006  0.00  0.00    +0.000 C 
ATOM      5  N   UNL     1      -0.144  11.412  21.271  0.00  0.00    +0.000 N 
ATOM      6  C   UNL     1      -0.716  11.377  22.540  0.00  0.00    +0.000 C 
ATOM      7  O   UNL     1      -0.339  10.605  23.418  0.00  0.00    +0.000 OA
ATOM      8  C   UNL     1      -0.855  11.862  20.065  0.00  0.00    +0.000 C 
ENDROOT
BRANCH   6   9
ATOM      9  C   UNL     1      -1.840  12.336  22.831  0.00  0.00    +0.000 A 
ATOM     10  C   UNL     1      -2.975  11.836  23.351  0.00  0.00    +0.000 A 
ATOM     11  N   UNL     1      -4.051  12.660  23.589  0.00  0.00    +0.000 N 
ATOM     12  C   UNL     1      -4.074  14.011  23.310  0.00  0.00    +0.000 A 
ATOM     13  O   UNL     1      -5.081  14.691  23.489  0.00  0.00    +0.000 OA
ATOM     14  C   UNL     1      -2.791  14.576  22.784  0.00  0.00    +0.000 A 
ATOM     15 CL   UNL     1      -2.714  16.249  22.399  0.00  0.00    +0.000 Cl
ATOM     16  C   UNL     1      -1.732  13.770  22.625  0.00  0.00    +0.000 A 
ATOM     17  H   UNL     1      -4.912  12.282  23.975  0.00  0.00    +0.000 HD
ENDBRANCH   6   9
BRANCH   1  24
ATOM     18  C   UNL     1      -3.917  12.216  19.509  0.00  0.00    +0.000 C 
ATOM     19  C   UNL     1      -3.480  11.496  18.264  0.00  0.00    +0.000 A 
ATOM     20  C   UNL     1      -4.351  11.526  17.157  0.00  0.00    +0.000 A 
ATOM     21  C   UNL     1      -4.046  10.865  15.966  0.00  0.00    +0.000 A 
ATOM     22  C   UNL     1      -2.865  10.151  15.860  0.00  0.00    +0.000 A 
ATOM     23  C   UNL     1      -1.992  10.110  16.942  0.00  0.00    +0.000 A 
ATOM     24  C   UNL     1      -2.276  10.776  18.158  0.00  0.00    +0.000 A 
ENDBRANCH   1  24
TORSDOF 2
ENDMDL
