MODEL 1
REMARK VINA RESULT:      -6.5      0.000      0.000
REMARK  Name = 
REMARK  11 active torsions:
REMARK  status: ('A' for Active; 'I' for Inactive)
REMARK    1  A    between atoms: C_1  and  C_2
REMARK    2  A    between atoms: C_2  and  O_3
REMARK    3  A    between atoms: O_3  and  P_4
REMARK    4  A    between atoms: P_4  and  C_6
REMARK    5  A    between atoms: P_4  and  O_19
REMARK    6  A    between atoms: C_6  and  O_7
REMARK    7  A    between atoms: O_7  and  C_8
REMARK    8  A    between atoms: C_8  and  C_9
REMARK    9  A    between atoms: C_9  and  N_10
REMARK   10  A    between atoms: O_19  and  C_20
REMARK   11  A    between atoms: C_20  and  C_21
REMARK                            x       y       z     vdW  Elec       q    Type
REMARK                         _______ _______ _______ _____ _____    ______ ____
ROOT
ATOM      1  C   UNL     1       4.560   6.853  17.384  0.00  0.00    +0.000 C 
ENDROOT
BRANCH   1   2
ATOM      2  O   UNL     1       4.833   6.238  16.122  0.00  0.00    +0.000 OA
BRANCH   2   3
ATOM      3  C   UNL     1       5.104   4.830  16.253  0.00  0.00    +0.000 C 
BRANCH   3   4
ATOM      4  P   UNL     1       6.603   4.367  15.166  0.00  0.00    +0.000 P 
ATOM      5  O   UNL     1       7.018   5.636  14.406  0.00  0.00    +0.000 OA
BRANCH   4   6
ATOM      6  O   UNL     1       5.473   3.979  13.915  0.00  0.00    +0.000 OA
BRANCH   6   8
ATOM      7  C   UNL     1       5.106   3.210  11.673  0.00  0.00    +0.000 C 
ATOM      8  C   UNL     1       6.128   3.503  12.748  0.00  0.00    +0.000 C 
ENDBRANCH   6   8
ENDBRANCH   4   6
BRANCH   4   9
ATOM      9  O   UNL     1       7.733   4.753  16.418  0.00  0.00    +0.000 OA
BRANCH   9  10
ATOM     10  C   UNL     1       7.388   4.537  17.782  0.00  0.00    +0.000 C 
ATOM     11  C   UNL     1       7.722   5.762  18.616  0.00  0.00    +0.000 C 
ENDBRANCH   9  10
ENDBRANCH   4   9
ENDBRANCH   3   4
ENDBRANCH   2   3
ENDBRANCH   1   2
BRANCH   1  12
ATOM     12  C   UNL     1       3.091   6.749  17.798  0.00  0.00    +0.000 C 
BRANCH  12  13
ATOM     13  N   UNL     1       2.906   5.932  18.984  0.00  0.00    +0.000 N 
ATOM     14  N   UNL     1       3.428   4.662  18.916  0.00  0.00    +0.000 NA
ATOM     15  C   UNL     1       3.232   3.879  19.931  0.00  0.00    +0.000 A 
ATOM     16 BR   UNL     1       3.954   2.157  19.817  0.00  0.00    +0.000 Br
ATOM     17  C   UNL     1       2.463   4.313  21.153  0.00  0.00    +0.000 A 
ATOM     18  O   UNL     1       2.263   3.550  22.084  0.00  0.00    +0.000 OA
ATOM     19  N   UNL     1       2.034   5.610  21.125  0.00  0.00    +0.000 N 
ATOM     20  C   UNL     1       2.230   6.460  20.077  0.00  0.00    +0.000 A 
ATOM     21  O   UNL     1       1.822   7.616  20.142  0.00  0.00    +0.000 OA
ATOM     22  H   UNL     1       1.520   5.962  21.918  0.00  0.00    +0.000 HD
ENDBRANCH  12  13
ENDBRANCH   1  12
TORSDOF 9
ENDMDL
MODEL 2
REMARK VINA RESULT:      -6.4      2.060      4.085
REMARK  Name = 
REMARK  11 active torsions:
REMARK  status: ('A' for Active; 'I' for Inactive)
REMARK    1  A    between atoms: C_1  and  C_2
REMARK    2  A    between atoms: C_2  and  O_3
REMARK    3  A    between atoms: O_3  and  P_4
REMARK    4  A    between atoms: P_4  and  C_6
REMARK    5  A    between atoms: P_4  and  O_19
REMARK    6  A    between atoms: C_6  and  O_7
REMARK    7  A    between atoms: O_7  and  C_8
REMARK    8  A    between atoms: C_8  and  C_9
REMARK    9  A    between atoms: C_9  and  N_10
REMARK   10  A    between atoms: O_19  and  C_20
REMARK   11  A    between atoms: C_20  and  C_21
REMARK                            x       y       z     vdW  Elec       q    Type
REMARK                         _______ _______ _______ _____ _____    ______ ____
ROOT
ATOM      1  C   UNL     1       4.281   3.710  17.926  0.00  0.00    +0.000 C 
ENDROOT
BRANCH   1   2
ATOM      2  O   UNL     1       4.631   3.986  16.566  0.00  0.00    +0.000 OA
BRANCH   2   3
ATOM      3  C   UNL     1       5.233   5.285  16.414  0.00  0.00    +0.000 C 
BRANCH   3   4
ATOM      4  P   UNL     1       6.859   5.120  15.428  0.00  0.00    +0.000 P 
ATOM      5  O   UNL     1       7.803   4.238  16.260  0.00  0.00    +0.000 OA
BRANCH   4   6
ATOM      6  O   UNL     1       7.418   6.524  16.272  0.00  0.00    +0.000 OA
BRANCH   6   8
ATOM      7  C   UNL     1       7.963   6.752  18.596  0.00  0.00    +0.000 C 
ATOM      8  C   UNL     1       6.858   6.608  17.574  0.00  0.00    +0.000 C 
ENDBRANCH   6   8
ENDBRANCH   4   6
BRANCH   4   9
ATOM      9  O   UNL     1       6.300   3.718  14.585  0.00  0.00    +0.000 OA
BRANCH   9  10
ATOM     10  C   UNL     1       5.684   3.851  13.308  0.00  0.00    +0.000 C 
ATOM     11  C   UNL     1       6.675   3.528  12.203  0.00  0.00    +0.000 C 
ENDBRANCH   9  10
ENDBRANCH   4   9
ENDBRANCH   3   4
ENDBRANCH   2   3
ENDBRANCH   1   2
BRANCH   1  12
ATOM     12  C   UNL     1       2.780   3.827  18.196  0.00  0.00    +0.000 C 
BRANCH  12  13
ATOM     13  N   UNL     1       2.442   5.030  18.934  0.00  0.00    +0.000 N 
ATOM     14  N   UNL     1       2.387   6.187  18.192  0.00  0.00    +0.000 NA
ATOM     15  C   UNL     1       2.147   7.294  18.824  0.00  0.00    +0.000 A 
ATOM     16 BR   UNL     1       2.076   8.852  17.793  0.00  0.00    +0.000 Br
ATOM     17  C   UNL     1       1.934   7.345  20.315  0.00  0.00    +0.000 A 
ATOM     18  O   UNL     1       1.740   8.402  20.894  0.00  0.00    +0.000 OA
ATOM     19  N   UNL     1       1.964   6.129  20.937  0.00  0.00    +0.000 N 
ATOM     20  C   UNL     1       2.207   4.948  20.301  0.00  0.00    +0.000 A 
ATOM     21  O   UNL     1       2.202   3.898  20.937  0.00  0.00    +0.000 OA
ATOM     22  H   UNL     1       1.821   6.098  21.935  0.00  0.00    +0.000 HD
ENDBRANCH  12  13
ENDBRANCH   1  12
TORSDOF 9
ENDMDL
MODEL 3
REMARK VINA RESULT:      -6.2      1.171      1.248
REMARK  Name = 
REMARK  11 active torsions:
REMARK  status: ('A' for Active; 'I' for Inactive)
REMARK    1  A    between atoms: C_1  and  C_2
REMARK    2  A    between atoms: C_2  and  O_3
REMARK    3  A    between atoms: O_3  and  P_4
REMARK    4  A    between atoms: P_4  and  C_6
REMARK    5  A    between atoms: P_4  and  O_19
REMARK    6  A    between atoms: C_6  and  O_7
REMARK    7  A    between atoms: O_7  and  C_8
REMARK    8  A    between atoms: C_8  and  C_9
REMARK    9  A    between atoms: C_9  and  N_10
REMARK   10  A    between atoms: O_19  and  C_20
REMARK   11  A    between atoms: C_20  and  C_21
REMARK                            x       y       z     vdW  Elec       q    Type
REMARK                         _______ _______ _______ _____ _____    ______ ____
ROOT
ATOM      1  C   UNL     1       3.498   6.949  17.205  0.00  0.00    +0.000 C 
ENDROOT
BRANCH   1   2
ATOM      2  O   UNL     1       4.916   6.803  17.079  0.00  0.00    +0.000 OA
BRANCH   2   3
ATOM      3  C   UNL     1       5.293   6.268  15.796  0.00  0.00    +0.000 C 
BRANCH   3   4
ATOM      4  P   UNL     1       5.889   4.467  16.009  0.00  0.00    +0.000 P 
ATOM      5  O   UNL     1       7.376   4.437  15.627  0.00  0.00    +0.000 OA
BRANCH   4   6
ATOM      6  O   UNL     1       5.452   4.213  14.353  0.00  0.00    +0.000 OA
BRANCH   6   8
ATOM      7  C   UNL     1       6.252   3.400  12.244  0.00  0.00    +0.000 C 
ATOM      8  C   UNL     1       6.597   4.138  13.517  0.00  0.00    +0.000 C 
ENDBRANCH   6   8
ENDBRANCH   4   6
BRANCH   4   9
ATOM      9  O   UNL     1       6.324   4.721  17.663  0.00  0.00    +0.000 OA
BRANCH   9  10
ATOM     10  C   UNL     1       7.695   4.804  18.036  0.00  0.00    +0.000 C 
ATOM     11  C   UNL     1       7.893   5.871  19.099  0.00  0.00    +0.000 C 
ENDBRANCH   9  10
ENDBRANCH   4   9
ENDBRANCH   3   4
ENDBRANCH   2   3
ENDBRANCH   1   2
BRANCH   1  12
ATOM     12  C   UNL     1       3.035   7.086  18.657  0.00  0.00    +0.000 C 
BRANCH  12  13
ATOM     13  N   UNL     1       2.615   5.819  19.227  0.00  0.00    +0.000 N 
ATOM     14  N   UNL     1       3.061   4.697  18.570  0.00  0.00    +0.000 NA
ATOM     15  C   UNL     1       2.659   3.545  19.012  0.00  0.00    +0.000 A 
ATOM     16 BR   UNL     1       3.280   2.032  18.104  0.00  0.00    +0.000 Br
ATOM     17  C   UNL     1       1.737   3.409  20.197  0.00  0.00    +0.000 A 
ATOM     18  O   UNL     1       1.346   2.317  20.576  0.00  0.00    +0.000 OA
ATOM     19  N   UNL     1       1.401   4.590  20.795  0.00  0.00    +0.000 N 
ATOM     20  C   UNL     1       1.812   5.815  20.360  0.00  0.00    +0.000 A 
ATOM     21  O   UNL     1       1.472   6.826  20.967  0.00  0.00    +0.000 OA
ATOM     22  H   UNL     1       0.791   4.563  21.599  0.00  0.00    +0.000 HD
ENDBRANCH  12  13
ENDBRANCH   1  12
TORSDOF 9
ENDMDL
MODEL 4
REMARK VINA RESULT:      -6.2      2.316      3.075
REMARK  Name = 
REMARK  11 active torsions:
REMARK  status: ('A' for Active; 'I' for Inactive)
REMARK    1  A    between atoms: C_1  and  C_2
REMARK    2  A    between atoms: C_2  and  O_3
REMARK    3  A    between atoms: O_3  and  P_4
REMARK    4  A    between atoms: P_4  and  C_6
REMARK    5  A    between atoms: P_4  and  O_19
REMARK    6  A    between atoms: C_6  and  O_7
REMARK    7  A    between atoms: O_7  and  C_8
REMARK    8  A    between atoms: C_8  and  C_9
REMARK    9  A    between atoms: C_9  and  N_10
REMARK   10  A    between atoms: O_19  and  C_20
REMARK   11  A    between atoms: C_20  and  C_21
REMARK                            x       y       z     vdW  Elec       q    Type
REMARK                         _______ _______ _______ _____ _____    ______ ____
ROOT
ATOM      1  C   UNL     1       3.020   4.364  17.390  0.00  0.00    +0.000 C 
ENDROOT
BRANCH   1   2
ATOM      2  O   UNL     1       4.085   3.853  16.582  0.00  0.00    +0.000 OA
BRANCH   2   3
ATOM      3  C   UNL     1       5.375   4.078  17.181  0.00  0.00    +0.000 C 
BRANCH   3   4
ATOM      4  P   UNL     1       6.413   5.213  16.050  0.00  0.00    +0.000 P 
ATOM      5  O   UNL     1       5.427   5.974  15.151  0.00  0.00    +0.000 OA
BRANCH   4   6
ATOM      6  O   UNL     1       6.451   3.908  14.914  0.00  0.00    +0.000 OA
BRANCH   6   8
ATOM      7  C   UNL     1       6.057   3.522  12.580  0.00  0.00    +0.000 C 
ATOM      8  C   UNL     1       6.779   4.362  13.609  0.00  0.00    +0.000 C 
ENDBRANCH   6   8
ENDBRANCH   4   6
BRANCH   4   9
ATOM      9  O   UNL     1       6.375   6.516  17.187  0.00  0.00    +0.000 OA
BRANCH   9  10
ATOM     10  C   UNL     1       7.549   6.865  17.912  0.00  0.00    +0.000 C 
ATOM     11  C   UNL     1       7.927   8.312  17.646  0.00  0.00    +0.000 C 
ENDBRANCH   9  10
ENDBRANCH   4   9
ENDBRANCH   3   4
ENDBRANCH   2   3
ENDBRANCH   1   2
BRANCH   1  12
ATOM     12  C   UNL     1       3.457   4.701  18.817  0.00  0.00    +0.000 C 
BRANCH  12  13
ATOM     13  N   UNL     1       2.733   5.833  19.366  0.00  0.00    +0.000 N 
ATOM     14  N   UNL     1       2.673   6.946  18.560  0.00  0.00    +0.000 NA
ATOM     15  C   UNL     1       2.087   8.000  19.037  0.00  0.00    +0.000 A 
ATOM     16 BR   UNL     1       2.017   9.500  17.922  0.00  0.00    +0.000 Br
ATOM     17  C   UNL     1       1.485   8.037  20.419  0.00  0.00    +0.000 A 
ATOM     18  O   UNL     1       0.966   9.050  20.860  0.00  0.00    +0.000 OA
ATOM     19  N   UNL     1       1.564   6.859  21.106  0.00  0.00    +0.000 N 
ATOM     20  C   UNL     1       2.167   5.732  20.630  0.00  0.00    +0.000 A 
ATOM     21  O   UNL     1       2.179   4.711  21.311  0.00  0.00    +0.000 OA
ATOM     22  H   UNL     1       1.172   6.819  22.034  0.00  0.00    +0.000 HD
ENDBRANCH  12  13
ENDBRANCH   1  12
TORSDOF 9
ENDMDL
MODEL 5
REMARK VINA RESULT:      -6.2      2.165      4.118
REMARK  Name = 
REMARK  11 active torsions:
REMARK  status: ('A' for Active; 'I' for Inactive)
REMARK    1  A    between atoms: C_1  and  C_2
REMARK    2  A    between atoms: C_2  and  O_3
REMARK    3  A    between atoms: O_3  and  P_4
REMARK    4  A    between atoms: P_4  and  C_6
REMARK    5  A    between atoms: P_4  and  O_19
REMARK    6  A    between atoms: C_6  and  O_7
REMARK    7  A    between atoms: O_7  and  C_8
REMARK    8  A    between atoms: C_8  and  C_9
REMARK    9  A    between atoms: C_9  and  N_10
REMARK   10  A    between atoms: O_19  and  C_20
REMARK   11  A    between atoms: C_20  and  C_21
REMARK                            x       y       z     vdW  Elec       q    Type
REMARK                         _______ _______ _______ _____ _____    ______ ____
ROOT
ATOM      1  C   UNL     1       3.969   3.389  18.520  0.00  0.00    +0.000 C 
ENDROOT
BRANCH   1   2
ATOM      2  O   UNL     1       4.887   4.432  18.176  0.00  0.00    +0.000 OA
BRANCH   2   3
ATOM      3  C   UNL     1       5.593   4.150  16.953  0.00  0.00    +0.000 C 
BRANCH   3   4
ATOM      4  P   UNL     1       5.865   5.773  15.987  0.00  0.00    +0.000 P 
ATOM      5  O   UNL     1       7.354   5.829  15.610  0.00  0.00    +0.000 OA
BRANCH   4   6
ATOM      6  O   UNL     1       6.216   6.523  17.507  0.00  0.00    +0.000 OA
BRANCH   6   8
ATOM      7  C   UNL     1       7.745   8.354  17.752  0.00  0.00    +0.000 C 
ATOM      8  C   UNL     1       7.591   6.856  17.621  0.00  0.00    +0.000 C 
ENDBRANCH   6   8
ENDBRANCH   4   6
BRANCH   4   9
ATOM      9  O   UNL     1       5.514   5.023  14.468  0.00  0.00    +0.000 OA
BRANCH   9  10
ATOM     10  C   UNL     1       6.072   3.752  14.155  0.00  0.00    +0.000 C 
ATOM     11  C   UNL     1       6.285   3.620  12.656  0.00  0.00    +0.000 C 
ENDBRANCH   9  10
ENDBRANCH   4   9
ENDBRANCH   3   4
ENDBRANCH   2   3
ENDBRANCH   1   2
BRANCH   1  12
ATOM     12  C   UNL     1       2.505   3.818  18.412  0.00  0.00    +0.000 C 
BRANCH  12  13
ATOM     13  N   UNL     1       2.240   5.069  19.099  0.00  0.00    +0.000 N 
ATOM     14  N   UNL     1       2.275   6.196  18.311  0.00  0.00    +0.000 NA
ATOM     15  C   UNL     1       2.104   7.341  18.897  0.00  0.00    +0.000 A 
ATOM     16 BR   UNL     1       2.153   8.859  17.806  0.00  0.00    +0.000 Br
ATOM     17  C   UNL     1       1.875   7.465  20.382  0.00  0.00    +0.000 A 
ATOM     18  O   UNL     1       1.747   8.554  20.917  0.00  0.00    +0.000 OA
ATOM     19  N   UNL     1       1.813   6.275  21.050  0.00  0.00    +0.000 N 
ATOM     20  C   UNL     1       1.982   5.056  20.463  0.00  0.00    +0.000 A 
ATOM     21  O   UNL     1       1.897   4.035  21.138  0.00  0.00    +0.000 OA
ATOM     22  H   UNL     1       1.655   6.293  22.046  0.00  0.00    +0.000 HD
ENDBRANCH  12  13
ENDBRANCH   1  12
TORSDOF 9
ENDMDL
MODEL 6
REMARK VINA RESULT:      -6.1      3.513      7.077
REMARK  Name = 
REMARK  11 active torsions:
REMARK  status: ('A' for Active; 'I' for Inactive)
REMARK    1  A    between atoms: C_1  and  C_2
REMARK    2  A    between atoms: C_2  and  O_3
REMARK    3  A    between atoms: O_3  and  P_4
REMARK    4  A    between atoms: P_4  and  C_6
REMARK    5  A    between atoms: P_4  and  O_19
REMARK    6  A    between atoms: C_6  and  O_7
REMARK    7  A    between atoms: O_7  and  C_8
REMARK    8  A    between atoms: C_8  and  C_9
REMARK    9  A    between atoms: C_9  and  N_10
REMARK   10  A    between atoms: O_19  and  C_20
REMARK   11  A    between atoms: C_20  and  C_21
REMARK                            x       y       z     vdW  Elec       q    Type
REMARK                         _______ _______ _______ _____ _____    ______ ____
ROOT
ATOM      1  C   UNL     1       4.109   3.462  16.965  0.00  0.00    +0.000 C 
ENDROOT
BRANCH   1   2
ATOM      2  O   UNL     1       3.364   3.363  18.182  0.00  0.00    +0.000 OA
BRANCH   2   3
ATOM      3  C   UNL     1       2.230   4.252  18.197  0.00  0.00    +0.000 C 
BRANCH   3   4
ATOM      4  P   UNL     1       2.434   5.518  19.611  0.00  0.00    +0.000 P 
ATOM      5  O   UNL     1       3.940   5.773  19.774  0.00  0.00    +0.000 OA
BRANCH   4   6
ATOM      6  O   UNL     1       2.539   4.171  20.692  0.00  0.00    +0.000 OA
BRANCH   6   8
ATOM      7  C   UNL     1       1.309   2.590  22.010  0.00  0.00    +0.000 C 
ATOM      8  C   UNL     1       1.302   3.481  20.790  0.00  0.00    +0.000 C 
ENDBRANCH   6   8
ENDBRANCH   4   6
BRANCH   4   9
ATOM      9  O   UNL     1       2.328   6.863  18.529  0.00  0.00    +0.000 OA
BRANCH   9  10
ATOM     10  C   UNL     1       1.986   8.153  19.025  0.00  0.00    +0.000 C 
ATOM     11  C   UNL     1       1.863   9.147  17.883  0.00  0.00    +0.000 C 
ENDBRANCH   9  10
ENDBRANCH   4   9
ENDBRANCH   3   4
ENDBRANCH   2   3
ENDBRANCH   1   2
BRANCH   1  12
ATOM     12  C   UNL     1       5.498   4.073  17.158  0.00  0.00    +0.000 C 
BRANCH  12  13
ATOM     13  N   UNL     1       6.131   4.422  15.899  0.00  0.00    +0.000 N 
ATOM     14  N   UNL     1       5.621   3.796  14.786  0.00  0.00    +0.000 NA
ATOM     15  C   UNL     1       6.197   4.034  13.648  0.00  0.00    +0.000 A 
ATOM     16 BR   UNL     1       5.485   3.173  12.148  0.00  0.00    +0.000 Br
ATOM     17  C   UNL     1       7.383   4.956  13.518  0.00  0.00    +0.000 A 
ATOM     18  O   UNL     1       7.930   5.141  12.443  0.00  0.00    +0.000 OA
ATOM     19  N   UNL     1       7.769   5.555  14.683  0.00  0.00    +0.000 N 
ATOM     20  C   UNL     1       7.180   5.332  15.893  0.00  0.00    +0.000 A 
ATOM     21  O   UNL     1       7.583   5.925  16.888  0.00  0.00    +0.000 OA
ATOM     22  H   UNL     1       8.553   6.189  14.658  0.00  0.00    +0.000 HD
ENDBRANCH  12  13
ENDBRANCH   1  12
TORSDOF 9
ENDMDL
MODEL 7
REMARK VINA RESULT:      -6.0      3.397      6.773
REMARK  Name = 
REMARK  11 active torsions:
REMARK  status: ('A' for Active; 'I' for Inactive)
REMARK    1  A    between atoms: C_1  and  C_2
REMARK    2  A    between atoms: C_2  and  O_3
REMARK    3  A    between atoms: O_3  and  P_4
REMARK    4  A    between atoms: P_4  and  C_6
REMARK    5  A    between atoms: P_4  and  O_19
REMARK    6  A    between atoms: C_6  and  O_7
REMARK    7  A    between atoms: O_7  and  C_8
REMARK    8  A    between atoms: C_8  and  C_9
REMARK    9  A    between atoms: C_9  and  N_10
REMARK   10  A    between atoms: O_19  and  C_20
REMARK   11  A    between atoms: C_20  and  C_21
REMARK                            x       y       z     vdW  Elec       q    Type
REMARK                         _______ _______ _______ _____ _____    ______ ____
ROOT
ATOM      1  C   UNL     1       4.021   3.457  17.134  0.00  0.00    +0.000 C 
ENDROOT
BRANCH   1   2
ATOM      2  O   UNL     1       3.237   4.651  17.047  0.00  0.00    +0.000 OA
BRANCH   2   3
ATOM      3  C   UNL     1       2.293   4.760  18.129  0.00  0.00    +0.000 C 
BRANCH   3   4
ATOM      4  P   UNL     1       3.131   5.609  19.620  0.00  0.00    +0.000 P 
ATOM      5  O   UNL     1       2.012   6.210  20.483  0.00  0.00    +0.000 OA
BRANCH   4   6
ATOM      6  O   UNL     1       3.180   7.053  18.667  0.00  0.00    +0.000 OA
BRANCH   6   8
ATOM      7  C   UNL     1       2.003   8.948  17.787  0.00  0.00    +0.000 C 
ATOM      8  C   UNL     1       1.902   7.667  18.584  0.00  0.00    +0.000 C 
ENDBRANCH   6   8
ENDBRANCH   4   6
BRANCH   4   9
ATOM      9  O   UNL     1       3.083   4.165  20.571  0.00  0.00    +0.000 OA
BRANCH   9  10
ATOM     10  C   UNL     1       2.162   3.129  20.249  0.00  0.00    +0.000 C 
ATOM     11  C   UNL     1       1.283   2.808  21.446  0.00  0.00    +0.000 C 
ENDBRANCH   9  10
ENDBRANCH   4   9
ENDBRANCH   3   4
ENDBRANCH   2   3
ENDBRANCH   1   2
BRANCH   1  12
ATOM     12  C   UNL     1       5.516   3.731  17.307  0.00  0.00    +0.000 C 
BRANCH  12  13
ATOM     13  N   UNL     1       6.128   4.252  16.099  0.00  0.00    +0.000 N 
ATOM     14  N   UNL     1       5.710   3.671  14.924  0.00  0.00    +0.000 NA
ATOM     15  C   UNL     1       6.276   4.066  13.826  0.00  0.00    +0.000 A 
ATOM     16 BR   UNL     1       5.690   3.262  12.242  0.00  0.00    +0.000 Br
ATOM     17  C   UNL     1       7.355   5.118  13.804  0.00  0.00    +0.000 A 
ATOM     18  O   UNL     1       7.897   5.452  12.763  0.00  0.00    +0.000 OA
ATOM     19  N   UNL     1       7.652   5.655  15.025  0.00  0.00    +0.000 N 
ATOM     20  C   UNL     1       7.070   5.267  16.195  0.00  0.00    +0.000 A 
ATOM     21  O   UNL     1       7.388   5.815  17.247  0.00  0.00    +0.000 OA
ATOM     22  H   UNL     1       8.362   6.370  15.073  0.00  0.00    +0.000 HD
ENDBRANCH  12  13
ENDBRANCH   1  12
TORSDOF 9
ENDMDL
MODEL 8
REMARK VINA RESULT:      -6.0      1.954      2.726
REMARK  Name = 
REMARK  11 active torsions:
REMARK  status: ('A' for Active; 'I' for Inactive)
REMARK    1  A    between atoms: C_1  and  C_2
REMARK    2  A    between atoms: C_2  and  O_3
REMARK    3  A    between atoms: O_3  and  P_4
REMARK    4  A    between atoms: P_4  and  C_6
REMARK    5  A    between atoms: P_4  and  O_19
REMARK    6  A    between atoms: C_6  and  O_7
REMARK    7  A    between atoms: O_7  and  C_8
REMARK    8  A    between atoms: C_8  and  C_9
REMARK    9  A    between atoms: C_9  and  N_10
REMARK   10  A    between atoms: O_19  and  C_20
REMARK   11  A    between atoms: C_20  and  C_21
REMARK                            x       y       z     vdW  Elec       q    Type
REMARK                         _______ _______ _______ _____ _____    ______ ____
ROOT
ATOM      1  C   UNL     1       4.085   3.349  17.574  0.00  0.00    +0.000 C 
ENDROOT
BRANCH   1   2
ATOM      2  O   UNL     1       4.441   4.159  16.449  0.00  0.00    +0.000 OA
BRANCH   2   3
ATOM      3  C   UNL     1       5.686   3.743  15.855  0.00  0.00    +0.000 C 
BRANCH   3   4
ATOM      4  P   UNL     1       6.767   5.276  15.505  0.00  0.00    +0.000 P 
ATOM      5  O   UNL     1       5.812   6.444  15.213  0.00  0.00    +0.000 OA
BRANCH   4   6
ATOM      6  O   UNL     1       6.730   4.821  13.836  0.00  0.00    +0.000 OA
BRANCH   6   8
ATOM      7  C   UNL     1       5.914   3.290  12.180  0.00  0.00    +0.000 C 
ATOM      8  C   UNL     1       6.126   3.549  13.655  0.00  0.00    +0.000 C 
ENDBRANCH   6   8
ENDBRANCH   4   6
BRANCH   4   9
ATOM      9  O   UNL     1       6.804   5.731  17.174  0.00  0.00    +0.000 OA
BRANCH   9  10
ATOM     10  C   UNL     1       7.539   4.950  18.110  0.00  0.00    +0.000 C 
ATOM     11  C   UNL     1       7.854   5.766  19.351  0.00  0.00    +0.000 C 
ENDBRANCH   9  10
ENDBRANCH   4   9
ENDBRANCH   3   4
ENDBRANCH   2   3
ENDBRANCH   1   2
BRANCH   1  12
ATOM     12  C   UNL     1       2.614   3.485  17.970  0.00  0.00    +0.000 C 
BRANCH  12  13
ATOM     13  N   UNL     1       2.363   4.668  18.774  0.00  0.00    +0.000 N 
ATOM     14  N   UNL     1       2.367   5.861  18.091  0.00  0.00    +0.000 NA
ATOM     15  C   UNL     1       2.207   6.947  18.782  0.00  0.00    +0.000 A 
ATOM     16 BR   UNL     1       2.214   8.558  17.831  0.00  0.00    +0.000 Br
ATOM     17  C   UNL     1       2.022   6.936  20.278  0.00  0.00    +0.000 A 
ATOM     18  O   UNL     1       1.904   7.972  20.912  0.00  0.00    +0.000 OA
ATOM     19  N   UNL     1       1.988   5.690  20.838  0.00  0.00    +0.000 N 
ATOM     20  C   UNL     1       2.147   4.530  20.139  0.00  0.00    +0.000 A 
ATOM     21  O   UNL     1       2.088   3.452  20.722  0.00  0.00    +0.000 OA
ATOM     22  H   UNL     1       1.860   5.618  21.836  0.00  0.00    +0.000 HD
ENDBRANCH  12  13
ENDBRANCH   1  12
TORSDOF 9
ENDMDL
MODEL 9
REMARK VINA RESULT:      -6.0      2.258      4.110
REMARK  Name = 
REMARK  11 active torsions:
REMARK  status: ('A' for Active; 'I' for Inactive)
REMARK    1  A    between atoms: C_1  and  C_2
REMARK    2  A    between atoms: C_2  and  O_3
REMARK    3  A    between atoms: O_3  and  P_4
REMARK    4  A    between atoms: P_4  and  C_6
REMARK    5  A    between atoms: P_4  and  O_19
REMARK    6  A    between atoms: C_6  and  O_7
REMARK    7  A    between atoms: O_7  and  C_8
REMARK    8  A    between atoms: C_8  and  C_9
REMARK    9  A    between atoms: C_9  and  N_10
REMARK   10  A    between atoms: O_19  and  C_20
REMARK   11  A    between atoms: C_20  and  C_21
REMARK                            x       y       z     vdW  Elec       q    Type
REMARK                         _______ _______ _______ _____ _____    ______ ____
ROOT
ATOM      1  C   UNL     1       4.557   2.950  19.474  0.00  0.00    +0.000 C 
ENDROOT
BRANCH   1   2
ATOM      2  O   UNL     1       5.448   3.998  19.081  0.00  0.00    +0.000 OA
BRANCH   2   3
ATOM      3  C   UNL     1       5.563   4.103  17.650  0.00  0.00    +0.000 C 
BRANCH   3   4
ATOM      4  P   UNL     1       7.184   5.009  17.207  0.00  0.00    +0.000 P 
ATOM      5  O   UNL     1       8.340   4.153  17.745  0.00  0.00    +0.000 OA
BRANCH   4   6
ATOM      6  O   UNL     1       7.058   5.811  18.735  0.00  0.00    +0.000 OA
BRANCH   6   8
ATOM      7  C   UNL     1       7.861   7.821  17.702  0.00  0.00    +0.000 C 
ATOM      8  C   UNL     1       8.011   6.856  18.856  0.00  0.00    +0.000 C 
ENDBRANCH   6   8
ENDBRANCH   4   6
BRANCH   4   9
ATOM      9  O   UNL     1       7.308   4.208  15.679  0.00  0.00    +0.000 OA
BRANCH   9  10
ATOM     10  C   UNL     1       6.496   4.624  14.586  0.00  0.00    +0.000 C 
ATOM     11  C   UNL     1       5.595   5.775  15.002  0.00  0.00    +0.000 C 
ENDBRANCH   9  10
ENDBRANCH   4   9
ENDBRANCH   3   4
ENDBRANCH   2   3
ENDBRANCH   1   2
BRANCH   1  12
ATOM     12  C   UNL     1       3.098   3.235  19.114  0.00  0.00    +0.000 C 
BRANCH  12  13
ATOM     13  N   UNL     1       2.658   4.541  19.571  0.00  0.00    +0.000 N 
ATOM     14  N   UNL     1       2.706   5.545  18.633  0.00  0.00    +0.000 NA
ATOM     15  C   UNL     1       2.379   6.740  19.017  0.00  0.00    +0.000 A 
ATOM     16 BR   UNL     1       2.450   8.088  17.723  0.00  0.00    +0.000 Br
ATOM     17  C   UNL     1       1.959   7.050  20.431  0.00  0.00    +0.000 A 
ATOM     18  O   UNL     1       1.686   8.187  20.779  0.00  0.00    +0.000 OA
ATOM     19  N   UNL     1       1.904   5.964  21.260  0.00  0.00    +0.000 N 
ATOM     20  C   UNL     1       2.235   4.696  20.885  0.00  0.00    +0.000 A 
ATOM     21  O   UNL     1       2.143   3.776  21.692  0.00  0.00    +0.000 OA
ATOM     22  H   UNL     1       1.623   6.107  22.218  0.00  0.00    +0.000 HD
ENDBRANCH  12  13
ENDBRANCH   1  12
TORSDOF 9
ENDMDL
