MODEL 1
REMARK VINA RESULT:      -6.6      0.000      0.000
REMARK  Name = 
REMARK  6 active torsions:
REMARK  status: ('A' for Active; 'I' for Inactive)
REMARK    1  A    between atoms: C_1  and  N_2
REMARK    2  A    between atoms: C_6  and  C_7
REMARK    3  A    between atoms: C_7  and  N_8
REMARK    4  A    between atoms: N_8  and  C_9
REMARK    5  A    between atoms: C_9  and  C_10
REMARK    6  A    between atoms: C_13  and  C_14
REMARK                            x       y       z     vdW  Elec       q    Type
REMARK                         _______ _______ _______ _____ _____    ______ ____
ROOT
ATOM      1  C   UNL     1       5.021   6.725  16.286  0.00  0.00    +0.000 C 
ENDROOT
BRANCH   1   2
ATOM      2  C   UNL     1       4.097   6.560  17.453  0.00  0.00    +0.000 A 
ATOM      3  C   UNL     1       3.147   7.458  17.900  0.00  0.00    +0.000 A 
ATOM      4  S   UNL     1       2.403   6.866  19.328  0.00  0.00    +0.000 S 
ATOM      5  C   UNL     1       3.358   5.435  19.230  0.00  0.00    +0.000 A 
ATOM      6  N   UNL     1       4.187   5.400  18.208  0.00  0.00    +0.000 NA
BRANCH   5   7
ATOM      7  C   UNL     1       3.258   4.350  20.284  0.00  0.00    +0.000 C 
ATOM      8  C   UNL     1       1.829   4.158  20.817  0.00  0.00    +0.000 C 
ATOM      9  C   UNL     1       0.890   3.563  19.771  0.00  0.00    +0.000 C 
ATOM     10  C   UNL     1       1.423   2.251  19.201  0.00  0.00    +0.000 C 
ATOM     11  C   UNL     1       2.866   2.352  18.722  0.00  0.00    +0.000 C 
ATOM     12  C   UNL     1       3.787   2.997  19.762  0.00  0.00    +0.000 C 
ENDBRANCH   5   7
ENDBRANCH   1   2
BRANCH   1  13
ATOM     13  N   UNL     1       6.413   6.430  16.656  0.00  0.00    +0.000 NA
ATOM     14  H   UNL     1       6.990   7.193  16.292  0.00  0.00    +0.000 HD
BRANCH  13  15
ATOM     15  C   UNL     1       6.948   5.192  16.046  0.00  0.00    +0.000 C 
BRANCH  15  21
ATOM     16  C   UNL     1       4.839   3.875  12.277  0.00  0.00    +0.000 C 
ATOM     17  N   UNL     1       6.098   3.309  12.761  0.00  0.00    +0.000 NA
ATOM     18  C   UNL     1       7.258   3.854  12.025  0.00  0.00    +0.000 C 
ATOM     19  C   UNL     1       7.619   5.303  12.397  0.00  0.00    +0.000 C 
ATOM     20  O   UNL     1       7.821   5.454  13.807  0.00  0.00    +0.000 OA
ATOM     21  C   UNL     1       6.650   5.032  14.540  0.00  0.00    +0.000 C 
ATOM     22  C   UNL     1       6.297   3.564  14.206  0.00  0.00    +0.000 C 
ENDBRANCH  15  21
ENDBRANCH  13  15
ENDBRANCH   1  13
TORSDOF 5
ENDMDL
MODEL 2
REMARK VINA RESULT:      -6.5      4.115      7.709
REMARK  Name = 
REMARK  6 active torsions:
REMARK  status: ('A' for Active; 'I' for Inactive)
REMARK    1  A    between atoms: C_1  and  N_2
REMARK    2  A    between atoms: C_6  and  C_7
REMARK    3  A    between atoms: C_7  and  N_8
REMARK    4  A    between atoms: N_8  and  C_9
REMARK    5  A    between atoms: C_9  and  C_10
REMARK    6  A    between atoms: C_13  and  C_14
REMARK                            x       y       z     vdW  Elec       q    Type
REMARK                         _______ _______ _______ _____ _____    ______ ____
ROOT
ATOM      1  C   UNL     1       1.800   5.892  20.489  0.00  0.00    +0.000 C 
ENDROOT
BRANCH   1   2
ATOM      2  C   UNL     1       2.708   5.045  19.652  0.00  0.00    +0.000 A 
ATOM      3  C   UNL     1       3.184   3.782  19.949  0.00  0.00    +0.000 A 
ATOM      4  S   UNL     1       4.269   3.258  18.729  0.00  0.00    +0.000 S 
ATOM      5  C   UNL     1       3.999   4.723  17.862  0.00  0.00    +0.000 A 
ATOM      6  N   UNL     1       3.164   5.557  18.446  0.00  0.00    +0.000 NA
BRANCH   5   7
ATOM      7  C   UNL     1       4.723   5.012  16.563  0.00  0.00    +0.000 C 
ATOM      8  C   UNL     1       4.996   6.509  16.346  0.00  0.00    +0.000 C 
ATOM      9  C   UNL     1       6.030   7.063  17.324  0.00  0.00    +0.000 C 
ATOM     10  C   UNL     1       7.336   6.275  17.283  0.00  0.00    +0.000 C 
ATOM     11  C   UNL     1       7.130   4.771  17.418  0.00  0.00    +0.000 C 
ATOM     12  C   UNL     1       6.054   4.238  16.467  0.00  0.00    +0.000 C 
ENDBRANCH   5   7
ENDBRANCH   1   2
BRANCH   1  13
ATOM     13  N   UNL     1       2.116   7.320  20.348  0.00  0.00    +0.000 NA
ATOM     14  H   UNL     1       3.118   7.427  20.527  0.00  0.00    +0.000 HD
BRANCH  13  15
ATOM     15  C   UNL     1       1.435   8.186  21.337  0.00  0.00    +0.000 C 
BRANCH  15  21
ATOM     16  C   UNL     1      -0.935  10.686  18.418  0.00  0.00    +0.000 C 
ATOM     17  N   UNL     1       0.510  10.791  18.612  0.00  0.00    +0.000 NA
ATOM     18  C   UNL     1       0.863  11.953  19.455  0.00  0.00    +0.000 C 
ATOM     19  C   UNL     1       0.547  11.770  20.950  0.00  0.00    +0.000 C 
ATOM     20  O   UNL     1       1.150  10.583  21.478  0.00  0.00    +0.000 OA
ATOM     21  C   UNL     1       0.726   9.419  20.737  0.00  0.00    +0.000 C 
ATOM     22  C   UNL     1       1.072   9.571  19.236  0.00  0.00    +0.000 C 
ENDBRANCH  15  21
ENDBRANCH  13  15
ENDBRANCH   1  13
TORSDOF 5
ENDMDL
MODEL 3
REMARK VINA RESULT:      -6.5      4.539      7.889
REMARK  Name = 
REMARK  6 active torsions:
REMARK  status: ('A' for Active; 'I' for Inactive)
REMARK    1  A    between atoms: C_1  and  N_2
REMARK    2  A    between atoms: C_6  and  C_7
REMARK    3  A    between atoms: C_7  and  N_8
REMARK    4  A    between atoms: N_8  and  C_9
REMARK    5  A    between atoms: C_9  and  C_10
REMARK    6  A    between atoms: C_13  and  C_14
REMARK                            x       y       z     vdW  Elec       q    Type
REMARK                         _______ _______ _______ _____ _____    ______ ____
ROOT
ATOM      1  C   UNL     1       1.940   8.476  17.835  0.00  0.00    +0.000 C 
ENDROOT
BRANCH   1   2
ATOM      2  C   UNL     1       2.820   7.319  18.195  0.00  0.00    +0.000 A 
ATOM      3  C   UNL     1       4.005   6.949  17.590  0.00  0.00    +0.000 A 
ATOM      4  S   UNL     1       4.599   5.501  18.290  0.00  0.00    +0.000 S 
ATOM      5  C   UNL     1       3.267   5.486  19.384  0.00  0.00    +0.000 A 
ATOM      6  N   UNL     1       2.426   6.487  19.234  0.00  0.00    +0.000 NA
BRANCH   5   7
ATOM      7  C   UNL     1       3.088   4.366  20.389  0.00  0.00    +0.000 C 
ATOM      8  C   UNL     1       1.624   4.168  20.815  0.00  0.00    +0.000 C 
ATOM      9  C   UNL     1       0.756   3.617  19.686  0.00  0.00    +0.000 C 
ATOM     10  C   UNL     1       1.320   2.321  19.109  0.00  0.00    +0.000 C 
ATOM     11  C   UNL     1       2.794   2.427  18.735  0.00  0.00    +0.000 C 
ATOM     12  C   UNL     1       3.644   3.028  19.858  0.00  0.00    +0.000 C 
ENDBRANCH   5   7
ENDBRANCH   1   2
BRANCH   1  13
ATOM     13  N   UNL     1       1.816   9.425  18.950  0.00  0.00    +0.000 NA
ATOM     14  H   UNL     1       1.911   8.889  19.816  0.00  0.00    +0.000 HD
BRANCH  13  15
ATOM     15  C   UNL     1       0.496  10.090  19.029  0.00  0.00    +0.000 C 
BRANCH  15  21
ATOM     16  C   UNL     1      -1.550  11.479  22.807  0.00  0.00    +0.000 C 
ATOM     17  N   UNL     1      -0.157  11.039  22.736  0.00  0.00    +0.000 NA
ATOM     18  C   UNL     1       0.002   9.654  23.227  0.00  0.00    +0.000 C 
ATOM     19  C   UNL     1      -0.521   8.576  22.262  0.00  0.00    +0.000 C 
ATOM     20  O   UNL     1       0.062   8.702  20.961  0.00  0.00    +0.000 OA
ATOM     21  C   UNL     1      -0.183  10.015  20.413  0.00  0.00    +0.000 C 
ATOM     22  C   UNL     1       0.372  11.110  21.355  0.00  0.00    +0.000 C 
ENDBRANCH  15  21
ENDBRANCH  13  15
ENDBRANCH   1  13
TORSDOF 5
ENDMDL
MODEL 4
REMARK VINA RESULT:      -6.5      3.834      7.633
REMARK  Name = 
REMARK  6 active torsions:
REMARK  status: ('A' for Active; 'I' for Inactive)
REMARK    1  A    between atoms: C_1  and  N_2
REMARK    2  A    between atoms: C_6  and  C_7
REMARK    3  A    between atoms: C_7  and  N_8
REMARK    4  A    between atoms: N_8  and  C_9
REMARK    5  A    between atoms: C_9  and  C_10
REMARK    6  A    between atoms: C_13  and  C_14
REMARK                            x       y       z     vdW  Elec       q    Type
REMARK                         _______ _______ _______ _____ _____    ______ ____
ROOT
ATOM      1  C   UNL     1       2.100   5.334  20.398  0.00  0.00    +0.000 C 
ENDROOT
BRANCH   1   2
ATOM      2  C   UNL     1       2.791   4.575  19.308  0.00  0.00    +0.000 A 
ATOM      3  C   UNL     1       2.948   3.206  19.212  0.00  0.00    +0.000 A 
ATOM      4  S   UNL     1       3.894   2.816  17.835  0.00  0.00    +0.000 S 
ATOM      5  C   UNL     1       3.992   4.489  17.431  0.00  0.00    +0.000 A 
ATOM      6  N   UNL     1       3.371   5.291  18.271  0.00  0.00    +0.000 NA
BRANCH   5   7
ATOM      7  C   UNL     1       4.781   4.962  16.227  0.00  0.00    +0.000 C 
ATOM      8  C   UNL     1       5.034   6.478  16.230  0.00  0.00    +0.000 C 
ATOM      9  C   UNL     1       6.000   6.908  17.332  0.00  0.00    +0.000 C 
ATOM     10  C   UNL     1       7.323   6.151  17.263  0.00  0.00    +0.000 C 
ATOM     11  C   UNL     1       7.142   4.640  17.181  0.00  0.00    +0.000 C 
ATOM     12  C   UNL     1       6.132   4.226  16.105  0.00  0.00    +0.000 C 
ENDBRANCH   5   7
ENDBRANCH   1   2
BRANCH   1  13
ATOM     13  N   UNL     1       2.338   6.780  20.283  0.00  0.00    +0.000 NA
ATOM     14  H   UNL     1       3.232   6.976  20.739  0.00  0.00    +0.000 HD
BRANCH  13  15
ATOM     15  C   UNL     1       1.334   7.612  20.983  0.00  0.00    +0.000 C 
BRANCH  15  21
ATOM     16  C   UNL     1       0.260  11.996  20.869  0.00  0.00    +0.000 C 
ATOM     17  N   UNL     1      -0.469  10.948  20.156  0.00  0.00    +0.000 NA
ATOM     18  C   UNL     1      -0.105  10.910  18.724  0.00  0.00    +0.000 C 
ATOM     19  C   UNL     1       1.285  10.315  18.439  0.00  0.00    +0.000 C 
ATOM     20  O   UNL     1       1.431   9.012  19.014  0.00  0.00    +0.000 OA
ATOM     21  C   UNL     1       1.191   9.049  20.437  0.00  0.00    +0.000 C 
ATOM     22  C   UNL     1      -0.219   9.610  20.738  0.00  0.00    +0.000 C 
ENDBRANCH  15  21
ENDBRANCH  13  15
ENDBRANCH   1  13
TORSDOF 5
ENDMDL
MODEL 5
REMARK VINA RESULT:      -6.3      4.319      7.479
REMARK  Name = 
REMARK  6 active torsions:
REMARK  status: ('A' for Active; 'I' for Inactive)
REMARK    1  A    between atoms: C_1  and  N_2
REMARK    2  A    between atoms: C_6  and  C_7
REMARK    3  A    between atoms: C_7  and  N_8
REMARK    4  A    between atoms: N_8  and  C_9
REMARK    5  A    between atoms: C_9  and  C_10
REMARK    6  A    between atoms: C_13  and  C_14
REMARK                            x       y       z     vdW  Elec       q    Type
REMARK                         _______ _______ _______ _____ _____    ______ ____
ROOT
ATOM      1  C   UNL     1       3.327   7.896  17.542  0.00  0.00    +0.000 C 
ENDROOT
BRANCH   1   2
ATOM      2  C   UNL     1       3.566   6.418  17.569  0.00  0.00    +0.000 A 
ATOM      3  C   UNL     1       4.662   5.739  17.073  0.00  0.00    +0.000 A 
ATOM      4  S   UNL     1       4.437   4.048  17.249  0.00  0.00    +0.000 S 
ATOM      5  C   UNL     1       2.920   4.331  18.017  0.00  0.00    +0.000 A 
ATOM      6  N   UNL     1       2.593   5.602  18.127  0.00  0.00    +0.000 NA
BRANCH   5   7
ATOM      7  C   UNL     1       2.041   3.183  18.469  0.00  0.00    +0.000 C 
ATOM      8  C   UNL     1       2.826   2.062  19.168  0.00  0.00    +0.000 C 
ATOM      9  C   UNL     1       3.374   2.493  20.527  0.00  0.00    +0.000 C 
ATOM     10  C   UNL     1       2.277   3.023  21.446  0.00  0.00    +0.000 C 
ATOM     11  C   UNL     1       1.410   4.088  20.785  0.00  0.00    +0.000 C 
ATOM     12  C   UNL     1       0.909   3.663  19.401  0.00  0.00    +0.000 C 
ENDBRANCH   5   7
ENDBRANCH   1   2
BRANCH   1  13
ATOM     13  N   UNL     1       2.078   8.252  18.230  0.00  0.00    +0.000 NA
ATOM     14  H   UNL     1       1.331   7.698  17.805  0.00  0.00    +0.000 HD
BRANCH  13  15
ATOM     15  C   UNL     1       1.680   9.667  18.059  0.00  0.00    +0.000 C 
BRANCH  15  21
ATOM     16  C   UNL     1      -2.076  11.841  19.304  0.00  0.00    +0.000 C 
ATOM     17  N   UNL     1      -0.733  12.178  19.773  0.00  0.00    +0.000 NA
ATOM     18  C   UNL     1      -0.483  11.652  21.132  0.00  0.00    +0.000 C 
ATOM     19  C   UNL     1      -0.260  10.130  21.189  0.00  0.00    +0.000 C 
ATOM     20  O   UNL     1       0.786   9.714  20.305  0.00  0.00    +0.000 OA
ATOM     21  C   UNL     1       0.503  10.120  18.949  0.00  0.00    +0.000 C 
ATOM     22  C   UNL     1       0.314  11.653  18.867  0.00  0.00    +0.000 C 
ENDBRANCH  15  21
ENDBRANCH  13  15
ENDBRANCH   1  13
TORSDOF 5
ENDMDL
MODEL 6
REMARK VINA RESULT:      -6.3      4.124      7.228
REMARK  Name = 
REMARK  6 active torsions:
REMARK  status: ('A' for Active; 'I' for Inactive)
REMARK    1  A    between atoms: C_1  and  N_2
REMARK    2  A    between atoms: C_6  and  C_7
REMARK    3  A    between atoms: C_7  and  N_8
REMARK    4  A    between atoms: N_8  and  C_9
REMARK    5  A    between atoms: C_9  and  C_10
REMARK    6  A    between atoms: C_13  and  C_14
REMARK                            x       y       z     vdW  Elec       q    Type
REMARK                         _______ _______ _______ _____ _____    ______ ____
ROOT
ATOM      1  C   UNL     1       3.481   7.832  17.576  0.00  0.00    +0.000 C 
ENDROOT
BRANCH   1   2
ATOM      2  C   UNL     1       3.890   6.398  17.712  0.00  0.00    +0.000 A 
ATOM      3  C   UNL     1       4.633   5.652  16.818  0.00  0.00    +0.000 A 
ATOM      4  S   UNL     1       4.761   4.031  17.365  0.00  0.00    +0.000 S 
ATOM      5  C   UNL     1       3.860   4.439  18.777  0.00  0.00    +0.000 A 
ATOM      6  N   UNL     1       3.478   5.697  18.836  0.00  0.00    +0.000 NA
BRANCH   5   7
ATOM      7  C   UNL     1       3.514   3.393  19.818  0.00  0.00    +0.000 C 
ATOM      8  C   UNL     1       2.448   3.869  20.817  0.00  0.00    +0.000 C 
ATOM      9  C   UNL     1       1.073   4.028  20.173  0.00  0.00    +0.000 C 
ATOM     10  C   UNL     1       0.614   2.750  19.476  0.00  0.00    +0.000 C 
ATOM     11  C   UNL     1       1.659   2.182  18.524  0.00  0.00    +0.000 C 
ATOM     12  C   UNL     1       3.045   2.075  19.168  0.00  0.00    +0.000 C 
ENDBRANCH   5   7
ENDBRANCH   1   2
BRANCH   1  13
ATOM     13  N   UNL     1       2.153   8.070  18.157  0.00  0.00    +0.000 NA
ATOM     14  H   UNL     1       1.500   7.436  17.690  0.00  0.00    +0.000 HD
BRANCH  13  15
ATOM     15  C   UNL     1       1.629   9.434  17.920  0.00  0.00    +0.000 C 
BRANCH  15  21
ATOM     16  C   UNL     1      -1.516  12.038  19.848  0.00  0.00    +0.000 C 
ATOM     17  N   UNL     1      -0.122  11.968  20.282  0.00  0.00    +0.000 NA
ATOM     18  C   UNL     1       0.033  11.116  21.481  0.00  0.00    +0.000 C 
ATOM     19  C   UNL     1      -0.091   9.607  21.205  0.00  0.00    +0.000 C 
ATOM     20  O   UNL     1       0.816   9.179  20.183  0.00  0.00    +0.000 OA
ATOM     21  C   UNL     1       0.602   9.924  18.963  0.00  0.00    +0.000 C 
ATOM     22  C   UNL     1       0.762  11.442  19.216  0.00  0.00    +0.000 C 
ENDBRANCH  15  21
ENDBRANCH  13  15
ENDBRANCH   1  13
TORSDOF 5
ENDMDL
MODEL 7
REMARK VINA RESULT:      -6.3      4.248      7.457
REMARK  Name = 
REMARK  6 active torsions:
REMARK  status: ('A' for Active; 'I' for Inactive)
REMARK    1  A    between atoms: C_1  and  N_2
REMARK    2  A    between atoms: C_6  and  C_7
REMARK    3  A    between atoms: C_7  and  N_8
REMARK    4  A    between atoms: N_8  and  C_9
REMARK    5  A    between atoms: C_9  and  C_10
REMARK    6  A    between atoms: C_13  and  C_14
REMARK                            x       y       z     vdW  Elec       q    Type
REMARK                         _______ _______ _______ _____ _____    ______ ____
ROOT
ATOM      1  C   UNL     1       3.246   7.883  17.739  0.00  0.00    +0.000 C 
ENDROOT
BRANCH   1   2
ATOM      2  C   UNL     1       3.454   6.403  17.653  0.00  0.00    +0.000 A 
ATOM      3  C   UNL     1       4.480   5.738  17.011  0.00  0.00    +0.000 A 
ATOM      4  S   UNL     1       4.237   4.043  17.107  0.00  0.00    +0.000 S 
ATOM      5  C   UNL     1       2.809   4.303  18.037  0.00  0.00    +0.000 A 
ATOM      6  N   UNL     1       2.522   5.569  18.255  0.00  0.00    +0.000 NA
BRANCH   5   7
ATOM      7  C   UNL     1       1.954   3.142  18.504  0.00  0.00    +0.000 C 
ATOM      8  C   UNL     1       2.772   2.012  19.149  0.00  0.00    +0.000 C 
ATOM      9  C   UNL     1       3.375   2.420  20.492  0.00  0.00    +0.000 C 
ATOM     10  C   UNL     1       2.316   2.929  21.465  0.00  0.00    +0.000 C 
ATOM     11  C   UNL     1       1.418   4.003  20.862  0.00  0.00    +0.000 C 
ATOM     12  C   UNL     1       0.861   3.601  19.492  0.00  0.00    +0.000 C 
ENDBRANCH   5   7
ENDBRANCH   1   2
BRANCH   1  13
ATOM     13  N   UNL     1       1.923   8.210  18.290  0.00  0.00    +0.000 NA
ATOM     14  H   UNL     1       1.250   7.573  17.856  0.00  0.00    +0.000 HD
BRANCH  13  15
ATOM     15  C   UNL     1       1.457   9.576  17.963  0.00  0.00    +0.000 C 
BRANCH  15  21
ATOM     16  C   UNL     1      -0.233  10.657  22.008  0.00  0.00    +0.000 C 
ATOM     17  N   UNL     1      -0.846  11.023  20.732  0.00  0.00    +0.000 NA
ATOM     18  C   UNL     1      -0.565  12.430  20.376  0.00  0.00    +0.000 C 
ATOM     19  C   UNL     1       0.876  12.687  19.903  0.00  0.00    +0.000 C 
ATOM     20  O   UNL     1       1.239  11.828  18.816  0.00  0.00    +0.000 OA
ATOM     21  C   UNL     1       1.080  10.440  19.185  0.00  0.00    +0.000 C 
ATOM     22  C   UNL     1      -0.375  10.157  19.627  0.00  0.00    +0.000 C 
ENDBRANCH  15  21
ENDBRANCH  13  15
ENDBRANCH   1  13
TORSDOF 5
ENDMDL
MODEL 8
REMARK VINA RESULT:      -6.2      4.517      7.471
REMARK  Name = 
REMARK  6 active torsions:
REMARK  status: ('A' for Active; 'I' for Inactive)
REMARK    1  A    between atoms: C_1  and  N_2
REMARK    2  A    between atoms: C_6  and  C_7
REMARK    3  A    between atoms: C_7  and  N_8
REMARK    4  A    between atoms: N_8  and  C_9
REMARK    5  A    between atoms: C_9  and  C_10
REMARK    6  A    between atoms: C_13  and  C_14
REMARK                            x       y       z     vdW  Elec       q    Type
REMARK                         _______ _______ _______ _____ _____    ______ ____
ROOT
ATOM      1  C   UNL     1       2.216   7.857  19.225  0.00  0.00    +0.000 C 
ENDROOT
BRANCH   1   2
ATOM      2  C   UNL     1       2.914   6.654  18.667  0.00  0.00    +0.000 A 
ATOM      3  C   UNL     1       3.837   6.625  17.640  0.00  0.00    +0.000 A 
ATOM      4  S   UNL     1       4.282   5.005  17.293  0.00  0.00    +0.000 S 
ATOM      5  C   UNL     1       3.255   4.453  18.563  0.00  0.00    +0.000 A 
ATOM      6  N   UNL     1       2.612   5.409  19.199  0.00  0.00    +0.000 NA
BRANCH   5   7
ATOM      7  C   UNL     1       3.094   2.975  18.858  0.00  0.00    +0.000 C 
ATOM      8  C   UNL     1       3.581   2.586  20.263  0.00  0.00    +0.000 C 
ATOM      9  C   UNL     1       2.689   3.148  21.367  0.00  0.00    +0.000 C 
ATOM     10  C   UNL     1       1.227   2.749  21.183  0.00  0.00    +0.000 C 
ATOM     11  C   UNL     1       0.702   3.040  19.782  0.00  0.00    +0.000 C 
ATOM     12  C   UNL     1       1.632   2.515  18.684  0.00  0.00    +0.000 C 
ENDBRANCH   5   7
ENDBRANCH   1   2
BRANCH   1  13
ATOM     13  N   UNL     1       1.826   7.650  20.626  0.00  0.00    +0.000 NA
ATOM     14  H   UNL     1       1.176   6.860  20.646  0.00  0.00    +0.000 HD
BRANCH  13  15
ATOM     15  C   UNL     1       1.093   8.791  21.220  0.00  0.00    +0.000 C 
BRANCH  15  21
ATOM     16  C   UNL     1       1.396  12.595  18.808  0.00  0.00    +0.000 C 
ATOM     17  N   UNL     1       0.520  12.418  19.965  0.00  0.00    +0.000 NA
ATOM     18  C   UNL     1      -0.878  12.167  19.556  0.00  0.00    +0.000 C 
ATOM     19  C   UNL     1      -1.128  10.759  18.990  0.00  0.00    +0.000 C 
ATOM     20  O   UNL     1      -0.696   9.739  19.897  0.00  0.00    +0.000 OA
ATOM     21  C   UNL     1       0.703   9.900  20.220  0.00  0.00    +0.000 C 
ATOM     22  C   UNL     1       0.965  11.299  20.826  0.00  0.00    +0.000 C 
ENDBRANCH  15  21
ENDBRANCH  13  15
ENDBRANCH   1  13
TORSDOF 5
ENDMDL
MODEL 9
REMARK VINA RESULT:      -6.1      4.112      7.891
REMARK  Name = 
REMARK  6 active torsions:
REMARK  status: ('A' for Active; 'I' for Inactive)
REMARK    1  A    between atoms: C_1  and  N_2
REMARK    2  A    between atoms: C_6  and  C_7
REMARK    3  A    between atoms: C_7  and  N_8
REMARK    4  A    between atoms: N_8  and  C_9
REMARK    5  A    between atoms: C_9  and  C_10
REMARK    6  A    between atoms: C_13  and  C_14
REMARK                            x       y       z     vdW  Elec       q    Type
REMARK                         _______ _______ _______ _____ _____    ______ ____
ROOT
ATOM      1  C   UNL     1       1.773   5.859  20.365  0.00  0.00    +0.000 C 
ENDROOT
BRANCH   1   2
ATOM      2  C   UNL     1       2.492   5.329  19.164  0.00  0.00    +0.000 A 
ATOM      3  C   UNL     1       2.452   4.041  18.666  0.00  0.00    +0.000 A 
ATOM      4  S   UNL     1       3.518   3.892  17.330  0.00  0.00    +0.000 S 
ATOM      5  C   UNL     1       3.926   5.560  17.471  0.00  0.00    +0.000 A 
ATOM      6  N   UNL     1       3.318   6.190  18.456  0.00  0.00    +0.000 NA
BRANCH   5   7
ATOM      7  C   UNL     1       4.944   6.202  16.550  0.00  0.00    +0.000 C 
ATOM      8  C   UNL     1       6.164   6.761  17.298  0.00  0.00    +0.000 C 
ATOM      9  C   UNL     1       7.040   5.661  17.893  0.00  0.00    +0.000 C 
ATOM     10  C   UNL     1       7.483   4.648  16.841  0.00  0.00    +0.000 C 
ATOM     11  C   UNL     1       6.325   4.108  16.009  0.00  0.00    +0.000 C 
ATOM     12  C   UNL     1       5.426   5.220  15.461  0.00  0.00    +0.000 C 
ENDBRANCH   5   7
ENDBRANCH   1   2
BRANCH   1  13
ATOM     13  N   UNL     1       2.172   7.241  20.665  0.00  0.00    +0.000 NA
ATOM     14  H   UNL     1       2.912   7.196  21.370  0.00  0.00    +0.000 HD
BRANCH  13  15
ATOM     15  C   UNL     1       1.095   8.062  21.262  0.00  0.00    +0.000 C 
BRANCH  15  21
ATOM     16  C   UNL     1       0.218  12.487  21.074  0.00  0.00    +0.000 C 
ATOM     17  N   UNL     1      -0.628  11.452  20.482  0.00  0.00    +0.000 NA
ATOM     18  C   UNL     1      -0.415  11.343  19.024  0.00  0.00    +0.000 C 
ATOM     19  C   UNL     1       0.909  10.668  18.626  0.00  0.00    +0.000 C 
ATOM     20  O   UNL     1       1.053   9.381  19.236  0.00  0.00    +0.000 OA
ATOM     21  C   UNL     1       0.963   9.483  20.674  0.00  0.00    +0.000 C 
ATOM     22  C   UNL     1      -0.381  10.125  21.092  0.00  0.00    +0.000 C 
ENDBRANCH  15  21
ENDBRANCH  13  15
ENDBRANCH   1  13
TORSDOF 5
ENDMDL
