MODEL 1
REMARK VINA RESULT:      -9.2      0.000      0.000
REMARK  Name = 
REMARK  9 active torsions:
REMARK  status: ('A' for Active; 'I' for Inactive)
REMARK    1  A    between atoms: C_1  and  C_2
REMARK    2  A    between atoms: C_2  and  C_3
REMARK    3  A    between atoms: C_3  and  C_4
REMARK    4  A    between atoms: C_4  and  N_5
REMARK    5  A    between atoms: N_15  and  C_16
REMARK    6  A    between atoms: C_16  and  C_17
REMARK    7  A    between atoms: C_20  and  C_21
REMARK    8  A    between atoms: C_26  and  C_27
REMARK    9  A    between atoms: C_27  and  O_29
REMARK                            x       y       z     vdW  Elec       q    Type
REMARK                         _______ _______ _______ _____ _____    ______ ____
ROOT
ATOM      1  C   UNL     1       2.776   7.659  17.423  0.00  0.00    +0.000 C 
ENDROOT
BRANCH   1  12
ATOM      2  N   UNL     1       2.922   5.178  17.715  0.00  0.00    +0.000 N 
ATOM      3  C   UNL     1       3.922   4.245  17.426  0.00  0.00    +0.000 C 
ATOM      4  O   UNL     1       3.806   3.032  17.354  0.00  0.00    +0.000 OA
ATOM      5  C   UNL     1       5.206   5.009  17.235  0.00  0.00    +0.000 C 
ATOM      6  C   UNL     1       6.330   4.599  18.197  0.00  0.00    +0.000 C 
ATOM      7  C   UNL     1       7.588   4.598  17.339  0.00  0.00    +0.000 C 
ATOM      8  C   UNL     1       7.113   4.154  15.969  0.00  0.00    +0.000 C 
ATOM      9  C   UNL     1       5.728   4.770  15.813  0.00  0.00    +0.000 C 
ATOM     10  C   UNL     1       4.822   6.447  17.492  0.00  0.00    +0.000 C 
ATOM     11  O   UNL     1       5.538   7.418  17.286  0.00  0.00    +0.000 OA
ATOM     12  N   UNL     1       3.474   6.477  17.916  0.00  0.00    +0.000 N 
BRANCH   2  13
ATOM     13  C   UNL     1       1.713   4.779  18.421  0.00  0.00    +0.000 C 
BRANCH  13  14
ATOM     14  C   UNL     1       1.822   4.692  19.950  0.00  0.00    +0.000 C 
BRANCH  14  16
ATOM     15  C   UNL     1       1.945   2.714  21.495  0.00  0.00    +0.000 C 
ATOM     16  C   UNL     1       1.065   3.506  20.542  0.00  0.00    +0.000 C 
ENDBRANCH  14  16
ENDBRANCH  13  14
ENDBRANCH   2  13
ENDBRANCH   1  12
BRANCH   1  17
ATOM     17  C   UNL     1       1.865   8.434  18.335  0.00  0.00    +0.000 A 
ATOM     18  C   UNL     1       1.881   8.233  19.720  0.00  0.00    +0.000 A 
ATOM     19  C   UNL     1       1.138   9.066  20.572  0.00  0.00    +0.000 A 
ATOM     20  C   UNL     1       0.310  10.081  20.067  0.00  0.00    +0.000 A 
ATOM     21  C   UNL     1       0.264  10.227  18.665  0.00  0.00    +0.000 A 
ATOM     22  C   UNL     1       1.041   9.436  17.815  0.00  0.00    +0.000 A 
BRANCH  20  23
ATOM     23  C   UNL     1      -0.458  11.007  20.945  0.00  0.00    +0.000 A 
ATOM     24  C   UNL     1      -0.945  12.210  20.371  0.00  0.00    +0.000 A 
ATOM     25  C   UNL     1      -1.666  13.161  21.103  0.00  0.00    +0.000 A 
ATOM     26  C   UNL     1      -1.912  12.950  22.451  0.00  0.00    +0.000 A 
ATOM     27  C   UNL     1      -1.434  11.787  23.055  0.00  0.00    +0.000 A 
ATOM     28  C   UNL     1      -0.724  10.814  22.323  0.00  0.00    +0.000 A 
BRANCH  28  29
ATOM     29  C   UNL     1      -0.297   9.639  23.131  0.00  0.00    +0.000 C 
ATOM     30  O   UNL     1       0.617   9.701  23.937  0.00  0.00    +0.000 OA
BRANCH  29  31
ATOM     31  O   UNL     1      -1.056   8.536  22.981  0.00  0.00    +0.000 OA
ATOM     32  H   UNL     1      -1.479   8.216  23.801  0.00  0.00    +0.000 HD
ENDBRANCH  29  31
ENDBRANCH  28  29
ENDBRANCH  20  23
ENDBRANCH   1  17
TORSDOF 8
ENDMDL
MODEL 2
REMARK VINA RESULT:      -8.8      1.632      2.167
REMARK  Name = 
REMARK  9 active torsions:
REMARK  status: ('A' for Active; 'I' for Inactive)
REMARK    1  A    between atoms: C_1  and  C_2
REMARK    2  A    between atoms: C_2  and  C_3
REMARK    3  A    between atoms: C_3  and  C_4
REMARK    4  A    between atoms: C_4  and  N_5
REMARK    5  A    between atoms: N_15  and  C_16
REMARK    6  A    between atoms: C_16  and  C_17
REMARK    7  A    between atoms: C_20  and  C_21
REMARK    8  A    between atoms: C_26  and  C_27
REMARK    9  A    between atoms: C_27  and  O_29
REMARK                            x       y       z     vdW  Elec       q    Type
REMARK                         _______ _______ _______ _____ _____    ______ ____
ROOT
ATOM      1  C   UNL     1       2.339   7.290  17.531  0.00  0.00    +0.000 C 
ENDROOT
BRANCH   1  12
ATOM      2  N   UNL     1       2.728   4.834  17.818  0.00  0.00    +0.000 N 
ATOM      3  C   UNL     1       3.813   4.004  17.522  0.00  0.00    +0.000 C 
ATOM      4  O   UNL     1       3.815   2.785  17.449  0.00  0.00    +0.000 OA
ATOM      5  C   UNL     1       5.015   4.890  17.326  0.00  0.00    +0.000 C 
ATOM      6  C   UNL     1       6.178   4.591  18.282  0.00  0.00    +0.000 C 
ATOM      7  C   UNL     1       7.426   4.713  17.418  0.00  0.00    +0.000 C 
ATOM      8  C   UNL     1       6.990   4.227  16.049  0.00  0.00    +0.000 C 
ATOM      9  C   UNL     1       5.550   4.704  15.901  0.00  0.00    +0.000 C 
ATOM     10  C   UNL     1       4.493   6.284  17.587  0.00  0.00    +0.000 C 
ATOM     11  O   UNL     1       5.111   7.320  17.379  0.00  0.00    +0.000 OA
ATOM     12  N   UNL     1       3.151   6.182  18.018  0.00  0.00    +0.000 N 
BRANCH   2  13
ATOM     13  C   UNL     1       1.567   4.318  18.529  0.00  0.00    +0.000 C 
BRANCH  13  14
ATOM     14  C   UNL     1       1.593   4.463  20.057  0.00  0.00    +0.000 C 
BRANCH  14  16
ATOM     15  C   UNL     1       2.183   2.692  21.739  0.00  0.00    +0.000 C 
ATOM     16  C   UNL     1       1.117   3.211  20.789  0.00  0.00    +0.000 C 
ENDBRANCH  14  16
ENDBRANCH  13  14
ENDBRANCH   2  13
ENDBRANCH   1  12
BRANCH   1  17
ATOM     17  C   UNL     1       1.863   8.354  18.482  0.00  0.00    +0.000 A 
ATOM     18  C   UNL     1       1.400   9.590  18.018  0.00  0.00    +0.000 A 
ATOM     19  C   UNL     1       0.819  10.514  18.901  0.00  0.00    +0.000 A 
ATOM     20  C   UNL     1       0.740  10.261  20.280  0.00  0.00    +0.000 A 
ATOM     21  C   UNL     1       1.266   9.034  20.733  0.00  0.00    +0.000 A 
ATOM     22  C   UNL     1       1.797   8.088  19.852  0.00  0.00    +0.000 A 
BRANCH  20  23
ATOM     23  C   UNL     1       0.094  11.201  21.236  0.00  0.00    +0.000 A 
ATOM     24  C   UNL     1      -0.867  10.672  22.136  0.00  0.00    +0.000 A 
ATOM     25  C   UNL     1      -1.548  11.463  23.069  0.00  0.00    +0.000 A 
ATOM     26  C   UNL     1      -1.305  12.826  23.123  0.00  0.00    +0.000 A 
ATOM     27  C   UNL     1      -0.380  13.387  22.242  0.00  0.00    +0.000 A 
ATOM     28  C   UNL     1       0.326  12.596  21.313  0.00  0.00    +0.000 A 
BRANCH  28  29
ATOM     29  C   UNL     1       1.273  13.364  20.460  0.00  0.00    +0.000 C 
ATOM     30  O   UNL     1       2.482  13.317  20.623  0.00  0.00    +0.000 OA
BRANCH  29  31
ATOM     31  O   UNL     1       0.708  14.031  19.435  0.00  0.00    +0.000 OA
ATOM     32  H   UNL     1       0.157  14.794  19.698  0.00  0.00    +0.000 HD
ENDBRANCH  29  31
ENDBRANCH  28  29
ENDBRANCH  20  23
ENDBRANCH   1  17
TORSDOF 8
ENDMDL
MODEL 3
REMARK VINA RESULT:      -8.7      2.155      2.711
REMARK  Name = 
REMARK  9 active torsions:
REMARK  status: ('A' for Active; 'I' for Inactive)
REMARK    1  A    between atoms: C_1  and  C_2
REMARK    2  A    between atoms: C_2  and  C_3
REMARK    3  A    between atoms: C_3  and  C_4
REMARK    4  A    between atoms: C_4  and  N_5
REMARK    5  A    between atoms: N_15  and  C_16
REMARK    6  A    between atoms: C_16  and  C_17
REMARK    7  A    between atoms: C_20  and  C_21
REMARK    8  A    between atoms: C_26  and  C_27
REMARK    9  A    between atoms: C_27  and  O_29
REMARK                            x       y       z     vdW  Elec       q    Type
REMARK                         _______ _______ _______ _____ _____    ______ ____
ROOT
ATOM      1  C   UNL     1       2.129   7.019  18.139  0.00  0.00    +0.000 C 
ENDROOT
BRANCH   1  12
ATOM      2  N   UNL     1       3.250   5.013  19.132  0.00  0.00    +0.000 N 
ATOM      3  C   UNL     1       4.296   4.195  18.693  0.00  0.00    +0.000 C 
ATOM      4  O   UNL     1       4.597   3.089  19.112  0.00  0.00    +0.000 OA
ATOM      5  C   UNL     1       5.020   4.940  17.602  0.00  0.00    +0.000 C 
ATOM      6  C   UNL     1       6.507   5.186  17.890  0.00  0.00    +0.000 C 
ATOM      7  C   UNL     1       7.202   4.946  16.556  0.00  0.00    +0.000 C 
ATOM      8  C   UNL     1       6.388   3.849  15.897  0.00  0.00    +0.000 C 
ATOM      9  C   UNL     1       4.946   4.129  16.303  0.00  0.00    +0.000 C 
ATOM     10  C   UNL     1       4.297   6.265  17.516  0.00  0.00    +0.000 C 
ATOM     11  O   UNL     1       4.468   7.108  16.645  0.00  0.00    +0.000 OA
ATOM     12  N   UNL     1       3.337   6.314  18.552  0.00  0.00    +0.000 N 
BRANCH   2  13
ATOM     13  C   UNL     1       2.675   4.840  20.458  0.00  0.00    +0.000 C 
BRANCH  13  14
ATOM     14  C   UNL     1       1.222   4.348  20.504  0.00  0.00    +0.000 C 
BRANCH  14  16
ATOM     15  C   UNL     1       0.898   2.443  18.898  0.00  0.00    +0.000 C 
ATOM     16  C   UNL     1       1.093   2.834  20.353  0.00  0.00    +0.000 C 
ENDBRANCH  14  16
ENDBRANCH  13  14
ENDBRANCH   2  13
ENDBRANCH   1  12
BRANCH   1  17
ATOM     17  C   UNL     1       1.861   8.413  18.636  0.00  0.00    +0.000 A 
ATOM     18  C   UNL     1       2.090   9.530  17.824  0.00  0.00    +0.000 A 
ATOM     19  C   UNL     1       1.694  10.810  18.243  0.00  0.00    +0.000 A 
ATOM     20  C   UNL     1       1.118  11.025  19.504  0.00  0.00    +0.000 A 
ATOM     21  C   UNL     1       0.950   9.893  20.329  0.00  0.00    +0.000 A 
ATOM     22  C   UNL     1       1.293   8.609  19.897  0.00  0.00    +0.000 A 
BRANCH  20  23
ATOM     23  C   UNL     1       0.651  12.363  19.961  0.00  0.00    +0.000 A 
ATOM     24  C   UNL     1       1.464  13.067  20.887  0.00  0.00    +0.000 A 
ATOM     25  C   UNL     1       1.119  14.325  21.395  0.00  0.00    +0.000 A 
ATOM     26  C   UNL     1      -0.072  14.920  21.009  0.00  0.00    +0.000 A 
ATOM     27  C   UNL     1      -0.907  14.251  20.114  0.00  0.00    +0.000 A 
ATOM     28  C   UNL     1      -0.559  12.993  19.580  0.00  0.00    +0.000 A 
BRANCH  28  29
ATOM     29  C   UNL     1      -1.568  12.434  18.639  0.00  0.00    +0.000 C 
ATOM     30  O   UNL     1      -2.607  11.923  19.026  0.00  0.00    +0.000 OA
BRANCH  29  31
ATOM     31  O   UNL     1      -1.299  12.625  17.333  0.00  0.00    +0.000 OA
ATOM     32  H   UNL     1      -2.040  12.425  16.729  0.00  0.00    +0.000 HD
ENDBRANCH  29  31
ENDBRANCH  28  29
ENDBRANCH  20  23
ENDBRANCH   1  17
TORSDOF 8
ENDMDL
MODEL 4
REMARK VINA RESULT:      -8.6      1.426      3.634
REMARK  Name = 
REMARK  9 active torsions:
REMARK  status: ('A' for Active; 'I' for Inactive)
REMARK    1  A    between atoms: C_1  and  C_2
REMARK    2  A    between atoms: C_2  and  C_3
REMARK    3  A    between atoms: C_3  and  C_4
REMARK    4  A    between atoms: C_4  and  N_5
REMARK    5  A    between atoms: N_15  and  C_16
REMARK    6  A    between atoms: C_16  and  C_17
REMARK    7  A    between atoms: C_20  and  C_21
REMARK    8  A    between atoms: C_26  and  C_27
REMARK    9  A    between atoms: C_27  and  O_29
REMARK                            x       y       z     vdW  Elec       q    Type
REMARK                         _______ _______ _______ _____ _____    ______ ____
ROOT
ATOM      1  C   UNL     1       3.433   7.141  17.711  0.00  0.00    +0.000 C 
ENDROOT
BRANCH   1  12
ATOM      2  N   UNL     1       4.345   5.228  19.043  0.00  0.00    +0.000 N 
ATOM      3  C   UNL     1       3.743   4.123  19.653  0.00  0.00    +0.000 C 
ATOM      4  O   UNL     1       4.226   3.391  20.502  0.00  0.00    +0.000 OA
ATOM      5  C   UNL     1       2.369   3.973  19.053  0.00  0.00    +0.000 C 
ATOM      6  C   UNL     1       2.126   2.619  18.373  0.00  0.00    +0.000 C 
ATOM      7  C   UNL     1       0.702   2.244  18.762  0.00  0.00    +0.000 C 
ATOM      8  C   UNL     1       0.530   2.806  20.160  0.00  0.00    +0.000 C 
ATOM      9  C   UNL     1       1.318   4.111  20.161  0.00  0.00    +0.000 C 
ATOM     10  C   UNL     1       2.293   5.076  18.023  0.00  0.00    +0.000 C 
ATOM     11  O   UNL     1       1.284   5.408  17.416  0.00  0.00    +0.000 OA
ATOM     12  N   UNL     1       3.556   5.708  17.956  0.00  0.00    +0.000 N 
BRANCH   2  13
ATOM     13  C   UNL     1       5.794   5.364  19.012  0.00  0.00    +0.000 C 
BRANCH  13  14
ATOM     14  C   UNL     1       6.510   4.685  17.837  0.00  0.00    +0.000 C 
BRANCH  14  16
ATOM     15  C   UNL     1       7.190   7.080  17.498  0.00  0.00    +0.000 C 
ATOM     16  C   UNL     1       7.291   5.662  16.961  0.00  0.00    +0.000 C 
ENDBRANCH  14  16
ENDBRANCH  13  14
ENDBRANCH   2  13
ENDBRANCH   1  12
BRANCH   1  17
ATOM     17  C   UNL     1       2.405   7.949  18.454  0.00  0.00    +0.000 A 
ATOM     18  C   UNL     1       2.182   7.759  19.823  0.00  0.00    +0.000 A 
ATOM     19  C   UNL     1       1.331   8.620  20.534  0.00  0.00    +0.000 A 
ATOM     20  C   UNL     1       0.630   9.653  19.894  0.00  0.00    +0.000 A 
ATOM     21  C   UNL     1       0.825   9.790  18.504  0.00  0.00    +0.000 A 
ATOM     22  C   UNL     1       1.711   8.970  17.799  0.00  0.00    +0.000 A 
BRANCH  20  23
ATOM     23  C   UNL     1      -0.246  10.608  20.627  0.00  0.00    +0.000 A 
ATOM     24  C   UNL     1      -0.760  11.719  19.909  0.00  0.00    +0.000 A 
ATOM     25  C   UNL     1      -1.582  12.687  20.497  0.00  0.00    +0.000 A 
ATOM     26  C   UNL     1      -1.906  12.590  21.841  0.00  0.00    +0.000 A 
ATOM     27  C   UNL     1      -1.405  11.522  22.586  0.00  0.00    +0.000 A 
ATOM     28  C   UNL     1      -0.594  10.530  21.998  0.00  0.00    +0.000 A 
BRANCH  28  29
ATOM     29  C   UNL     1      -0.156   9.466  22.943  0.00  0.00    +0.000 C 
ATOM     30  O   UNL     1       0.768   9.628  23.723  0.00  0.00    +0.000 OA
BRANCH  29  31
ATOM     31  O   UNL     1      -0.917   8.355  22.944  0.00  0.00    +0.000 OA
ATOM     32  H   UNL     1      -0.683   7.698  22.261  0.00  0.00    +0.000 HD
ENDBRANCH  29  31
ENDBRANCH  28  29
ENDBRANCH  20  23
ENDBRANCH   1  17
TORSDOF 8
ENDMDL
MODEL 5
REMARK VINA RESULT:      -8.6      2.480      9.105
REMARK  Name = 
REMARK  9 active torsions:
REMARK  status: ('A' for Active; 'I' for Inactive)
REMARK    1  A    between atoms: C_1  and  C_2
REMARK    2  A    between atoms: C_2  and  C_3
REMARK    3  A    between atoms: C_3  and  C_4
REMARK    4  A    between atoms: C_4  and  N_5
REMARK    5  A    between atoms: N_15  and  C_16
REMARK    6  A    between atoms: C_16  and  C_17
REMARK    7  A    between atoms: C_20  and  C_21
REMARK    8  A    between atoms: C_26  and  C_27
REMARK    9  A    between atoms: C_27  and  O_29
REMARK                            x       y       z     vdW  Elec       q    Type
REMARK                         _______ _______ _______ _____ _____    ______ ____
ROOT
ATOM      1  C   UNL     1       0.127   8.998  20.937  0.00  0.00    +0.000 C 
ENDROOT
BRANCH   1  12
ATOM      2  N   UNL     1      -1.061  10.909  19.840  0.00  0.00    +0.000 N 
ATOM      3  C   UNL     1      -1.710  12.039  20.346  0.00  0.00    +0.000 C 
ATOM      4  O   UNL     1      -2.487  12.773  19.756  0.00  0.00    +0.000 OA
ATOM      5  C   UNL     1      -1.260  12.215  21.772  0.00  0.00    +0.000 C 
ATOM      6  C   UNL     1      -0.583  13.563  22.055  0.00  0.00    +0.000 C 
ATOM      7  C   UNL     1      -1.115  13.982  23.419  0.00  0.00    +0.000 C 
ATOM      8  C   UNL     1      -2.535  13.448  23.452  0.00  0.00    +0.000 C 
ATOM      9  C   UNL     1      -2.477  12.124  22.700  0.00  0.00    +0.000 C 
ATOM     10  C   UNL     1      -0.265  11.097  21.986  0.00  0.00    +0.000 C 
ATOM     11  O   UNL     1       0.222  10.781  23.063  0.00  0.00    +0.000 OA
ATOM     12  N   UNL     1      -0.075  10.431  20.754  0.00  0.00    +0.000 N 
BRANCH   2  13
ATOM     13  C   UNL     1      -0.876  10.735  18.406  0.00  0.00    +0.000 C 
BRANCH  13  14
ATOM     14  C   UNL     1      -2.012  10.019  17.662  0.00  0.00    +0.000 C 
BRANCH  14  16
ATOM     15  C   UNL     1      -2.819  10.032  15.283  0.00  0.00    +0.000 C 
ATOM     16  C   UNL     1      -2.621  10.859  16.542  0.00  0.00    +0.000 C 
ENDBRANCH  14  16
ENDBRANCH  13  14
ENDBRANCH   2  13
ENDBRANCH   1  12
BRANCH   1  17
ATOM     17  C   UNL     1       1.182   8.277  20.144  0.00  0.00    +0.000 A 
ATOM     18  C   UNL     1       1.742   7.079  20.601  0.00  0.00    +0.000 A 
ATOM     19  C   UNL     1       2.612   6.339  19.784  0.00  0.00    +0.000 A 
ATOM     20  C   UNL     1       2.999   6.800  18.516  0.00  0.00    +0.000 A 
ATOM     21  C   UNL     1       2.468   8.039  18.101  0.00  0.00    +0.000 A 
ATOM     22  C   UNL     1       1.560   8.754  18.887  0.00  0.00    +0.000 A 
BRANCH  20  23
ATOM     23  C   UNL     1       3.886   6.021  17.610  0.00  0.00    +0.000 A 
ATOM     24  C   UNL     1       4.991   6.694  17.027  0.00  0.00    +0.000 A 
ATOM     25  C   UNL     1       5.883   6.066  16.149  0.00  0.00    +0.000 A 
ATOM     26  C   UNL     1       5.690   4.738  15.804  0.00  0.00    +0.000 A 
ATOM     27  C   UNL     1       4.603   4.047  16.343  0.00  0.00    +0.000 A 
ATOM     28  C   UNL     1       3.711   4.664  17.244  0.00  0.00    +0.000 A 
BRANCH  28  29
ATOM     29  C   UNL     1       2.617   3.773  17.718  0.00  0.00    +0.000 C 
ATOM     30  O   UNL     1       1.492   3.816  17.248  0.00  0.00    +0.000 OA
BRANCH  29  31
ATOM     31  O   UNL     1       2.985   2.851  18.629  0.00  0.00    +0.000 OA
ATOM     32  H   UNL     1       3.918   2.905  18.912  0.00  0.00    +0.000 HD
ENDBRANCH  29  31
ENDBRANCH  28  29
ENDBRANCH  20  23
ENDBRANCH   1  17
TORSDOF 8
ENDMDL
MODEL 6
REMARK VINA RESULT:      -8.6      2.182      4.229
REMARK  Name = 
REMARK  9 active torsions:
REMARK  status: ('A' for Active; 'I' for Inactive)
REMARK    1  A    between atoms: C_1  and  C_2
REMARK    2  A    between atoms: C_2  and  C_3
REMARK    3  A    between atoms: C_3  and  C_4
REMARK    4  A    between atoms: C_4  and  N_5
REMARK    5  A    between atoms: N_15  and  C_16
REMARK    6  A    between atoms: C_16  and  C_17
REMARK    7  A    between atoms: C_20  and  C_21
REMARK    8  A    between atoms: C_26  and  C_27
REMARK    9  A    between atoms: C_27  and  O_29
REMARK                            x       y       z     vdW  Elec       q    Type
REMARK                         _______ _______ _______ _____ _____    ______ ____
ROOT
ATOM      1  C   UNL     1       3.802   6.763  17.562  0.00  0.00    +0.000 C 
ENDROOT
BRANCH   1  12
ATOM      2  N   UNL     1       4.767   4.734  18.665  0.00  0.00    +0.000 N 
ATOM      3  C   UNL     1       4.187   3.638  19.311  0.00  0.00    +0.000 C 
ATOM      4  O   UNL     1       4.738   2.836  20.048  0.00  0.00    +0.000 OA
ATOM      5  C   UNL     1       2.734   3.602  18.916  0.00  0.00    +0.000 C 
ATOM      6  C   UNL     1       2.304   2.301  18.224  0.00  0.00    +0.000 C 
ATOM      7  C   UNL     1       0.929   1.994  18.804  0.00  0.00    +0.000 C 
ATOM      8  C   UNL     1       1.000   2.494  20.234  0.00  0.00    +0.000 C 
ATOM      9  C   UNL     1       1.866   3.747  20.172  0.00  0.00    +0.000 C 
ATOM     10  C   UNL     1       2.584   4.758  17.954  0.00  0.00    +0.000 C 
ATOM     11  O   UNL     1       1.521   5.181  17.518  0.00  0.00    +0.000 OA
ATOM     12  N   UNL     1       3.863   5.316  17.728  0.00  0.00    +0.000 N 
BRANCH   2  13
ATOM     13  C   UNL     1       6.202   4.783  18.425  0.00  0.00    +0.000 C 
BRANCH  13  14
ATOM     14  C   UNL     1       7.006   5.727  19.331  0.00  0.00    +0.000 C 
BRANCH  14  16
ATOM     15  C   UNL     1       7.445   7.539  17.647  0.00  0.00    +0.000 C 
ATOM     16  C   UNL     1       8.074   6.518  18.580  0.00  0.00    +0.000 C 
ENDBRANCH  14  16
ENDBRANCH  13  14
ENDBRANCH   2  13
ENDBRANCH   1  12
BRANCH   1  17
ATOM     17  C   UNL     1       2.764   7.565  18.299  0.00  0.00    +0.000 A 
ATOM     18  C   UNL     1       2.424   7.270  19.624  0.00  0.00    +0.000 A 
ATOM     19  C   UNL     1       1.568   8.116  20.347  0.00  0.00    +0.000 A 
ATOM     20  C   UNL     1       0.976   9.242  19.755  0.00  0.00    +0.000 A 
ATOM     21  C   UNL     1       1.287   9.487  18.401  0.00  0.00    +0.000 A 
ATOM     22  C   UNL     1       2.180   8.679  17.691  0.00  0.00    +0.000 A 
BRANCH  20  23
ATOM     23  C   UNL     1       0.097  10.181  20.505  0.00  0.00    +0.000 A 
ATOM     24  C   UNL     1       0.186  10.180  21.922  0.00  0.00    +0.000 A 
ATOM     25  C   UNL     1      -0.601  11.009  22.731  0.00  0.00    +0.000 A 
ATOM     26  C   UNL     1      -1.526  11.861  22.149  0.00  0.00    +0.000 A 
ATOM     27  C   UNL     1      -1.656  11.877  20.759  0.00  0.00    +0.000 A 
ATOM     28  C   UNL     1      -0.854  11.062  19.935  0.00  0.00    +0.000 A 
BRANCH  28  29
ATOM     29  C   UNL     1      -1.128  11.216  18.480  0.00  0.00    +0.000 C 
ATOM     30  O   UNL     1      -1.843  10.441  17.866  0.00  0.00    +0.000 OA
BRANCH  29  31
ATOM     31  O   UNL     1      -0.613  12.326  17.916  0.00  0.00    +0.000 OA
ATOM     32  H   UNL     1       0.352  12.430  18.024  0.00  0.00    +0.000 HD
ENDBRANCH  29  31
ENDBRANCH  28  29
ENDBRANCH  20  23
ENDBRANCH   1  17
TORSDOF 8
ENDMDL
MODEL 7
REMARK VINA RESULT:      -8.6      2.993      8.970
REMARK  Name = 
REMARK  9 active torsions:
REMARK  status: ('A' for Active; 'I' for Inactive)
REMARK    1  A    between atoms: C_1  and  C_2
REMARK    2  A    between atoms: C_2  and  C_3
REMARK    3  A    between atoms: C_3  and  C_4
REMARK    4  A    between atoms: C_4  and  N_5
REMARK    5  A    between atoms: N_15  and  C_16
REMARK    6  A    between atoms: C_16  and  C_17
REMARK    7  A    between atoms: C_20  and  C_21
REMARK    8  A    between atoms: C_26  and  C_27
REMARK    9  A    between atoms: C_27  and  O_29
REMARK                            x       y       z     vdW  Elec       q    Type
REMARK                         _______ _______ _______ _____ _____    ______ ____
ROOT
ATOM      1  C   UNL     1       0.284  10.252  20.699  0.00  0.00    +0.000 C 
ENDROOT
BRANCH   1  12
ATOM      2  N   UNL     1      -1.264  12.119  20.079  0.00  0.00    +0.000 N 
ATOM      3  C   UNL     1      -1.258  13.489  20.355  0.00  0.00    +0.000 C 
ATOM      4  O   UNL     1      -2.187  14.273  20.239  0.00  0.00    +0.000 OA
ATOM      5  C   UNL     1       0.132  13.848  20.812  0.00  0.00    +0.000 C 
ATOM      6  C   UNL     1       0.820  14.915  19.949  0.00  0.00    +0.000 C 
ATOM      7  C   UNL     1       1.541  15.810  20.948  0.00  0.00    +0.000 C 
ATOM      8  C   UNL     1       0.645  15.812  22.171  0.00  0.00    +0.000 C 
ATOM      9  C   UNL     1       0.066  14.404  22.239  0.00  0.00    +0.000 C 
ATOM     10  C   UNL     1       0.900  12.550  20.715  0.00  0.00    +0.000 C 
ATOM     11  O   UNL     1       2.031  12.364  21.144  0.00  0.00    +0.000 OA
ATOM     12  N   UNL     1       0.054  11.577  20.134  0.00  0.00    +0.000 N 
BRANCH   2  13
ATOM     13  C   UNL     1      -2.254  11.545  19.178  0.00  0.00    +0.000 C 
BRANCH  13  14
ATOM     14  C   UNL     1      -1.833  11.417  17.707  0.00  0.00    +0.000 C 
BRANCH  14  16
ATOM     15  C   UNL     1      -2.722  10.062  15.787  0.00  0.00    +0.000 C 
ATOM     16  C   UNL     1      -2.037  10.014  17.142  0.00  0.00    +0.000 C 
ENDBRANCH  14  16
ENDBRANCH  13  14
ENDBRANCH   2  13
ENDBRANCH   1  12
BRANCH   1  17
ATOM     17  C   UNL     1       1.015   9.207  19.901  0.00  0.00    +0.000 A 
ATOM     18  C   UNL     1       1.276   9.385  18.537  0.00  0.00    +0.000 A 
ATOM     19  C   UNL     1       2.088   8.476  17.841  0.00  0.00    +0.000 A 
ATOM     20  C   UNL     1       2.610   7.332  18.464  0.00  0.00    +0.000 A 
ATOM     21  C   UNL     1       2.286   7.142  19.823  0.00  0.00    +0.000 A 
ATOM     22  C   UNL     1       1.522   8.071  20.536  0.00  0.00    +0.000 A 
BRANCH  20  23
ATOM     23  C   UNL     1       3.507   6.371  17.764  0.00  0.00    +0.000 A 
ATOM     24  C   UNL     1       4.713   6.875  17.210  0.00  0.00    +0.000 A 
ATOM     25  C   UNL     1       5.625   6.068  16.519  0.00  0.00    +0.000 A 
ATOM     26  C   UNL     1       5.353   4.722  16.338  0.00  0.00    +0.000 A 
ATOM     27  C   UNL     1       4.169   4.192  16.853  0.00  0.00    +0.000 A 
ATOM     28  C   UNL     1       3.254   4.992  17.568  0.00  0.00    +0.000 A 
BRANCH  28  29
ATOM     29  C   UNL     1       2.051   4.256  18.046  0.00  0.00    +0.000 C 
ATOM     30  O   UNL     1       1.031   4.174  17.381  0.00  0.00    +0.000 OA
BRANCH  29  31
ATOM     31  O   UNL     1       2.206   3.606  19.215  0.00  0.00    +0.000 OA
ATOM     32  H   UNL     1       1.519   3.797  19.884  0.00  0.00    +0.000 HD
ENDBRANCH  29  31
ENDBRANCH  28  29
ENDBRANCH  20  23
ENDBRANCH   1  17
TORSDOF 8
ENDMDL
MODEL 8
REMARK VINA RESULT:      -8.6      2.099      4.354
REMARK  Name = 
REMARK  9 active torsions:
REMARK  status: ('A' for Active; 'I' for Inactive)
REMARK    1  A    between atoms: C_1  and  C_2
REMARK    2  A    between atoms: C_2  and  C_3
REMARK    3  A    between atoms: C_3  and  C_4
REMARK    4  A    between atoms: C_4  and  N_5
REMARK    5  A    between atoms: N_15  and  C_16
REMARK    6  A    between atoms: C_16  and  C_17
REMARK    7  A    between atoms: C_20  and  C_21
REMARK    8  A    between atoms: C_26  and  C_27
REMARK    9  A    between atoms: C_27  and  O_29
REMARK                            x       y       z     vdW  Elec       q    Type
REMARK                         _______ _______ _______ _____ _____    ______ ____
ROOT
ATOM      1  C   UNL     1       3.605   6.576  17.217  0.00  0.00    +0.000 C 
ENDROOT
BRANCH   1  12
ATOM      2  N   UNL     1       4.743   4.673  18.379  0.00  0.00    +0.000 N 
ATOM      3  C   UNL     1       4.268   3.623  19.170  0.00  0.00    +0.000 C 
ATOM      4  O   UNL     1       4.916   2.901  19.910  0.00  0.00    +0.000 OA
ATOM      5  C   UNL     1       2.784   3.518  18.931  0.00  0.00    +0.000 C 
ATOM      6  C   UNL     1       2.330   2.152  18.398  0.00  0.00    +0.000 C 
ATOM      7  C   UNL     1       1.032   1.862  19.139  0.00  0.00    +0.000 C 
ATOM      8  C   UNL     1       1.230   2.485  20.508  0.00  0.00    +0.000 C 
ATOM      9  C   UNL     1       2.043   3.748  20.254  0.00  0.00    +0.000 C 
ATOM     10  C   UNL     1       2.500   4.582  17.897  0.00  0.00    +0.000 C 
ATOM     11  O   UNL     1       1.385   4.940  17.539  0.00  0.00    +0.000 OA
ATOM     12  N   UNL     1       3.730   5.150  17.494  0.00  0.00    +0.000 N 
BRANCH   2  13
ATOM     13  C   UNL     1       6.144   4.737  17.989  0.00  0.00    +0.000 C 
BRANCH  13  14
ATOM     14  C   UNL     1       6.916   5.982  18.447  0.00  0.00    +0.000 C 
BRANCH  14  16
ATOM     15  C   UNL     1       7.880   8.206  17.784  0.00  0.00    +0.000 C 
ATOM     16  C   UNL     1       7.402   6.850  17.290  0.00  0.00    +0.000 C 
ENDBRANCH  14  16
ENDBRANCH  13  14
ENDBRANCH   2  13
ENDBRANCH   1  12
BRANCH   1  17
ATOM     17  C   UNL     1       2.871   7.471  18.177  0.00  0.00    +0.000 A 
ATOM     18  C   UNL     1       2.245   8.645  17.743  0.00  0.00    +0.000 A 
ATOM     19  C   UNL     1       1.439   9.390  18.618  0.00  0.00    +0.000 A 
ATOM     20  C   UNL     1       1.282   9.024  19.964  0.00  0.00    +0.000 A 
ATOM     21  C   UNL     1       1.970   7.870  20.394  0.00  0.00    +0.000 A 
ATOM     22  C   UNL     1       2.731   7.094  19.516  0.00  0.00    +0.000 A 
BRANCH  20  23
ATOM     23  C   UNL     1       0.402   9.769  20.906  0.00  0.00    +0.000 A 
ATOM     24  C   UNL     1       0.264   9.261  22.224  0.00  0.00    +0.000 A 
ATOM     25  C   UNL     1      -0.547   9.870  23.189  0.00  0.00    +0.000 A 
ATOM     26  C   UNL     1      -1.271  11.005  22.863  0.00  0.00    +0.000 A 
ATOM     27  C   UNL     1      -1.176  11.525  21.571  0.00  0.00    +0.000 A 
ATOM     28  C   UNL     1      -0.346  10.932  20.598  0.00  0.00    +0.000 A 
BRANCH  28  29
ATOM     29  C   UNL     1      -0.367  11.624  19.281  0.00  0.00    +0.000 C 
ATOM     30  O   UNL     1      -1.178  11.348  18.412  0.00  0.00    +0.000 OA
BRANCH  29  31
ATOM     31  O   UNL     1       0.505  12.643  19.157  0.00  0.00    +0.000 OA
ATOM     32  H   UNL     1       1.083  12.594  18.371  0.00  0.00    +0.000 HD
ENDBRANCH  29  31
ENDBRANCH  28  29
ENDBRANCH  20  23
ENDBRANCH   1  17
TORSDOF 8
ENDMDL
MODEL 9
REMARK VINA RESULT:      -8.5      1.615      2.198
REMARK  Name = 
REMARK  9 active torsions:
REMARK  status: ('A' for Active; 'I' for Inactive)
REMARK    1  A    between atoms: C_1  and  C_2
REMARK    2  A    between atoms: C_2  and  C_3
REMARK    3  A    between atoms: C_3  and  C_4
REMARK    4  A    between atoms: C_4  and  N_5
REMARK    5  A    between atoms: N_15  and  C_16
REMARK    6  A    between atoms: C_16  and  C_17
REMARK    7  A    between atoms: C_20  and  C_21
REMARK    8  A    between atoms: C_26  and  C_27
REMARK    9  A    between atoms: C_27  and  O_29
REMARK                            x       y       z     vdW  Elec       q    Type
REMARK                         _______ _______ _______ _____ _____    ______ ____
ROOT
ATOM      1  C   UNL     1       2.562   7.504  17.468  0.00  0.00    +0.000 C 
ENDROOT
BRANCH   1  12
ATOM      2  N   UNL     1       2.831   5.059  17.932  0.00  0.00    +0.000 N 
ATOM      3  C   UNL     1       3.866   4.153  17.681  0.00  0.00    +0.000 C 
ATOM      4  O   UNL     1       3.804   2.933  17.699  0.00  0.00    +0.000 OA
ATOM      5  C   UNL     1       5.107   4.957  17.400  0.00  0.00    +0.000 C 
ATOM      6  C   UNL     1       6.273   4.669  18.356  0.00  0.00    +0.000 C 
ATOM      7  C   UNL     1       7.508   4.661  17.466  0.00  0.00    +0.000 C 
ATOM      8  C   UNL     1       7.020   4.099  16.144  0.00  0.00    +0.000 C 
ATOM      9  C   UNL     1       5.604   4.639  15.984  0.00  0.00    +0.000 C 
ATOM     10  C   UNL     1       4.664   6.392  17.565  0.00  0.00    +0.000 C 
ATOM     11  O   UNL     1       5.329   7.376  17.269  0.00  0.00    +0.000 OA
ATOM     12  N   UNL     1       3.327   6.393  18.024  0.00  0.00    +0.000 N 
BRANCH   2  13
ATOM     13  C   UNL     1       1.660   4.658  18.699  0.00  0.00    +0.000 C 
BRANCH  13  14
ATOM     14  C   UNL     1       1.788   4.755  20.225  0.00  0.00    +0.000 C 
BRANCH  14  16
ATOM     15  C   UNL     1       2.526   2.673  21.422  0.00  0.00    +0.000 C 
ATOM     16  C   UNL     1       1.335   3.490  20.949  0.00  0.00    +0.000 C 
ENDBRANCH  14  16
ENDBRANCH  13  14
ENDBRANCH   2  13
ENDBRANCH   1  12
BRANCH   1  17
ATOM     17  C   UNL     1       1.842   8.457  18.382  0.00  0.00    +0.000 A 
ATOM     18  C   UNL     1       1.106   9.534  17.874  0.00  0.00    +0.000 A 
ATOM     19  C   UNL     1       0.317  10.324  18.725  0.00  0.00    +0.000 A 
ATOM     20  C   UNL     1       0.288  10.106  20.111  0.00  0.00    +0.000 A 
ATOM     21  C   UNL     1       1.084   9.053  20.608  0.00  0.00    +0.000 A 
ATOM     22  C   UNL     1       1.830   8.229  19.760  0.00  0.00    +0.000 A 
BRANCH  20  23
ATOM     23  C   UNL     1      -0.569  10.900  21.035  0.00  0.00    +0.000 A 
ATOM     24  C   UNL     1      -0.709  10.437  22.369  0.00  0.00    +0.000 A 
ATOM     25  C   UNL     1      -1.499  11.094  23.320  0.00  0.00    +0.000 A 
ATOM     26  C   UNL     1      -2.200  12.234  22.963  0.00  0.00    +0.000 A 
ATOM     27  C   UNL     1      -2.103  12.711  21.655  0.00  0.00    +0.000 A 
ATOM     28  C   UNL     1      -1.293  12.069  20.695  0.00  0.00    +0.000 A 
BRANCH  28  29
ATOM     29  C   UNL     1      -1.309  12.720  19.357  0.00  0.00    +0.000 C 
ATOM     30  O   UNL     1      -0.426  13.480  18.992  0.00  0.00    +0.000 OA
BRANCH  29  31
ATOM     31  O   UNL     1      -2.309  12.331  18.544  0.00  0.00    +0.000 OA
ATOM     32  H   UNL     1      -3.042  11.863  18.990  0.00  0.00    +0.000 HD
ENDBRANCH  29  31
ENDBRANCH  28  29
ENDBRANCH  20  23
ENDBRANCH   1  17
TORSDOF 8
ENDMDL
