MODEL 1
REMARK VINA RESULT:      -8.0      0.000      0.000
REMARK  Name = 
REMARK  11 active torsions:
REMARK  status: ('A' for Active; 'I' for Inactive)
REMARK    1  A    between atoms: C_1  and  O_2
REMARK    2  A    between atoms: O_2  and  C_3
REMARK    3  A    between atoms: C_6  and  C_7
REMARK    4  A    between atoms: C_8  and  C_9
REMARK    5  A    between atoms: C_11  and  O_12
REMARK    6  A    between atoms: O_12  and  C_13
REMARK    7  A    between atoms: C_15  and  O_16
REMARK    8  A    between atoms: O_16  and  C_17
REMARK    9  A    between atoms: C_18  and  C_19
REMARK   10  A    between atoms: C_19  and  N_20
REMARK   11  A    between atoms: N_20  and  C_21
REMARK                            x       y       z     vdW  Elec       q    Type
REMARK                         _______ _______ _______ _____ _____    ______ ____
ROOT
ATOM      1  C   UNL     1       4.565   6.117  17.566  0.00  0.00    +0.000 A 
ATOM      2  C   UNL     1       5.661   6.999  17.549  0.00  0.00    +0.000 A 
ATOM      3  C   UNL     1       6.813   6.718  16.822  0.00  0.00    +0.000 A 
ATOM      4  C   UNL     1       6.892   5.520  16.125  0.00  0.00    +0.000 A 
ATOM      5  C   UNL     1       5.820   4.616  16.124  0.00  0.00    +0.000 A 
ATOM      6  C   UNL     1       4.618   4.917  16.820  0.00  0.00    +0.000 A 
ENDROOT
BRANCH   1   8
ATOM      7  C   UNL     1       2.738   7.662  18.125  0.00  0.00    +0.000 C 
ATOM      8  C   UNL     1       3.447   6.560  18.425  0.00  0.00    +0.000 C 
BRANCH   7  12
ATOM      9  C   UNL     1       0.064   9.584  20.892  0.00  0.00    +0.000 A 
ATOM     10  C   UNL     1       0.846   8.493  21.263  0.00  0.00    +0.000 A 
ATOM     11  C   UNL     1       1.749   7.924  20.362  0.00  0.00    +0.000 A 
ATOM     12  C   UNL     1       1.872   8.417  19.055  0.00  0.00    +0.000 A 
ATOM     13  C   UNL     1       1.106   9.533  18.698  0.00  0.00    +0.000 A 
ATOM     14  C   UNL     1       0.202  10.110  19.608  0.00  0.00    +0.000 A 
BRANCH   9  16
ATOM     15  C   UNL     1      -0.439   9.787  23.200  0.00  0.00    +0.000 C 
ATOM     16  O   UNL     1      -0.817  10.005  21.847  0.00  0.00    +0.000 OA
ENDBRANCH   9  16
ENDBRANCH   7  12
ENDBRANCH   1   8
BRANCH   3  17
ATOM     17  O   UNL     1       7.791   7.676  16.879  0.00  0.00    +0.000 OA
ATOM     18  C   UNL     1       8.173   8.121  18.176  0.00  0.00    +0.000 C 
ENDBRANCH   3  17
BRANCH   5  19
ATOM     19  O   UNL     1       5.869   3.431  15.428  0.00  0.00    +0.000 OA
ATOM     20  C   UNL     1       6.145   3.513  14.027  0.00  0.00    +0.000 C 
ENDBRANCH   5  19
BRANCH   6  21
ATOM     21  C   UNL     1       3.476   3.917  16.810  0.00  0.00    +0.000 C 
BRANCH  21  22
ATOM     22  N   UNL     1       3.635   2.738  17.664  0.00  0.00    +0.000 NA
ATOM     23  H   UNL     1       4.611   2.650  17.943  0.00  0.00    +0.000 HD
BRANCH  22  24
ATOM     24  C   UNL     1       2.775   2.693  18.840  0.00  0.00    +0.000 C 
ATOM     25  C   UNL     1       3.363   3.323  20.101  0.00  0.00    +0.000 C 
ATOM     26  C   UNL     1       2.155   3.698  20.950  0.00  0.00    +0.000 C 
ATOM     27  C   UNL     1       0.984   3.862  19.987  0.00  0.00    +0.000 C 
ATOM     28  C   UNL     1       1.524   3.542  18.598  0.00  0.00    +0.000 C 
ENDBRANCH  22  24
ENDBRANCH  21  22
ENDBRANCH   6  21
TORSDOF 8
ENDMDL
MODEL 2
REMARK VINA RESULT:      -7.4      0.533      1.305
REMARK  Name = 
REMARK  11 active torsions:
REMARK  status: ('A' for Active; 'I' for Inactive)
REMARK    1  A    between atoms: C_1  and  O_2
REMARK    2  A    between atoms: O_2  and  C_3
REMARK    3  A    between atoms: C_6  and  C_7
REMARK    4  A    between atoms: C_8  and  C_9
REMARK    5  A    between atoms: C_11  and  O_12
REMARK    6  A    between atoms: O_12  and  C_13
REMARK    7  A    between atoms: C_15  and  O_16
REMARK    8  A    between atoms: O_16  and  C_17
REMARK    9  A    between atoms: C_18  and  C_19
REMARK   10  A    between atoms: C_19  and  N_20
REMARK   11  A    between atoms: N_20  and  C_21
REMARK                            x       y       z     vdW  Elec       q    Type
REMARK                         _______ _______ _______ _____ _____    ______ ____
ROOT
ATOM      1  C   UNL     1       4.328   6.252  17.516  0.00  0.00    +0.000 A 
ATOM      2  C   UNL     1       5.355   7.214  17.528  0.00  0.00    +0.000 A 
ATOM      3  C   UNL     1       6.582   6.979  16.916  0.00  0.00    +0.000 A 
ATOM      4  C   UNL     1       6.807   5.750  16.312  0.00  0.00    +0.000 A 
ATOM      5  C   UNL     1       5.807   4.767  16.287  0.00  0.00    +0.000 A 
ATOM      6  C   UNL     1       4.532   5.016  16.861  0.00  0.00    +0.000 A 
ENDROOT
BRANCH   1   8
ATOM      7  C   UNL     1       2.681   7.932  18.225  0.00  0.00    +0.000 C 
ATOM      8  C   UNL     1       3.112   6.659  18.250  0.00  0.00    +0.000 C 
BRANCH   7  12
ATOM      9  C   UNL     1       0.078  10.004  20.951  0.00  0.00    +0.000 A 
ATOM     10  C   UNL     1       0.223  10.404  19.625  0.00  0.00    +0.000 A 
ATOM     11  C   UNL     1       1.030   9.679  18.745  0.00  0.00    +0.000 A 
ATOM     12  C   UNL     1       1.736   8.548  19.179  0.00  0.00    +0.000 A 
ATOM     13  C   UNL     1       1.562   8.133  20.505  0.00  0.00    +0.000 A 
ATOM     14  C   UNL     1       0.743   8.859  21.389  0.00  0.00    +0.000 A 
BRANCH   9  16
ATOM     15  C   UNL     1      -0.904  10.437  23.065  0.00  0.00    +0.000 C 
ATOM     16  O   UNL     1      -0.692  10.833  21.716  0.00  0.00    +0.000 OA
ENDBRANCH   9  16
ENDBRANCH   7  12
ENDBRANCH   1   8
BRANCH   3  17
ATOM     17  O   UNL     1       7.479   8.012  16.986  0.00  0.00    +0.000 OA
ATOM     18  C   UNL     1       8.178   8.168  18.216  0.00  0.00    +0.000 C 
ENDBRANCH   3  17
BRANCH   5  19
ATOM     19  O   UNL     1       6.001   3.548  15.679  0.00  0.00    +0.000 OA
ATOM     20  C   UNL     1       6.221   3.555  14.267  0.00  0.00    +0.000 C 
ENDBRANCH   5  19
BRANCH   6  21
ATOM     21  C   UNL     1       3.470   3.931  16.828  0.00  0.00    +0.000 C 
BRANCH  21  22
ATOM     22  N   UNL     1       3.507   2.950  17.915  0.00  0.00    +0.000 NA
ATOM     23  H   UNL     1       4.464   2.633  18.054  0.00  0.00    +0.000 HD
BRANCH  22  24
ATOM     24  C   UNL     1       2.939   3.395  19.182  0.00  0.00    +0.000 C 
ATOM     25  C   UNL     1       1.423   3.257  19.300  0.00  0.00    +0.000 C 
ATOM     26  C   UNL     1       1.152   3.189  20.798  0.00  0.00    +0.000 C 
ATOM     27  C   UNL     1       2.437   2.683  21.446  0.00  0.00    +0.000 C 
ATOM     28  C   UNL     1       3.444   2.501  20.317  0.00  0.00    +0.000 C 
ENDBRANCH  22  24
ENDBRANCH  21  22
ENDBRANCH   6  21
TORSDOF 8
ENDMDL
MODEL 3
REMARK VINA RESULT:      -7.0      1.792      7.348
REMARK  Name = 
REMARK  11 active torsions:
REMARK  status: ('A' for Active; 'I' for Inactive)
REMARK    1  A    between atoms: C_1  and  O_2
REMARK    2  A    between atoms: O_2  and  C_3
REMARK    3  A    between atoms: C_6  and  C_7
REMARK    4  A    between atoms: C_8  and  C_9
REMARK    5  A    between atoms: C_11  and  O_12
REMARK    6  A    between atoms: O_12  and  C_13
REMARK    7  A    between atoms: C_15  and  O_16
REMARK    8  A    between atoms: O_16  and  C_17
REMARK    9  A    between atoms: C_18  and  C_19
REMARK   10  A    between atoms: C_19  and  N_20
REMARK   11  A    between atoms: N_20  and  C_21
REMARK                            x       y       z     vdW  Elec       q    Type
REMARK                         _______ _______ _______ _____ _____    ______ ____
ROOT
ATOM      1  C   UNL     1       1.562   8.894  18.972  0.00  0.00    +0.000 A 
ATOM      2  C   UNL     1       0.915   9.988  18.366  0.00  0.00    +0.000 A 
ATOM      3  C   UNL     1      -0.093  10.691  19.016  0.00  0.00    +0.000 A 
ATOM      4  C   UNL     1      -0.492  10.279  20.280  0.00  0.00    +0.000 A 
ATOM      5  C   UNL     1       0.128   9.191  20.911  0.00  0.00    +0.000 A 
ATOM      6  C   UNL     1       1.195   8.498  20.278  0.00  0.00    +0.000 A 
ENDROOT
BRANCH   1   8
ATOM      7  C   UNL     1       2.503   6.933  17.830  0.00  0.00    +0.000 C 
ATOM      8  C   UNL     1       2.577   8.244  18.117  0.00  0.00    +0.000 C 
BRANCH   7  12
ATOM      9  C   UNL     1       5.667   4.614  16.066  0.00  0.00    +0.000 A 
ATOM     10  C   UNL     1       5.647   6.005  15.995  0.00  0.00    +0.000 A 
ATOM     11  C   UNL     1       4.639   6.736  16.626  0.00  0.00    +0.000 A 
ATOM     12  C   UNL     1       3.607   6.092  17.323  0.00  0.00    +0.000 A 
ATOM     13  C   UNL     1       3.650   4.695  17.417  0.00  0.00    +0.000 A 
ATOM     14  C   UNL     1       4.670   3.959  16.787  0.00  0.00    +0.000 A 
BRANCH   9  16
ATOM     15  C   UNL     1       6.551   4.044  13.941  0.00  0.00    +0.000 C 
ATOM     16  O   UNL     1       6.674   4.021  15.357  0.00  0.00    +0.000 OA
ENDBRANCH   9  16
ENDBRANCH   7  12
ENDBRANCH   1   8
BRANCH   3  17
ATOM     17  O   UNL     1      -0.618  11.746  18.316  0.00  0.00    +0.000 OA
ATOM     18  C   UNL     1      -1.916  11.561  17.763  0.00  0.00    +0.000 C 
ENDBRANCH   3  17
BRANCH   5  19
ATOM     19  O   UNL     1      -0.239   8.775  22.170  0.00  0.00    +0.000 OA
ATOM     20  C   UNL     1      -0.231   9.760  23.207  0.00  0.00    +0.000 C 
ENDBRANCH   5  19
BRANCH   6  21
ATOM     21  C   UNL     1       1.843   7.318  20.980  0.00  0.00    +0.000 C 
BRANCH  21  22
ATOM     22  N   UNL     1       1.081   6.067  20.988  0.00  0.00    +0.000 NA
ATOM     23  H   UNL     1       0.246   6.174  20.416  0.00  0.00    +0.000 HD
BRANCH  22  24
ATOM     24  C   UNL     1       1.819   4.879  20.575  0.00  0.00    +0.000 C 
ATOM     25  C   UNL     1       2.355   4.018  21.716  0.00  0.00    +0.000 C 
ATOM     26  C   UNL     1       2.522   2.629  21.111  0.00  0.00    +0.000 C 
ATOM     27  C   UNL     1       1.563   2.555  19.928  0.00  0.00    +0.000 C 
ATOM     28  C   UNL     1       0.882   3.916  19.843  0.00  0.00    +0.000 C 
ENDBRANCH  22  24
ENDBRANCH  21  22
ENDBRANCH   6  21
TORSDOF 8
ENDMDL
MODEL 4
REMARK VINA RESULT:      -7.0      1.898      7.170
REMARK  Name = 
REMARK  11 active torsions:
REMARK  status: ('A' for Active; 'I' for Inactive)
REMARK    1  A    between atoms: C_1  and  O_2
REMARK    2  A    between atoms: O_2  and  C_3
REMARK    3  A    between atoms: C_6  and  C_7
REMARK    4  A    between atoms: C_8  and  C_9
REMARK    5  A    between atoms: C_11  and  O_12
REMARK    6  A    between atoms: O_12  and  C_13
REMARK    7  A    between atoms: C_15  and  O_16
REMARK    8  A    between atoms: O_16  and  C_17
REMARK    9  A    between atoms: C_18  and  C_19
REMARK   10  A    between atoms: C_19  and  N_20
REMARK   11  A    between atoms: N_20  and  C_21
REMARK                            x       y       z     vdW  Elec       q    Type
REMARK                         _______ _______ _______ _____ _____    ______ ____
ROOT
ATOM      1  C   UNL     1       2.290   7.717  18.727  0.00  0.00    +0.000 A 
ATOM      2  C   UNL     1       2.089   8.982  18.143  0.00  0.00    +0.000 A 
ATOM      3  C   UNL     1       1.462  10.013  18.834  0.00  0.00    +0.000 A 
ATOM      4  C   UNL     1       0.994   9.773  20.119  0.00  0.00    +0.000 A 
ATOM      5  C   UNL     1       1.173   8.523  20.728  0.00  0.00    +0.000 A 
ATOM      6  C   UNL     1       1.859   7.479  20.051  0.00  0.00    +0.000 A 
ENDROOT
BRANCH   1   8
ATOM      7  C   UNL     1       4.235   6.422  17.965  0.00  0.00    +0.000 C 
ATOM      8  C   UNL     1       2.935   6.735  17.830  0.00  0.00    +0.000 C 
BRANCH   7  12
ATOM      9  C   UNL     1       6.436   4.486  14.818  0.00  0.00    +0.000 A 
ATOM     10  C   UNL     1       5.661   5.619  14.584  0.00  0.00    +0.000 A 
ATOM     11  C   UNL     1       5.003   6.262  15.634  0.00  0.00    +0.000 A 
ATOM     12  C   UNL     1       5.082   5.771  16.945  0.00  0.00    +0.000 A 
ATOM     13  C   UNL     1       5.887   4.649  17.179  0.00  0.00    +0.000 A 
ATOM     14  C   UNL     1       6.556   4.006  16.121  0.00  0.00    +0.000 A 
BRANCH   9  16
ATOM     15  C   UNL     1       6.060   3.473  12.708  0.00  0.00    +0.000 C 
ATOM     16  O   UNL     1       6.976   3.922  13.697  0.00  0.00    +0.000 OA
ENDBRANCH   9  16
ENDBRANCH   7  12
ENDBRANCH   1   8
BRANCH   3  17
ATOM     17  O   UNL     1       1.354  11.196  18.152  0.00  0.00    +0.000 OA
ATOM     18  C   UNL     1       1.709  12.377  18.863  0.00  0.00    +0.000 C 
ENDBRANCH   3  17
BRANCH   5  19
ATOM     19  O   UNL     1       0.732   8.267  22.006  0.00  0.00    +0.000 OA
ATOM     20  C   UNL     1       0.380   9.396  22.809  0.00  0.00    +0.000 C 
ENDBRANCH   5  19
BRANCH   6  21
ATOM     21  C   UNL     1       2.032   6.132  20.731  0.00  0.00    +0.000 C 
BRANCH  21  22
ATOM     22  N   UNL     1       1.012   5.121  20.442  0.00  0.00    +0.000 NA
ATOM     23  H   UNL     1       0.308   5.517  19.822  0.00  0.00    +0.000 HD
BRANCH  22  24
ATOM     24  C   UNL     1       1.510   3.866  19.894  0.00  0.00    +0.000 C 
ATOM     25  C   UNL     1       1.401   3.729  18.377  0.00  0.00    +0.000 C 
ATOM     26  C   UNL     1       2.465   2.706  17.999  0.00  0.00    +0.000 C 
ATOM     27  C   UNL     1       3.512   2.743  19.108  0.00  0.00    +0.000 C 
ATOM     28  C   UNL     1       3.019   3.760  20.129  0.00  0.00    +0.000 C 
ENDBRANCH  22  24
ENDBRANCH  21  22
ENDBRANCH   6  21
TORSDOF 8
ENDMDL
MODEL 5
REMARK VINA RESULT:      -6.7      1.847      7.223
REMARK  Name = 
REMARK  11 active torsions:
REMARK  status: ('A' for Active; 'I' for Inactive)
REMARK    1  A    between atoms: C_1  and  O_2
REMARK    2  A    between atoms: O_2  and  C_3
REMARK    3  A    between atoms: C_6  and  C_7
REMARK    4  A    between atoms: C_8  and  C_9
REMARK    5  A    between atoms: C_11  and  O_12
REMARK    6  A    between atoms: O_12  and  C_13
REMARK    7  A    between atoms: C_15  and  O_16
REMARK    8  A    between atoms: O_16  and  C_17
REMARK    9  A    between atoms: C_18  and  C_19
REMARK   10  A    between atoms: C_19  and  N_20
REMARK   11  A    between atoms: N_20  and  C_21
REMARK                            x       y       z     vdW  Elec       q    Type
REMARK                         _______ _______ _______ _____ _____    ______ ____
ROOT
ATOM      1  C   UNL     1       1.888   7.998  18.966  0.00  0.00    +0.000 A 
ATOM      2  C   UNL     1       1.682   9.272  18.405  0.00  0.00    +0.000 A 
ATOM      3  C   UNL     1       1.177  10.327  19.158  0.00  0.00    +0.000 A 
ATOM      4  C   UNL     1       0.836  10.103  20.485  0.00  0.00    +0.000 A 
ATOM      5  C   UNL     1       1.024   8.844  21.073  0.00  0.00    +0.000 A 
ATOM      6  C   UNL     1       1.589   7.774  20.329  0.00  0.00    +0.000 A 
ENDROOT
BRANCH   1   8
ATOM      7  C   UNL     1       3.685   6.626  18.002  0.00  0.00    +0.000 C 
ATOM      8  C   UNL     1       2.391   6.991  18.007  0.00  0.00    +0.000 C 
BRANCH   7  12
ATOM      9  C   UNL     1       5.893   4.467  15.009  0.00  0.00    +0.000 A 
ATOM     10  C   UNL     1       5.125   3.814  15.970  0.00  0.00    +0.000 A 
ATOM     11  C   UNL     1       4.372   4.540  16.894  0.00  0.00    +0.000 A 
ATOM     12  C   UNL     1       4.389   5.942  16.898  0.00  0.00    +0.000 A 
ATOM     13  C   UNL     1       5.138   6.593  15.910  0.00  0.00    +0.000 A 
ATOM     14  C   UNL     1       5.892   5.860  14.974  0.00  0.00    +0.000 A 
BRANCH   9  16
ATOM     15  C   UNL     1       6.197   3.523  12.855  0.00  0.00    +0.000 C 
ATOM     16  O   UNL     1       6.626   3.640  14.205  0.00  0.00    +0.000 OA
ENDBRANCH   9  16
ENDBRANCH   7  12
ENDBRANCH   1   8
BRANCH   3  17
ATOM     17  O   UNL     1       1.049  11.516  18.489  0.00  0.00    +0.000 OA
ATOM     18  C   UNL     1      -0.075  12.321  18.829  0.00  0.00    +0.000 C 
ENDBRANCH   3  17
BRANCH   5  19
ATOM     19  O   UNL     1       0.710   8.603  22.390  0.00  0.00    +0.000 OA
ATOM     20  C   UNL     1      -0.037   9.612  23.075  0.00  0.00    +0.000 C 
ENDBRANCH   5  19
BRANCH   6  21
ATOM     21  C   UNL     1       1.774   6.418  20.988  0.00  0.00    +0.000 C 
BRANCH  21  22
ATOM     22  N   UNL     1       0.813   5.377  20.616  0.00  0.00    +0.000 NA
ATOM     23  H   UNL     1       0.334   5.648  19.759  0.00  0.00    +0.000 HD
BRANCH  22  24
ATOM     24  C   UNL     1       1.363   4.035  20.478  0.00  0.00    +0.000 C 
ATOM     25  C   UNL     1       1.139   3.377  19.118  0.00  0.00    +0.000 C 
ATOM     26  C   UNL     1       2.248   2.338  18.999  0.00  0.00    +0.000 C 
ATOM     27  C   UNL     1       3.377   2.806  19.912  0.00  0.00    +0.000 C 
ATOM     28  C   UNL     1       2.890   4.089  20.573  0.00  0.00    +0.000 C 
ENDBRANCH  22  24
ENDBRANCH  21  22
ENDBRANCH   6  21
TORSDOF 8
ENDMDL
MODEL 6
REMARK VINA RESULT:      -6.7      3.232      8.386
REMARK  Name = 
REMARK  11 active torsions:
REMARK  status: ('A' for Active; 'I' for Inactive)
REMARK    1  A    between atoms: C_1  and  O_2
REMARK    2  A    between atoms: O_2  and  C_3
REMARK    3  A    between atoms: C_6  and  C_7
REMARK    4  A    between atoms: C_8  and  C_9
REMARK    5  A    between atoms: C_11  and  O_12
REMARK    6  A    between atoms: O_12  and  C_13
REMARK    7  A    between atoms: C_15  and  O_16
REMARK    8  A    between atoms: O_16  and  C_17
REMARK    9  A    between atoms: C_18  and  C_19
REMARK   10  A    between atoms: C_19  and  N_20
REMARK   11  A    between atoms: N_20  and  C_21
REMARK                            x       y       z     vdW  Elec       q    Type
REMARK                         _______ _______ _______ _____ _____    ______ ____
ROOT
ATOM      1  C   UNL     1       0.415  10.120  18.424  0.00  0.00    +0.000 A 
ATOM      2  C   UNL     1      -0.620   9.587  17.633  0.00  0.00    +0.000 A 
ATOM      3  C   UNL     1      -1.695  10.366  17.218  0.00  0.00    +0.000 A 
ATOM      4  C   UNL     1      -1.761  11.691  17.624  0.00  0.00    +0.000 A 
ATOM      5  C   UNL     1      -0.749  12.253  18.416  0.00  0.00    +0.000 A 
ATOM      6  C   UNL     1       0.380  11.481  18.802  0.00  0.00    +0.000 A 
ENDROOT
BRANCH   1   8
ATOM      7  C   UNL     1       2.216   8.542  17.874  0.00  0.00    +0.000 C 
ATOM      8  C   UNL     1       1.450   9.137  18.805  0.00  0.00    +0.000 C 
BRANCH   7  12
ATOM      9  C   UNL     1       4.546   5.026  18.715  0.00  0.00    +0.000 A 
ATOM     10  C   UNL     1       3.402   5.341  19.443  0.00  0.00    +0.000 A 
ATOM     11  C   UNL     1       2.631   6.458  19.111  0.00  0.00    +0.000 A 
ATOM     12  C   UNL     1       3.002   7.305  18.058  0.00  0.00    +0.000 A 
ATOM     13  C   UNL     1       4.137   6.966  17.310  0.00  0.00    +0.000 A 
ATOM     14  C   UNL     1       4.909   5.836  17.640  0.00  0.00    +0.000 A 
BRANCH   9  16
ATOM     15  C   UNL     1       4.464   2.850  19.653  0.00  0.00    +0.000 C 
ATOM     16  O   UNL     1       5.238   3.944  19.180  0.00  0.00    +0.000 OA
ENDBRANCH   9  16
ENDBRANCH   7  12
ENDBRANCH   1   8
BRANCH   3  17
ATOM     17  O   UNL     1      -2.617   9.722  16.434  0.00  0.00    +0.000 OA
ATOM     18  C   UNL     1      -2.942  10.341  15.194  0.00  0.00    +0.000 C 
ENDBRANCH   3  17
BRANCH   5  19
ATOM     19  O   UNL     1      -0.785  13.568  18.817  0.00  0.00    +0.000 OA
ATOM     20  C   UNL     1      -1.672  13.896  19.889  0.00  0.00    +0.000 C 
ENDBRANCH   5  19
BRANCH   6  21
ATOM     21  C   UNL     1       1.457  12.111  19.667  0.00  0.00    +0.000 C 
BRANCH  21  22
ATOM     22  N   UNL     1       1.256  12.035  21.116  0.00  0.00    +0.000 NA
ATOM     23  H   UNL     1       1.074  12.967  21.484  0.00  0.00    +0.000 HD
BRANCH  22  24
ATOM     24  C   UNL     1       0.218  11.112  21.559  0.00  0.00    +0.000 C 
ATOM     25  C   UNL     1       0.714   9.906  22.352  0.00  0.00    +0.000 C 
ATOM     26  C   UNL     1      -0.485   9.462  23.180  0.00  0.00    +0.000 C 
ATOM     27  C   UNL     1      -1.381  10.688  23.333  0.00  0.00    +0.000 C 
ATOM     28  C   UNL     1      -0.704  11.813  22.560  0.00  0.00    +0.000 C 
ENDBRANCH  22  24
ENDBRANCH  21  22
ENDBRANCH   6  21
TORSDOF 8
ENDMDL
MODEL 7
REMARK VINA RESULT:      -6.7      1.931      7.185
REMARK  Name = 
REMARK  11 active torsions:
REMARK  status: ('A' for Active; 'I' for Inactive)
REMARK    1  A    between atoms: C_1  and  O_2
REMARK    2  A    between atoms: O_2  and  C_3
REMARK    3  A    between atoms: C_6  and  C_7
REMARK    4  A    between atoms: C_8  and  C_9
REMARK    5  A    between atoms: C_11  and  O_12
REMARK    6  A    between atoms: O_12  and  C_13
REMARK    7  A    between atoms: C_15  and  O_16
REMARK    8  A    between atoms: O_16  and  C_17
REMARK    9  A    between atoms: C_18  and  C_19
REMARK   10  A    between atoms: C_19  and  N_20
REMARK   11  A    between atoms: N_20  and  C_21
REMARK                            x       y       z     vdW  Elec       q    Type
REMARK                         _______ _______ _______ _____ _____    ______ ____
ROOT
ATOM      1  C   UNL     1       1.714   8.492  18.915  0.00  0.00    +0.000 A 
ATOM      2  C   UNL     1       1.812   9.792  18.384  0.00  0.00    +0.000 A 
ATOM      3  C   UNL     1       1.389  10.906  19.100  0.00  0.00    +0.000 A 
ATOM      4  C   UNL     1       0.825  10.724  20.355  0.00  0.00    +0.000 A 
ATOM      5  C   UNL     1       0.708   9.442  20.912  0.00  0.00    +0.000 A 
ATOM      6  C   UNL     1       1.185   8.302  20.212  0.00  0.00    +0.000 A 
ENDROOT
BRANCH   1   8
ATOM      7  C   UNL     1       3.401   6.895  18.115  0.00  0.00    +0.000 C 
ATOM      8  C   UNL     1       2.174   7.429  17.997  0.00  0.00    +0.000 C 
BRANCH   7  12
ATOM      9  C   UNL     1       5.644   4.509  15.326  0.00  0.00    +0.000 A 
ATOM     10  C   UNL     1       4.887   3.933  16.344  0.00  0.00    +0.000 A 
ATOM     11  C   UNL     1       4.122   4.729  17.199  0.00  0.00    +0.000 A 
ATOM     12  C   UNL     1       4.116   6.125  17.076  0.00  0.00    +0.000 A 
ATOM     13  C   UNL     1       4.855   6.695  16.032  0.00  0.00    +0.000 A 
ATOM     14  C   UNL     1       5.620   5.893  15.165  0.00  0.00    +0.000 A 
BRANCH   9  16
ATOM     15  C   UNL     1       6.423   3.826  13.194  0.00  0.00    +0.000 C 
ATOM     16  O   UNL     1       6.389   3.624  14.600  0.00  0.00    +0.000 OA
ENDBRANCH   9  16
ENDBRANCH   7  12
ENDBRANCH   1   8
BRANCH   3  17
ATOM     17  O   UNL     1       1.564  12.111  18.470  0.00  0.00    +0.000 OA
ATOM     18  C   UNL     1       0.515  13.062  18.609  0.00  0.00    +0.000 C 
ENDBRANCH   3  17
BRANCH   5  19
ATOM     19  O   UNL     1       0.168   9.239  22.161  0.00  0.00    +0.000 OA
ATOM     20  C   UNL     1      -0.500  10.347  22.768  0.00  0.00    +0.000 C 
ENDBRANCH   5  19
BRANCH   6  21
ATOM     21  C   UNL     1       1.039   6.925  20.834  0.00  0.00    +0.000 C 
BRANCH  21  22
ATOM     22  N   UNL     1       2.279   6.182  21.071  0.00  0.00    +0.000 NA
ATOM     23  H   UNL     1       2.525   6.239  22.058  0.00  0.00    +0.000 HD
BRANCH  22  24
ATOM     24  C   UNL     1       2.270   4.790  20.639  0.00  0.00    +0.000 C 
ATOM     25  C   UNL     1       2.243   3.760  21.766  0.00  0.00    +0.000 C 
ATOM     26  C   UNL     1       1.646   2.507  21.135  0.00  0.00    +0.000 C 
ATOM     27  C   UNL     1       0.814   2.977  19.947  0.00  0.00    +0.000 C 
ATOM     28  C   UNL     1       0.971   4.491  19.885  0.00  0.00    +0.000 C 
ENDBRANCH  22  24
ENDBRANCH  21  22
ENDBRANCH   6  21
TORSDOF 8
ENDMDL
MODEL 8
REMARK VINA RESULT:      -6.6      2.314      4.945
REMARK  Name = 
REMARK  11 active torsions:
REMARK  status: ('A' for Active; 'I' for Inactive)
REMARK    1  A    between atoms: C_1  and  O_2
REMARK    2  A    between atoms: O_2  and  C_3
REMARK    3  A    between atoms: C_6  and  C_7
REMARK    4  A    between atoms: C_8  and  C_9
REMARK    5  A    between atoms: C_11  and  O_12
REMARK    6  A    between atoms: O_12  and  C_13
REMARK    7  A    between atoms: C_15  and  O_16
REMARK    8  A    between atoms: O_16  and  C_17
REMARK    9  A    between atoms: C_18  and  C_19
REMARK   10  A    between atoms: C_19  and  N_20
REMARK   11  A    between atoms: N_20  and  C_21
REMARK                            x       y       z     vdW  Elec       q    Type
REMARK                         _______ _______ _______ _____ _____    ______ ____
ROOT
ATOM      1  C   UNL     1       2.105   6.221  19.637  0.00  0.00    +0.000 A 
ATOM      2  C   UNL     1       1.528   5.174  20.380  0.00  0.00    +0.000 A 
ATOM      3  C   UNL     1       1.609   3.851  19.959  0.00  0.00    +0.000 A 
ATOM      4  C   UNL     1       2.245   3.565  18.759  0.00  0.00    +0.000 A 
ATOM      5  C   UNL     1       2.826   4.585  17.992  0.00  0.00    +0.000 A 
ATOM      6  C   UNL     1       2.796   5.934  18.439  0.00  0.00    +0.000 A 
ENDROOT
BRANCH   1   8
ATOM      7  C   UNL     1       0.942   7.768  21.151  0.00  0.00    +0.000 C 
ATOM      8  C   UNL     1       1.884   7.563  20.215  0.00  0.00    +0.000 C 
BRANCH   7  12
ATOM      9  C   UNL     1      -0.435  11.689  22.260  0.00  0.00    +0.000 A 
ATOM     10  C   UNL     1       0.317  11.472  21.108  0.00  0.00    +0.000 A 
ATOM     11  C   UNL     1       0.702  10.181  20.741  0.00  0.00    +0.000 A 
ATOM     12  C   UNL     1       0.366   9.074  21.533  0.00  0.00    +0.000 A 
ATOM     13  C   UNL     1      -0.417   9.295  22.673  0.00  0.00    +0.000 A 
ATOM     14  C   UNL     1      -0.811  10.595  23.039  0.00  0.00    +0.000 A 
BRANCH   9  16
ATOM     15  C   UNL     1      -1.787  13.591  21.842  0.00  0.00    +0.000 C 
ATOM     16  O   UNL     1      -0.694  13.002  22.533  0.00  0.00    +0.000 OA
ENDBRANCH   9  16
ENDBRANCH   7  12
ENDBRANCH   1   8
BRANCH   3  17
ATOM     17  O   UNL     1       1.022   2.934  20.792  0.00  0.00    +0.000 OA
ATOM     18  C   UNL     1       1.757   2.565  21.953  0.00  0.00    +0.000 C 
ENDBRANCH   3  17
BRANCH   5  19
ATOM     19  O   UNL     1       3.476   4.324  16.808  0.00  0.00    +0.000 OA
ATOM     20  C   UNL     1       4.421   3.251  16.809  0.00  0.00    +0.000 C 
ENDBRANCH   5  19
BRANCH   6  21
ATOM     21  C   UNL     1       3.426   7.020  17.585  0.00  0.00    +0.000 C 
BRANCH  21  22
ATOM     22  N   UNL     1       4.787   6.766  17.107  0.00  0.00    +0.000 NA
ATOM     23  H   UNL     1       4.990   7.378  16.320  0.00  0.00    +0.000 HD
BRANCH  22  24
ATOM     24  C   UNL     1       5.837   6.879  18.112  0.00  0.00    +0.000 C 
ATOM     25  C   UNL     1       6.431   5.553  18.583  0.00  0.00    +0.000 C 
ATOM     26  C   UNL     1       7.817   5.911  19.107  0.00  0.00    +0.000 C 
ATOM     27  C   UNL     1       8.223   7.203  18.405  0.00  0.00    +0.000 C 
ATOM     28  C   UNL     1       7.051   7.593  17.513  0.00  0.00    +0.000 C 
ENDBRANCH  22  24
ENDBRANCH  21  22
ENDBRANCH   6  21
TORSDOF 8
ENDMDL
MODEL 9
REMARK VINA RESULT:      -6.6      1.722      2.846
REMARK  Name = 
REMARK  11 active torsions:
REMARK  status: ('A' for Active; 'I' for Inactive)
REMARK    1  A    between atoms: C_1  and  O_2
REMARK    2  A    between atoms: O_2  and  C_3
REMARK    3  A    between atoms: C_6  and  C_7
REMARK    4  A    between atoms: C_8  and  C_9
REMARK    5  A    between atoms: C_11  and  O_12
REMARK    6  A    between atoms: O_12  and  C_13
REMARK    7  A    between atoms: C_15  and  O_16
REMARK    8  A    between atoms: O_16  and  C_17
REMARK    9  A    between atoms: C_18  and  C_19
REMARK   10  A    between atoms: C_19  and  N_20
REMARK   11  A    between atoms: N_20  and  C_21
REMARK                            x       y       z     vdW  Elec       q    Type
REMARK                         _______ _______ _______ _____ _____    ______ ____
ROOT
ATOM      1  C   UNL     1       4.723   5.924  17.019  0.00  0.00    +0.000 A 
ATOM      2  C   UNL     1       5.091   5.831  15.663  0.00  0.00    +0.000 A 
ATOM      3  C   UNL     1       6.295   5.254  15.273  0.00  0.00    +0.000 A 
ATOM      4  C   UNL     1       7.166   4.791  16.250  0.00  0.00    +0.000 A 
ATOM      5  C   UNL     1       6.832   4.873  17.609  0.00  0.00    +0.000 A 
ATOM      6  C   UNL     1       5.582   5.412  18.016  0.00  0.00    +0.000 A 
ENDROOT
BRANCH   1   8
ATOM      7  C   UNL     1       3.375   7.798  17.861  0.00  0.00    +0.000 C 
ATOM      8  C   UNL     1       3.430   6.604  17.246  0.00  0.00    +0.000 C 
BRANCH   7  12
ATOM      9  C   UNL     1      -0.008   9.841  19.558  0.00  0.00    +0.000 A 
ATOM     10  C   UNL     1       0.322   9.960  18.211  0.00  0.00    +0.000 A 
ATOM     11  C   UNL     1       1.391   9.240  17.673  0.00  0.00    +0.000 A 
ATOM     12  C   UNL     1       2.175   8.402  18.478  0.00  0.00    +0.000 A 
ATOM     13  C   UNL     1       1.820   8.263  19.825  0.00  0.00    +0.000 A 
ATOM     14  C   UNL     1       0.738   8.983  20.365  0.00  0.00    +0.000 A 
BRANCH   9  16
ATOM     15  C   UNL     1      -1.073  11.955  19.422  0.00  0.00    +0.000 C 
ATOM     16  O   UNL     1      -1.036  10.643  19.967  0.00  0.00    +0.000 OA
ENDBRANCH   9  16
ENDBRANCH   7  12
ENDBRANCH   1   8
BRANCH   3  17
ATOM     17  O   UNL     1       6.514   5.210  13.921  0.00  0.00    +0.000 OA
ATOM     18  C   UNL     1       6.338   3.948  13.287  0.00  0.00    +0.000 C 
ENDBRANCH   3  17
BRANCH   5  19
ATOM     19  O   UNL     1       7.672   4.406  18.594  0.00  0.00    +0.000 OA
ATOM     20  C   UNL     1       8.343   5.383  19.392  0.00  0.00    +0.000 C 
ENDBRANCH   5  19
BRANCH   6  21
ATOM     21  C   UNL     1       5.249   5.497  19.495  0.00  0.00    +0.000 C 
BRANCH  21  22
ATOM     22  N   UNL     1       4.666   4.298  20.101  0.00  0.00    +0.000 NA
ATOM     23  H   UNL     1       4.731   4.364  21.115  0.00  0.00    +0.000 HD
BRANCH  22  24
ATOM     24  C   UNL     1       3.295   3.998  19.708  0.00  0.00    +0.000 C 
ATOM     25  C   UNL     1       2.890   2.531  19.828  0.00  0.00    +0.000 C 
ATOM     26  C   UNL     1       1.372   2.554  19.961  0.00  0.00    +0.000 C 
ATOM     27  C   UNL     1       1.009   3.927  20.517  0.00  0.00    +0.000 C 
ATOM     28  C   UNL     1       2.319   4.691  20.662  0.00  0.00    +0.000 C 
ENDBRANCH  22  24
ENDBRANCH  21  22
ENDBRANCH   6  21
TORSDOF 8
ENDMDL
