MODEL 1
REMARK VINA RESULT:      -7.0      0.000      0.000
REMARK  Name = 
REMARK  10 active torsions:
REMARK  status: ('A' for Active; 'I' for Inactive)
REMARK    1  A    between atoms: C_1  and  O_2
REMARK    2  A    between atoms: O_2  and  C_3
REMARK    3  A    between atoms: C_5  and  O_6
REMARK    4  A    between atoms: O_6  and  C_7
REMARK    5  A    between atoms: C_8  and  O_9
REMARK    6  A    between atoms: O_9  and  C_10
REMARK    7  A    between atoms: C_12  and  C_13
REMARK    8  A    between atoms: C_14  and  C_15
REMARK    9  A    between atoms: C_15  and  C_17
REMARK   10  A    between atoms: C_23  and  O_24
REMARK                            x       y       z     vdW  Elec       q    Type
REMARK                         _______ _______ _______ _____ _____    ______ ____
ROOT
ATOM      1  C   UNL     1       2.803   7.782  18.130  0.00  0.00    +0.000 C 
ATOM      2  C   UNL     1       1.868   8.519  18.755  0.00  0.00    +0.000 C 
ENDROOT
BRANCH   1   8
ATOM      3  C   UNL     1       3.976   5.587  17.609  0.00  0.00    +0.000 A 
ATOM      4  C   UNL     1       4.265   4.274  17.989  0.00  0.00    +0.000 A 
ATOM      5  C   UNL     1       3.713   3.709  19.145  0.00  0.00    +0.000 A 
ATOM      6  C   UNL     1       2.863   4.468  19.959  0.00  0.00    +0.000 A 
ATOM      7  C   UNL     1       2.547   5.779  19.565  0.00  0.00    +0.000 A 
ATOM      8  C   UNL     1       3.089   6.353  18.390  0.00  0.00    +0.000 A 
BRANCH   3  10
ATOM      9  C   UNL     1       5.696   5.578  15.964  0.00  0.00    +0.000 C 
ATOM     10  O   UNL     1       4.518   6.176  16.493  0.00  0.00    +0.000 OA
ENDBRANCH   3  10
BRANCH   5  11
ATOM     11  O   UNL     1       4.160   2.432  19.377  0.00  0.00    +0.000 OA
ATOM     12  C   UNL     1       3.637   1.414  18.533  0.00  0.00    +0.000 C 
ENDBRANCH   5  11
BRANCH   6  13
ATOM     13  O   UNL     1       2.420   3.880  21.112  0.00  0.00    +0.000 OA
ATOM     14  C   UNL     1       1.258   3.066  21.057  0.00  0.00    +0.000 C 
ENDBRANCH   6  13
ENDBRANCH   1   8
BRANCH   2  15
ATOM     15  C   UNL     1       1.597   9.907  18.287  0.00  0.00    +0.000 C 
ATOM     16  O   UNL     1       2.419  10.532  17.620  0.00  0.00    +0.000 OA
BRANCH  15  17
ATOM     17  C   UNL     1       0.270  10.525  18.555  0.00  0.00    +0.000 A 
ATOM     18  C   UNL     1      -0.846   9.905  17.966  0.00  0.00    +0.000 A 
ATOM     19  C   UNL     1      -2.116  10.463  18.105  0.00  0.00    +0.000 A 
ATOM     20 CL   UNL     1      -3.474   9.698  17.378  0.00  0.00    +0.000 Cl
ATOM     21  C   UNL     1      -2.293  11.643  18.822  0.00  0.00    +0.000 A 
ATOM     22  C   UNL     1      -1.193  12.267  19.414  0.00  0.00    +0.000 A 
ATOM     23  C   UNL     1       0.085  11.709  19.282  0.00  0.00    +0.000 A 
BRANCH  23  24
ATOM     24  O   UNL     1       1.148  12.360  19.840  0.00  0.00    +0.000 OA
ATOM     25  H   UNL     1       1.012  12.448  20.798  0.00  0.00    +0.000 HD
ENDBRANCH  23  24
ENDBRANCH  15  17
ENDBRANCH   2  15
TORSDOF 7
ENDMDL
MODEL 2
REMARK VINA RESULT:      -7.0      1.011      1.011
REMARK  Name = 
REMARK  10 active torsions:
REMARK  status: ('A' for Active; 'I' for Inactive)
REMARK    1  A    between atoms: C_1  and  O_2
REMARK    2  A    between atoms: O_2  and  C_3
REMARK    3  A    between atoms: C_5  and  O_6
REMARK    4  A    between atoms: O_6  and  C_7
REMARK    5  A    between atoms: C_8  and  O_9
REMARK    6  A    between atoms: O_9  and  C_10
REMARK    7  A    between atoms: C_12  and  C_13
REMARK    8  A    between atoms: C_14  and  C_15
REMARK    9  A    between atoms: C_15  and  C_17
REMARK   10  A    between atoms: C_23  and  O_24
REMARK                            x       y       z     vdW  Elec       q    Type
REMARK                         _______ _______ _______ _____ _____    ______ ____
ROOT
ATOM      1  C   UNL     1       2.843   7.830  17.722  0.00  0.00    +0.000 C 
ATOM      2  C   UNL     1       2.017   8.534  18.515  0.00  0.00    +0.000 C 
ENDROOT
BRANCH   1   8
ATOM      3  C   UNL     1       4.441   5.857  17.859  0.00  0.00    +0.000 A 
ATOM      4  C   UNL     1       4.627   4.491  18.086  0.00  0.00    +0.000 A 
ATOM      5  C   UNL     1       3.544   3.637  18.329  0.00  0.00    +0.000 A 
ATOM      6  C   UNL     1       2.242   4.148  18.366  0.00  0.00    +0.000 A 
ATOM      7  C   UNL     1       2.049   5.516  18.110  0.00  0.00    +0.000 A 
ATOM      8  C   UNL     1       3.135   6.384  17.848  0.00  0.00    +0.000 A 
BRANCH   3  10
ATOM      9  C   UNL     1       6.574   6.230  16.870  0.00  0.00    +0.000 C 
ATOM     10  O   UNL     1       5.483   6.724  17.639  0.00  0.00    +0.000 OA
ENDBRANCH   3  10
BRANCH   5  11
ATOM     11  O   UNL     1       3.935   2.345  18.583  0.00  0.00    +0.000 OA
ATOM     12  C   UNL     1       4.429   2.079  19.889  0.00  0.00    +0.000 C 
ENDBRANCH   5  11
BRANCH   6  13
ATOM     13  O   UNL     1       1.240   3.274  18.684  0.00  0.00    +0.000 OA
ATOM     14  C   UNL     1       0.845   3.158  20.043  0.00  0.00    +0.000 C 
ENDBRANCH   6  13
ENDBRANCH   1   8
BRANCH   2  15
ATOM     15  C   UNL     1       1.711   9.953  18.178  0.00  0.00    +0.000 C 
ATOM     16  O   UNL     1       2.504  10.648  17.547  0.00  0.00    +0.000 OA
BRANCH  15  17
ATOM     17  C   UNL     1       0.382  10.520  18.534  0.00  0.00    +0.000 A 
ATOM     18  C   UNL     1      -0.740   9.927  17.931  0.00  0.00    +0.000 A 
ATOM     19  C   UNL     1      -2.015  10.446  18.153  0.00  0.00    +0.000 A 
ATOM     20 CL   UNL     1      -3.382   9.714  17.409  0.00  0.00    +0.000 Cl
ATOM     21  C   UNL     1      -2.189  11.563  18.966  0.00  0.00    +0.000 A 
ATOM     22  C   UNL     1      -1.082  12.160  19.573  0.00  0.00    +0.000 A 
ATOM     23  C   UNL     1       0.200  11.640  19.358  0.00  0.00    +0.000 A 
BRANCH  23  24
ATOM     24  O   UNL     1       1.268  12.266  19.934  0.00  0.00    +0.000 OA
ATOM     25  H   UNL     1       2.083  11.776  19.731  0.00  0.00    +0.000 HD
ENDBRANCH  23  24
ENDBRANCH  15  17
ENDBRANCH   2  15
TORSDOF 7
ENDMDL
MODEL 3
REMARK VINA RESULT:      -6.9      2.033      2.221
REMARK  Name = 
REMARK  10 active torsions:
REMARK  status: ('A' for Active; 'I' for Inactive)
REMARK    1  A    between atoms: C_1  and  O_2
REMARK    2  A    between atoms: O_2  and  C_3
REMARK    3  A    between atoms: C_5  and  O_6
REMARK    4  A    between atoms: O_6  and  C_7
REMARK    5  A    between atoms: C_8  and  O_9
REMARK    6  A    between atoms: O_9  and  C_10
REMARK    7  A    between atoms: C_12  and  C_13
REMARK    8  A    between atoms: C_14  and  C_15
REMARK    9  A    between atoms: C_15  and  C_17
REMARK   10  A    between atoms: C_23  and  O_24
REMARK                            x       y       z     vdW  Elec       q    Type
REMARK                         _______ _______ _______ _____ _____    ______ ____
ROOT
ATOM      1  C   UNL     1       2.866   7.556  17.949  0.00  0.00    +0.000 C 
ATOM      2  C   UNL     1       1.832   8.153  18.567  0.00  0.00    +0.000 C 
ENDROOT
BRANCH   1   8
ATOM      3  C   UNL     1       4.261   5.500  17.410  0.00  0.00    +0.000 A 
ATOM      4  C   UNL     1       4.358   4.107  17.366  0.00  0.00    +0.000 A 
ATOM      5  C   UNL     1       3.272   3.288  17.699  0.00  0.00    +0.000 A 
ATOM      6  C   UNL     1       2.061   3.860  18.104  0.00  0.00    +0.000 A 
ATOM      7  C   UNL     1       1.950   5.261  18.122  0.00  0.00    +0.000 A 
ATOM      8  C   UNL     1       3.038   6.097  17.772  0.00  0.00    +0.000 A 
BRANCH   3  10
ATOM      9  C   UNL     1       6.337   5.789  16.283  0.00  0.00    +0.000 C 
ATOM     10  O   UNL     1       5.313   6.330  17.109  0.00  0.00    +0.000 OA
ENDBRANCH   3  10
BRANCH   5  11
ATOM     11  O   UNL     1       3.581   1.951  17.648  0.00  0.00    +0.000 OA
ATOM     12  C   UNL     1       3.968   1.344  18.875  0.00  0.00    +0.000 C 
ENDBRANCH   5  11
BRANCH   6  13
ATOM     13  O   UNL     1       1.067   3.003  18.489  0.00  0.00    +0.000 OA
ATOM     14  C   UNL     1       0.708   2.951  19.862  0.00  0.00    +0.000 C 
ENDBRANCH   6  13
ENDBRANCH   1   8
BRANCH   2  15
ATOM     15  C   UNL     1       1.723   9.639  18.543  0.00  0.00    +0.000 C 
ATOM     16  O   UNL     1       2.291  10.311  17.685  0.00  0.00    +0.000 OA
BRANCH  15  17
ATOM     17  C   UNL     1       0.839  10.325  19.524  0.00  0.00    +0.000 A 
ATOM     18  C   UNL     1       0.770   9.764  20.811  0.00  0.00    +0.000 A 
ATOM     19  C   UNL     1      -0.092  10.302  21.767  0.00  0.00    +0.000 A 
ATOM     20 CL   UNL     1      -0.171   9.607  23.339  0.00  0.00    +0.000 Cl
ATOM     21  C   UNL     1      -0.899  11.392  21.455  0.00  0.00    +0.000 A 
ATOM     22  C   UNL     1      -0.838  11.959  20.180  0.00  0.00    +0.000 A 
ATOM     23  C   UNL     1       0.029  11.428  19.218  0.00  0.00    +0.000 A 
BRANCH  23  24
ATOM     24  O   UNL     1       0.042  11.979  17.968  0.00  0.00    +0.000 OA
ATOM     25  H   UNL     1      -0.555  11.481  17.384  0.00  0.00    +0.000 HD
ENDBRANCH  23  24
ENDBRANCH  15  17
ENDBRANCH   2  15
TORSDOF 7
ENDMDL
MODEL 4
REMARK VINA RESULT:      -6.9      1.718      2.034
REMARK  Name = 
REMARK  10 active torsions:
REMARK  status: ('A' for Active; 'I' for Inactive)
REMARK    1  A    between atoms: C_1  and  O_2
REMARK    2  A    between atoms: O_2  and  C_3
REMARK    3  A    between atoms: C_5  and  O_6
REMARK    4  A    between atoms: O_6  and  C_7
REMARK    5  A    between atoms: C_8  and  O_9
REMARK    6  A    between atoms: O_9  and  C_10
REMARK    7  A    between atoms: C_12  and  C_13
REMARK    8  A    between atoms: C_14  and  C_15
REMARK    9  A    between atoms: C_15  and  C_17
REMARK   10  A    between atoms: C_23  and  O_24
REMARK                            x       y       z     vdW  Elec       q    Type
REMARK                         _______ _______ _______ _____ _____    ______ ____
ROOT
ATOM      1  C   UNL     1       1.937   7.661  20.283  0.00  0.00    +0.000 C 
ATOM      2  C   UNL     1       0.865   8.243  20.850  0.00  0.00    +0.000 C 
ENDROOT
BRANCH   1   8
ATOM      3  C   UNL     1       2.646   6.007  18.488  0.00  0.00    +0.000 A 
ATOM      4  C   UNL     1       2.706   4.682  18.049  0.00  0.00    +0.000 A 
ATOM      5  C   UNL     1       2.128   3.641  18.786  0.00  0.00    +0.000 A 
ATOM      6  C   UNL     1       1.487   3.913  19.999  0.00  0.00    +0.000 A 
ATOM      7  C   UNL     1       1.398   5.248  20.430  0.00  0.00    +0.000 A 
ATOM      8  C   UNL     1       1.966   6.308  19.684  0.00  0.00    +0.000 A 
BRANCH   3  10
ATOM      9  C   UNL     1       4.494   6.800  17.215  0.00  0.00    +0.000 C 
ATOM     10  O   UNL     1       3.220   7.047  17.799  0.00  0.00    +0.000 OA
ENDBRANCH   3  10
BRANCH   5  11
ATOM     11  O   UNL     1       2.342   2.408  18.220  0.00  0.00    +0.000 OA
ATOM     12  C   UNL     1       3.558   1.756  18.565  0.00  0.00    +0.000 C 
ENDBRANCH   5  11
BRANCH   6  13
ATOM     13  O   UNL     1       1.012   2.842  20.705  0.00  0.00    +0.000 OA
ATOM     14  C   UNL     1       1.681   2.465  21.899  0.00  0.00    +0.000 C 
ENDBRANCH   6  13
ENDBRANCH   1   8
BRANCH   2  15
ATOM     15  C   UNL     1       0.948   9.666  21.284  0.00  0.00    +0.000 C 
ATOM     16  O   UNL     1       1.511   9.987  22.329  0.00  0.00    +0.000 OA
BRANCH  15  17
ATOM     17  C   UNL     1       0.418  10.735  20.395  0.00  0.00    +0.000 A 
ATOM     18  C   UNL     1      -0.524  10.343  19.429  0.00  0.00    +0.000 A 
ATOM     19  C   UNL     1      -1.014  11.268  18.508  0.00  0.00    +0.000 A 
ATOM     20 CL   UNL     1      -2.165  10.778  17.327  0.00  0.00    +0.000 Cl
ATOM     21  C   UNL     1      -0.570  12.588  18.530  0.00  0.00    +0.000 A 
ATOM     22  C   UNL     1       0.364  12.990  19.487  0.00  0.00    +0.000 A 
ATOM     23  C   UNL     1       0.856  12.066  20.417  0.00  0.00    +0.000 A 
BRANCH  23  24
ATOM     24  O   UNL     1       1.796  12.478  21.319  0.00  0.00    +0.000 OA
ATOM     25  H   UNL     1       1.556  13.354  21.665  0.00  0.00    +0.000 HD
ENDBRANCH  23  24
ENDBRANCH  15  17
ENDBRANCH   2  15
TORSDOF 7
ENDMDL
MODEL 5
REMARK VINA RESULT:      -6.8      1.781      1.903
REMARK  Name = 
REMARK  10 active torsions:
REMARK  status: ('A' for Active; 'I' for Inactive)
REMARK    1  A    between atoms: C_1  and  O_2
REMARK    2  A    between atoms: O_2  and  C_3
REMARK    3  A    between atoms: C_5  and  O_6
REMARK    4  A    between atoms: O_6  and  C_7
REMARK    5  A    between atoms: C_8  and  O_9
REMARK    6  A    between atoms: O_9  and  C_10
REMARK    7  A    between atoms: C_12  and  C_13
REMARK    8  A    between atoms: C_14  and  C_15
REMARK    9  A    between atoms: C_15  and  C_17
REMARK   10  A    between atoms: C_23  and  O_24
REMARK                            x       y       z     vdW  Elec       q    Type
REMARK                         _______ _______ _______ _____ _____    ______ ____
ROOT
ATOM      1  C   UNL     1       2.720   7.556  18.304  0.00  0.00    +0.000 C 
ATOM      2  C   UNL     1       1.890   8.302  19.052  0.00  0.00    +0.000 C 
ENDROOT
BRANCH   1   8
ATOM      3  C   UNL     1       3.959   5.406  17.747  0.00  0.00    +0.000 A 
ATOM      4  C   UNL     1       4.293   4.099  18.109  0.00  0.00    +0.000 A 
ATOM      5  C   UNL     1       3.770   3.503  19.263  0.00  0.00    +0.000 A 
ATOM      6  C   UNL     1       2.904   4.225  20.093  0.00  0.00    +0.000 A 
ATOM      7  C   UNL     1       2.542   5.530  19.717  0.00  0.00    +0.000 A 
ATOM      8  C   UNL     1       3.055   6.134  18.545  0.00  0.00    +0.000 A 
BRANCH   3  10
ATOM      9  C   UNL     1       5.886   6.163  16.574  0.00  0.00    +0.000 C 
ATOM     10  O   UNL     1       4.472   6.025  16.634  0.00  0.00    +0.000 OA
ENDBRANCH   3  10
BRANCH   5  11
ATOM     11  O   UNL     1       4.260   2.239  19.477  0.00  0.00    +0.000 OA
ATOM     12  C   UNL     1       3.795   1.222  18.597  0.00  0.00    +0.000 C 
ENDBRANCH   5  11
BRANCH   6  13
ATOM     13  O   UNL     1       2.490   3.611  21.244  0.00  0.00    +0.000 OA
ATOM     14  C   UNL     1       1.287   2.858  21.217  0.00  0.00    +0.000 C 
ENDBRANCH   6  13
ENDBRANCH   1   8
BRANCH   2  15
ATOM     15  C   UNL     1       1.538   9.679  18.604  0.00  0.00    +0.000 C 
ATOM     16  O   UNL     1       1.702  10.037  17.440  0.00  0.00    +0.000 OA
BRANCH  15  17
ATOM     17  C   UNL     1       0.893  10.618  19.561  0.00  0.00    +0.000 A 
ATOM     18  C   UNL     1       0.435  10.071  20.772  0.00  0.00    +0.000 A 
ATOM     19  C   UNL     1      -0.247  10.867  21.691  0.00  0.00    +0.000 A 
ATOM     20 CL   UNL     1      -0.805  10.188  23.169  0.00  0.00    +0.000 Cl
ATOM     21  C   UNL     1      -0.491  12.210  21.416  0.00  0.00    +0.000 A 
ATOM     22  C   UNL     1      -0.039  12.766  20.217  0.00  0.00    +0.000 A 
ATOM     23  C   UNL     1       0.651  11.973  19.293  0.00  0.00    +0.000 A 
BRANCH  23  24
ATOM     24  O   UNL     1       1.049  12.534  18.113  0.00  0.00    +0.000 OA
ATOM     25  H   UNL     1       0.511  13.321  17.926  0.00  0.00    +0.000 HD
ENDBRANCH  23  24
ENDBRANCH  15  17
ENDBRANCH   2  15
TORSDOF 7
ENDMDL
MODEL 6
REMARK VINA RESULT:      -6.8      1.850      3.475
REMARK  Name = 
REMARK  10 active torsions:
REMARK  status: ('A' for Active; 'I' for Inactive)
REMARK    1  A    between atoms: C_1  and  O_2
REMARK    2  A    between atoms: O_2  and  C_3
REMARK    3  A    between atoms: C_5  and  O_6
REMARK    4  A    between atoms: O_6  and  C_7
REMARK    5  A    between atoms: C_8  and  O_9
REMARK    6  A    between atoms: O_9  and  C_10
REMARK    7  A    between atoms: C_12  and  C_13
REMARK    8  A    between atoms: C_14  and  C_15
REMARK    9  A    between atoms: C_15  and  C_17
REMARK   10  A    between atoms: C_23  and  O_24
REMARK                            x       y       z     vdW  Elec       q    Type
REMARK                         _______ _______ _______ _____ _____    ______ ____
ROOT
ATOM      1  C   UNL     1       1.581   7.012  20.751  0.00  0.00    +0.000 C 
ATOM      2  C   UNL     1       1.535   8.329  20.482  0.00  0.00    +0.000 C 
ENDROOT
BRANCH   1   8
ATOM      3  C   UNL     1       2.154   4.608  20.156  0.00  0.00    +0.000 A 
ATOM      4  C   UNL     1       2.790   3.717  19.288  0.00  0.00    +0.000 A 
ATOM      5  C   UNL     1       3.548   4.171  18.201  0.00  0.00    +0.000 A 
ATOM      6  C   UNL     1       3.667   5.544  17.955  0.00  0.00    +0.000 A 
ATOM      7  C   UNL     1       3.053   6.443  18.843  0.00  0.00    +0.000 A 
ATOM      8  C   UNL     1       2.298   5.994  19.952  0.00  0.00    +0.000 A 
BRANCH   3  10
ATOM      9  C   UNL     1       1.482   2.821  21.577  0.00  0.00    +0.000 C 
ATOM     10  O   UNL     1       1.387   4.194  21.217  0.00  0.00    +0.000 OA
ENDBRANCH   3  10
BRANCH   5  11
ATOM     11  O   UNL     1       4.044   3.145  17.436  0.00  0.00    +0.000 OA
ATOM     12  C   UNL     1       3.634   1.832  17.794  0.00  0.00    +0.000 C 
ENDBRANCH   5  11
BRANCH   6  13
ATOM     13  O   UNL     1       4.357   5.916  16.834  0.00  0.00    +0.000 OA
ATOM     14  C   UNL     1       5.707   6.335  16.974  0.00  0.00    +0.000 C 
ENDBRANCH   6  13
ENDBRANCH   1   8
BRANCH   2  15
ATOM     15  C   UNL     1       0.892   9.254  21.457  0.00  0.00    +0.000 C 
ATOM     16  O   UNL     1       1.259   9.308  22.629  0.00  0.00    +0.000 OA
BRANCH  15  17
ATOM     17  C   UNL     1      -0.159  10.197  20.989  0.00  0.00    +0.000 A 
ATOM     18  C   UNL     1      -0.518  10.119  19.632  0.00  0.00    +0.000 A 
ATOM     19  C   UNL     1      -1.440  11.017  19.096  0.00  0.00    +0.000 A 
ATOM     20 CL   UNL     1      -1.871  10.915  17.434  0.00  0.00    +0.000 Cl
ATOM     21  C   UNL     1      -2.009  12.005  19.895  0.00  0.00    +0.000 A 
ATOM     22  C   UNL     1      -1.662  12.091  21.245  0.00  0.00    +0.000 A 
ATOM     23  C   UNL     1      -0.741  11.189  21.791  0.00  0.00    +0.000 A 
BRANCH  23  24
ATOM     24  O   UNL     1      -0.392  11.319  23.105  0.00  0.00    +0.000 OA
ATOM     25  H   UNL     1       0.479  11.746  23.172  0.00  0.00    +0.000 HD
ENDBRANCH  23  24
ENDBRANCH  15  17
ENDBRANCH   2  15
TORSDOF 7
ENDMDL
MODEL 7
REMARK VINA RESULT:      -6.8      2.002      2.270
REMARK  Name = 
REMARK  10 active torsions:
REMARK  status: ('A' for Active; 'I' for Inactive)
REMARK    1  A    between atoms: C_1  and  O_2
REMARK    2  A    between atoms: O_2  and  C_3
REMARK    3  A    between atoms: C_5  and  O_6
REMARK    4  A    between atoms: O_6  and  C_7
REMARK    5  A    between atoms: C_8  and  O_9
REMARK    6  A    between atoms: O_9  and  C_10
REMARK    7  A    between atoms: C_12  and  C_13
REMARK    8  A    between atoms: C_14  and  C_15
REMARK    9  A    between atoms: C_15  and  C_17
REMARK   10  A    between atoms: C_23  and  O_24
REMARK                            x       y       z     vdW  Elec       q    Type
REMARK                         _______ _______ _______ _____ _____    ______ ____
ROOT
ATOM      1  C   UNL     1       1.855   7.637  20.385  0.00  0.00    +0.000 C 
ATOM      2  C   UNL     1       0.908   8.023  21.258  0.00  0.00    +0.000 C 
ENDROOT
BRANCH   1   8
ATOM      3  C   UNL     1       2.735   6.031  18.622  0.00  0.00    +0.000 A 
ATOM      4  C   UNL     1       2.868   4.714  18.173  0.00  0.00    +0.000 A 
ATOM      5  C   UNL     1       2.277   3.645  18.859  0.00  0.00    +0.000 A 
ATOM      6  C   UNL     1       1.548   3.881  20.030  0.00  0.00    +0.000 A 
ATOM      7  C   UNL     1       1.387   5.206  20.468  0.00  0.00    +0.000 A 
ATOM      8  C   UNL     1       1.968   6.294  19.774  0.00  0.00    +0.000 A 
BRANCH   3  10
ATOM      9  C   UNL     1       4.482   6.820  17.212  0.00  0.00    +0.000 C 
ATOM     10  O   UNL     1       3.319   7.097  17.984  0.00  0.00    +0.000 OA
ENDBRANCH   3  10
BRANCH   5  11
ATOM     11  O   UNL     1       2.568   2.428  18.294  0.00  0.00    +0.000 OA
ATOM     12  C   UNL     1       3.889   2.260  17.797  0.00  0.00    +0.000 C 
ENDBRANCH   5  11
BRANCH   6  13
ATOM     13  O   UNL     1       1.062   2.786  20.691  0.00  0.00    +0.000 OA
ATOM     14  C   UNL     1       1.660   2.417  21.924  0.00  0.00    +0.000 C 
ENDBRANCH   6  13
ENDBRANCH   1   8
BRANCH   2  15
ATOM     15  C   UNL     1       0.837   9.450  21.679  0.00  0.00    +0.000 C 
ATOM     16  O   UNL     1       1.660   9.932  22.456  0.00  0.00    +0.000 OA
BRANCH  15  17
ATOM     17  C   UNL     1      -0.196  10.340  21.083  0.00  0.00    +0.000 A 
ATOM     18  C   UNL     1      -0.514  10.122  19.732  0.00  0.00    +0.000 A 
ATOM     19  C   UNL     1      -1.416  10.959  19.077  0.00  0.00    +0.000 A 
ATOM     20 CL   UNL     1      -1.797  10.686  17.422  0.00  0.00    +0.000 Cl
ATOM     21  C   UNL     1      -2.006  12.025  19.752  0.00  0.00    +0.000 A 
ATOM     22  C   UNL     1      -1.700  12.250  21.096  0.00  0.00    +0.000 A 
ATOM     23  C   UNL     1      -0.798  11.410  21.760  0.00  0.00    +0.000 A 
BRANCH  23  24
ATOM     24  O   UNL     1      -0.490  11.676  23.063  0.00  0.00    +0.000 OA
ATOM     25  H   UNL     1       0.327  12.202  23.106  0.00  0.00    +0.000 HD
ENDBRANCH  23  24
ENDBRANCH  15  17
ENDBRANCH   2  15
TORSDOF 7
ENDMDL
MODEL 8
REMARK VINA RESULT:      -6.7      1.006      2.866
REMARK  Name = 
REMARK  10 active torsions:
REMARK  status: ('A' for Active; 'I' for Inactive)
REMARK    1  A    between atoms: C_1  and  O_2
REMARK    2  A    between atoms: O_2  and  C_3
REMARK    3  A    between atoms: C_5  and  O_6
REMARK    4  A    between atoms: O_6  and  C_7
REMARK    5  A    between atoms: C_8  and  O_9
REMARK    6  A    between atoms: O_9  and  C_10
REMARK    7  A    between atoms: C_12  and  C_13
REMARK    8  A    between atoms: C_14  and  C_15
REMARK    9  A    between atoms: C_15  and  C_17
REMARK   10  A    between atoms: C_23  and  O_24
REMARK                            x       y       z     vdW  Elec       q    Type
REMARK                         _______ _______ _______ _____ _____    ______ ____
ROOT
ATOM      1  C   UNL     1       2.905   7.645  18.333  0.00  0.00    +0.000 C 
ATOM      2  C   UNL     1       1.825   8.268  17.829  0.00  0.00    +0.000 C 
ENDROOT
BRANCH   1   8
ATOM      3  C   UNL     1       2.610   5.186  18.908  0.00  0.00    +0.000 A 
ATOM      4  C   UNL     1       2.903   3.852  18.613  0.00  0.00    +0.000 A 
ATOM      5  C   UNL     1       3.780   3.509  17.576  0.00  0.00    +0.000 A 
ATOM      6  C   UNL     1       4.371   4.511  16.798  0.00  0.00    +0.000 A 
ATOM      7  C   UNL     1       4.102   5.854  17.110  0.00  0.00    +0.000 A 
ATOM      8  C   UNL     1       3.229   6.210  18.166  0.00  0.00    +0.000 A 
BRANCH   3  10
ATOM      9  C   UNL     1       1.175   4.503  20.680  0.00  0.00    +0.000 C 
ATOM     10  O   UNL     1       1.739   5.554  19.904  0.00  0.00    +0.000 OA
ENDBRANCH   3  10
BRANCH   5  11
ATOM     11  O   UNL     1       3.894   2.151  17.406  0.00  0.00    +0.000 OA
ATOM     12  C   UNL     1       3.761   1.354  18.576  0.00  0.00    +0.000 C 
ENDBRANCH   5  11
BRANCH   6  13
ATOM     13  O   UNL     1       5.156   4.104  15.753  0.00  0.00    +0.000 OA
ATOM     14  C   UNL     1       5.956   5.070  15.089  0.00  0.00    +0.000 C 
ENDBRANCH   6  13
ENDBRANCH   1   8
BRANCH   2  15
ATOM     15  C   UNL     1       1.706   9.747  17.960  0.00  0.00    +0.000 C 
ATOM     16  O   UNL     1       2.623  10.497  17.633  0.00  0.00    +0.000 OA
BRANCH  15  17
ATOM     17  C   UNL     1       0.418  10.340  18.413  0.00  0.00    +0.000 A 
ATOM     18  C   UNL     1      -0.751   9.853  17.804  0.00  0.00    +0.000 A 
ATOM     19  C   UNL     1      -1.991  10.408  18.117  0.00  0.00    +0.000 A 
ATOM     20 CL   UNL     1      -3.416   9.807  17.365  0.00  0.00    +0.000 Cl
ATOM     21  C   UNL     1      -2.084  11.456  19.030  0.00  0.00    +0.000 A 
ATOM     22  C   UNL     1      -0.930  11.947  19.643  0.00  0.00    +0.000 A 
ATOM     23  C   UNL     1       0.318  11.391  19.336  0.00  0.00    +0.000 A 
BRANCH  23  24
ATOM     24  O   UNL     1       1.434  11.915  19.923  0.00  0.00    +0.000 OA
ATOM     25  H   UNL     1       2.194  11.330  19.763  0.00  0.00    +0.000 HD
ENDBRANCH  23  24
ENDBRANCH  15  17
ENDBRANCH   2  15
TORSDOF 7
ENDMDL
MODEL 9
REMARK VINA RESULT:      -6.7      1.040      1.193
REMARK  Name = 
REMARK  10 active torsions:
REMARK  status: ('A' for Active; 'I' for Inactive)
REMARK    1  A    between atoms: C_1  and  O_2
REMARK    2  A    between atoms: O_2  and  C_3
REMARK    3  A    between atoms: C_5  and  O_6
REMARK    4  A    between atoms: O_6  and  C_7
REMARK    5  A    between atoms: C_8  and  O_9
REMARK    6  A    between atoms: O_9  and  C_10
REMARK    7  A    between atoms: C_12  and  C_13
REMARK    8  A    between atoms: C_14  and  C_15
REMARK    9  A    between atoms: C_15  and  C_17
REMARK   10  A    between atoms: C_23  and  O_24
REMARK                            x       y       z     vdW  Elec       q    Type
REMARK                         _______ _______ _______ _____ _____    ______ ____
ROOT
ATOM      1  C   UNL     1       2.156   8.255  18.824  0.00  0.00    +0.000 C 
ATOM      2  C   UNL     1       1.036   8.789  19.341  0.00  0.00    +0.000 C 
ENDROOT
BRANCH   1   8
ATOM      3  C   UNL     1       3.490   6.229  18.064  0.00  0.00    +0.000 A 
ATOM      4  C   UNL     1       3.896   4.913  18.305  0.00  0.00    +0.000 A 
ATOM      5  C   UNL     1       3.424   4.194  19.409  0.00  0.00    +0.000 A 
ATOM      6  C   UNL     1       2.538   4.795  20.312  0.00  0.00    +0.000 A 
ATOM      7  C   UNL     1       2.105   6.107  20.057  0.00  0.00    +0.000 A 
ATOM      8  C   UNL     1       2.566   6.837  18.935  0.00  0.00    +0.000 A 
BRANCH   3  10
ATOM      9  C   UNL     1       5.258   6.662  16.531  0.00  0.00    +0.000 C 
ATOM     10  O   UNL     1       3.951   6.967  17.002  0.00  0.00    +0.000 OA
ENDBRANCH   3  10
BRANCH   5  11
ATOM     11  O   UNL     1       3.980   2.942  19.504  0.00  0.00    +0.000 OA
ATOM     12  C   UNL     1       3.635   2.017  18.481  0.00  0.00    +0.000 C 
ENDBRANCH   5  11
BRANCH   6  13
ATOM     13  O   UNL     1       2.177   4.063  21.409  0.00  0.00    +0.000 OA
ATOM     14  C   UNL     1       1.237   3.012  21.245  0.00  0.00    +0.000 C 
ENDBRANCH   6  13
ENDBRANCH   1   8
BRANCH   2  15
ATOM     15  C   UNL     1       0.685  10.203  19.026  0.00  0.00    +0.000 C 
ATOM     16  O   UNL     1       1.540  11.086  19.002  0.00  0.00    +0.000 OA
BRANCH  15  17
ATOM     17  C   UNL     1      -0.713  10.544  18.647  0.00  0.00    +0.000 A 
ATOM     18  C   UNL     1      -1.198   9.983  17.453  0.00  0.00    +0.000 A 
ATOM     19  C   UNL     1      -2.470  10.312  16.988  0.00  0.00    +0.000 A 
ATOM     20 CL   UNL     1      -3.055   9.621  15.525  0.00  0.00    +0.000 Cl
ATOM     21  C   UNL     1      -3.271  11.206  17.695  0.00  0.00    +0.000 A 
ATOM     22  C   UNL     1      -2.800  11.768  18.883  0.00  0.00    +0.000 A 
ATOM     23  C   UNL     1      -1.525  11.438  19.358  0.00  0.00    +0.000 A 
BRANCH  23  24
ATOM     24  O   UNL     1      -1.077  12.031  20.504  0.00  0.00    +0.000 OA
ATOM     25  H   UNL     1      -1.813  12.482  20.950  0.00  0.00    +0.000 HD
ENDBRANCH  23  24
ENDBRANCH  15  17
ENDBRANCH   2  15
TORSDOF 7
ENDMDL
