MODEL 1
REMARK VINA RESULT:      -8.0      0.000      0.000
REMARK  Name = 
REMARK  6 active torsions:
REMARK  status: ('A' for Active; 'I' for Inactive)
REMARK    1  A    between atoms: C_1  and  O_2
REMARK    2  A    between atoms: O_2  and  C_3
REMARK    3  A    between atoms: C_16  and  S_17
REMARK    4  A    between atoms: S_17  and  C_18
REMARK    5  A    between atoms: C_18  and  C_19
REMARK    6  A    between atoms: C_19  and  N_20
REMARK                            x       y       z     vdW  Elec       q    Type
REMARK                         _______ _______ _______ _____ _____    ______ ____
ROOT
ATOM      1  C   UNL     1       6.613   5.162  15.781  0.00  0.00    +0.000 A 
ATOM      2  C   UNL     1       6.489   6.385  16.468  0.00  0.00    +0.000 A 
ATOM      3  C   UNL     1       5.467   6.567  17.404  0.00  0.00    +0.000 A 
ATOM      4  C   UNL     1       4.560   5.531  17.677  0.00  0.00    +0.000 A 
ATOM      5  C   UNL     1       4.708   4.294  17.023  0.00  0.00    +0.000 A 
ATOM      6  C   UNL     1       5.723   4.123  16.076  0.00  0.00    +0.000 A 
ATOM      7  O   UNL     1       3.875   3.261  17.293  0.00  0.00    +0.000 OA
ATOM      8  C   UNL     1       2.878   3.314  18.207  0.00  0.00    +0.000 A 
ATOM      9  C   UNL     1       2.105   2.172  18.446  0.00  0.00    +0.000 A 
ATOM     10  C   UNL     1       1.063   2.210  19.376  0.00  0.00    +0.000 A 
ATOM     11  C   UNL     1       0.786   3.388  20.075  0.00  0.00    +0.000 A 
ATOM     12  C   UNL     1       1.557   4.532  19.846  0.00  0.00    +0.000 A 
ATOM     13  C   UNL     1       2.608   4.505  18.913  0.00  0.00    +0.000 A 
ATOM     14  C   UNL     1       3.424   5.750  18.654  0.00  0.00    +0.000 C 
ENDROOT
BRANCH   1  16
ATOM     15  C   UNL     1       7.354   4.905  13.471  0.00  0.00    +0.000 C 
ATOM     16  O   UNL     1       7.561   4.949  14.832  0.00  0.00    +0.000 OA
ENDBRANCH   1  16
BRANCH  14  17
ATOM     17  S   UNL     1       2.326   7.104  18.047  0.00  0.00    +0.000 S 
BRANCH  17  18
ATOM     18  C   UNL     1       2.072   7.938  19.665  0.00  0.00    +0.000 C 
BRANCH  18  19
ATOM     19  C   UNL     1       1.350   9.282  19.498  0.00  0.00    +0.000 C 
BRANCH  19  20
ATOM     20  N   UNL     1       0.303   9.532  20.519  0.00  0.00    +0.000 NA
ATOM     21  C   UNL     1       0.645   8.947  21.838  0.00  0.00    +0.000 C 
ATOM     22  C   UNL     1      -0.492   9.193  22.840  0.00  0.00    +0.000 C 
ATOM     23  C   UNL     1      -0.737  10.694  22.991  0.00  0.00    +0.000 C 
ATOM     24  C   UNL     1      -1.048  11.297  21.622  0.00  0.00    +0.000 C 
ATOM     25  C   UNL     1       0.099  10.993  20.650  0.00  0.00    +0.000 C 
ENDBRANCH  19  20
ENDBRANCH  18  19
ENDBRANCH  17  18
ENDBRANCH  14  17
TORSDOF 5
ENDMDL
MODEL 2
REMARK VINA RESULT:      -7.9      0.831      1.282
REMARK  Name = 
REMARK  6 active torsions:
REMARK  status: ('A' for Active; 'I' for Inactive)
REMARK    1  A    between atoms: C_1  and  O_2
REMARK    2  A    between atoms: O_2  and  C_3
REMARK    3  A    between atoms: C_16  and  S_17
REMARK    4  A    between atoms: S_17  and  C_18
REMARK    5  A    between atoms: C_18  and  C_19
REMARK    6  A    between atoms: C_19  and  N_20
REMARK                            x       y       z     vdW  Elec       q    Type
REMARK                         _______ _______ _______ _____ _____    ______ ____
ROOT
ATOM      1  C   UNL     1       5.753   5.072  15.238  0.00  0.00    +0.000 A 
ATOM      2  C   UNL     1       5.600   6.403  15.673  0.00  0.00    +0.000 A 
ATOM      3  C   UNL     1       4.771   6.698  16.758  0.00  0.00    +0.000 A 
ATOM      4  C   UNL     1       4.089   5.673  17.433  0.00  0.00    +0.000 A 
ATOM      5  C   UNL     1       4.274   4.339  17.028  0.00  0.00    +0.000 A 
ATOM      6  C   UNL     1       5.093   4.050  15.930  0.00  0.00    +0.000 A 
ATOM      7  O   UNL     1       3.663   3.322  17.682  0.00  0.00    +0.000 OA
ATOM      8  C   UNL     1       2.872   3.491  18.767  0.00  0.00    +0.000 A 
ATOM      9  C   UNL     1       2.329   2.367  19.400  0.00  0.00    +0.000 A 
ATOM     10  C   UNL     1       1.499   2.520  20.514  0.00  0.00    +0.000 A 
ATOM     11  C   UNL     1       1.206   3.796  21.003  0.00  0.00    +0.000 A 
ATOM     12  C   UNL     1       1.749   4.923  20.379  0.00  0.00    +0.000 A 
ATOM     13  C   UNL     1       2.585   4.781  19.259  0.00  0.00    +0.000 A 
ATOM     14  C   UNL     1       3.152   6.004  18.575  0.00  0.00    +0.000 C 
ENDROOT
BRANCH   1  16
ATOM     15  C   UNL     1       6.214   3.771  13.227  0.00  0.00    +0.000 C 
ATOM     16  O   UNL     1       6.513   4.736  14.164  0.00  0.00    +0.000 OA
ENDBRANCH   1  16
BRANCH  14  17
ATOM     17  S   UNL     1       1.778   7.076  17.969  0.00  0.00    +0.000 S 
BRANCH  17  18
ATOM     18  C   UNL     1       2.160   8.548  19.002  0.00  0.00    +0.000 C 
BRANCH  18  19
ATOM     19  C   UNL     1       0.944   9.474  19.134  0.00  0.00    +0.000 C 
BRANCH  19  20
ATOM     20  N   UNL     1       0.729   9.992  20.509  0.00  0.00    +0.000 NA
ATOM     21  C   UNL     1      -0.384  10.969  20.581  0.00  0.00    +0.000 C 
ATOM     22  C   UNL     1      -0.528  11.505  22.011  0.00  0.00    +0.000 C 
ATOM     23  C   UNL     1      -0.794  10.352  22.977  0.00  0.00    +0.000 C 
ATOM     24  C   UNL     1       0.337   9.329  22.867  0.00  0.00    +0.000 C 
ATOM     25  C   UNL     1       0.464   8.851  21.416  0.00  0.00    +0.000 C 
ENDBRANCH  19  20
ENDBRANCH  18  19
ENDBRANCH  17  18
ENDBRANCH  14  17
TORSDOF 5
ENDMDL
MODEL 3
REMARK VINA RESULT:      -7.8      3.165      7.866
REMARK  Name = 
REMARK  6 active torsions:
REMARK  status: ('A' for Active; 'I' for Inactive)
REMARK    1  A    between atoms: C_1  and  O_2
REMARK    2  A    between atoms: O_2  and  C_3
REMARK    3  A    between atoms: C_16  and  S_17
REMARK    4  A    between atoms: S_17  and  C_18
REMARK    5  A    between atoms: C_18  and  C_19
REMARK    6  A    between atoms: C_19  and  N_20
REMARK                            x       y       z     vdW  Elec       q    Type
REMARK                         _______ _______ _______ _____ _____    ______ ____
ROOT
ATOM      1  C   UNL     1       1.387   9.661  19.286  0.00  0.00    +0.000 A 
ATOM      2  C   UNL     1       1.961   9.509  18.009  0.00  0.00    +0.000 A 
ATOM      3  C   UNL     1       2.523   8.287  17.630  0.00  0.00    +0.000 A 
ATOM      4  C   UNL     1       2.513   7.195  18.513  0.00  0.00    +0.000 A 
ATOM      5  C   UNL     1       1.901   7.333  19.773  0.00  0.00    +0.000 A 
ATOM      6  C   UNL     1       1.355   8.563  20.153  0.00  0.00    +0.000 A 
ATOM      7  O   UNL     1       1.839   6.288  20.633  0.00  0.00    +0.000 OA
ATOM      8  C   UNL     1       2.314   5.052  20.354  0.00  0.00    +0.000 A 
ATOM      9  C   UNL     1       2.154   4.027  21.294  0.00  0.00    +0.000 A 
ATOM     10  C   UNL     1       2.650   2.748  21.031  0.00  0.00    +0.000 A 
ATOM     11  C   UNL     1       3.308   2.482  19.828  0.00  0.00    +0.000 A 
ATOM     12  C   UNL     1       3.468   3.498  18.882  0.00  0.00    +0.000 A 
ATOM     13  C   UNL     1       2.973   4.789  19.135  0.00  0.00    +0.000 A 
ATOM     14  C   UNL     1       3.167   5.889  18.117  0.00  0.00    +0.000 C 
ENDROOT
BRANCH   1  16
ATOM     15  C   UNL     1       0.073  11.017  20.831  0.00  0.00    +0.000 C 
ATOM     16  O   UNL     1       0.866  10.839  19.719  0.00  0.00    +0.000 OA
ENDBRANCH   1  16
BRANCH  14  17
ATOM     17  S   UNL     1       4.969   6.155  17.819  0.00  0.00    +0.000 S 
BRANCH  17  18
ATOM     18  C   UNL     1       5.013   5.527  16.093  0.00  0.00    +0.000 C 
BRANCH  18  19
ATOM     19  C   UNL     1       5.797   4.212  15.992  0.00  0.00    +0.000 C 
BRANCH  19  20
ATOM     20  N   UNL     1       6.503   4.031  14.699  0.00  0.00    +0.000 NA
ATOM     21  C   UNL     1       5.582   3.666  13.595  0.00  0.00    +0.000 C 
ATOM     22  C   UNL     1       6.370   3.444  12.297  0.00  0.00    +0.000 C 
ATOM     23  C   UNL     1       7.137   4.713  11.929  0.00  0.00    +0.000 C 
ATOM     24  C   UNL     1       8.054   5.105  13.088  0.00  0.00    +0.000 C 
ATOM     25  C   UNL     1       7.225   5.280  14.366  0.00  0.00    +0.000 C 
ENDBRANCH  19  20
ENDBRANCH  18  19
ENDBRANCH  17  18
ENDBRANCH  14  17
TORSDOF 5
ENDMDL
MODEL 4
REMARK VINA RESULT:      -7.8      3.279      7.863
REMARK  Name = 
REMARK  6 active torsions:
REMARK  status: ('A' for Active; 'I' for Inactive)
REMARK    1  A    between atoms: C_1  and  O_2
REMARK    2  A    between atoms: O_2  and  C_3
REMARK    3  A    between atoms: C_16  and  S_17
REMARK    4  A    between atoms: S_17  and  C_18
REMARK    5  A    between atoms: C_18  and  C_19
REMARK    6  A    between atoms: C_19  and  N_20
REMARK                            x       y       z     vdW  Elec       q    Type
REMARK                         _______ _______ _______ _____ _____    ______ ____
ROOT
ATOM      1  C   UNL     1       1.300   9.555  19.393  0.00  0.00    +0.000 A 
ATOM      2  C   UNL     1       1.907   9.387  18.133  0.00  0.00    +0.000 A 
ATOM      3  C   UNL     1       2.491   8.165  17.789  0.00  0.00    +0.000 A 
ATOM      4  C   UNL     1       2.470   7.088  18.690  0.00  0.00    +0.000 A 
ATOM      5  C   UNL     1       1.826   7.240  19.932  0.00  0.00    +0.000 A 
ATOM      6  C   UNL     1       1.258   8.471  20.277  0.00  0.00    +0.000 A 
ATOM      7  O   UNL     1       1.752   6.210  20.808  0.00  0.00    +0.000 OA
ATOM      8  C   UNL     1       2.247   4.974  20.562  0.00  0.00    +0.000 A 
ATOM      9  C   UNL     1       2.074   3.964  21.516  0.00  0.00    +0.000 A 
ATOM     10  C   UNL     1       2.589   2.685  21.287  0.00  0.00    +0.000 A 
ATOM     11  C   UNL     1       3.280   2.406  20.106  0.00  0.00    +0.000 A 
ATOM     12  C   UNL     1       3.453   3.408  19.146  0.00  0.00    +0.000 A 
ATOM     13  C   UNL     1       2.939   4.697  19.365  0.00  0.00    +0.000 A 
ATOM     14  C   UNL     1       3.147   5.782  18.333  0.00  0.00    +0.000 C 
ENDROOT
BRANCH   1  16
ATOM     15  C   UNL     1       1.064  11.981  19.292  0.00  0.00    +0.000 C 
ATOM     16  O   UNL     1       0.756  10.734  19.792  0.00  0.00    +0.000 OA
ENDBRANCH   1  16
BRANCH  14  17
ATOM     17  S   UNL     1       4.953   6.063  18.075  0.00  0.00    +0.000 S 
BRANCH  17  18
ATOM     18  C   UNL     1       5.126   5.064  16.543  0.00  0.00    +0.000 C 
BRANCH  18  19
ATOM     19  C   UNL     1       6.439   5.375  15.812  0.00  0.00    +0.000 C 
BRANCH  19  20
ATOM     20  N   UNL     1       6.383   5.139  14.348  0.00  0.00    +0.000 NA
ATOM     21  C   UNL     1       7.705   5.297  13.696  0.00  0.00    +0.000 C 
ATOM     22  C   UNL     1       7.579   5.090  12.181  0.00  0.00    +0.000 C 
ATOM     23  C   UNL     1       7.025   3.696  11.889  0.00  0.00    +0.000 C 
ATOM     24  C   UNL     1       5.681   3.526  12.598  0.00  0.00    +0.000 C 
ATOM     25  C   UNL     1       5.854   3.778  14.101  0.00  0.00    +0.000 C 
ENDBRANCH  19  20
ENDBRANCH  18  19
ENDBRANCH  17  18
ENDBRANCH  14  17
TORSDOF 5
ENDMDL
MODEL 5
REMARK VINA RESULT:      -7.5      1.192      1.658
REMARK  Name = 
REMARK  6 active torsions:
REMARK  status: ('A' for Active; 'I' for Inactive)
REMARK    1  A    between atoms: C_1  and  O_2
REMARK    2  A    between atoms: O_2  and  C_3
REMARK    3  A    between atoms: C_16  and  S_17
REMARK    4  A    between atoms: S_17  and  C_18
REMARK    5  A    between atoms: C_18  and  C_19
REMARK    6  A    between atoms: C_19  and  N_20
REMARK                            x       y       z     vdW  Elec       q    Type
REMARK                         _______ _______ _______ _____ _____    ______ ____
ROOT
ATOM      1  C   UNL     1       6.522   5.481  15.906  0.00  0.00    +0.000 A 
ATOM      2  C   UNL     1       6.293   6.727  16.522  0.00  0.00    +0.000 A 
ATOM      3  C   UNL     1       5.259   6.875  17.450  0.00  0.00    +0.000 A 
ATOM      4  C   UNL     1       4.444   5.782  17.788  0.00  0.00    +0.000 A 
ATOM      5  C   UNL     1       4.699   4.527  17.206  0.00  0.00    +0.000 A 
ATOM      6  C   UNL     1       5.725   4.389  16.266  0.00  0.00    +0.000 A 
ATOM      7  O   UNL     1       3.958   3.443  17.540  0.00  0.00    +0.000 OA
ATOM      8  C   UNL     1       2.960   3.463  18.454  0.00  0.00    +0.000 A 
ATOM      9  C   UNL     1       2.288   2.275  18.763  0.00  0.00    +0.000 A 
ATOM     10  C   UNL     1       1.247   2.277  19.694  0.00  0.00    +0.000 A 
ATOM     11  C   UNL     1       0.869   3.466  20.324  0.00  0.00    +0.000 A 
ATOM     12  C   UNL     1       1.538   4.656  20.025  0.00  0.00    +0.000 A 
ATOM     13  C   UNL     1       2.588   4.665  19.090  0.00  0.00    +0.000 A 
ATOM     14  C   UNL     1       3.293   5.959  18.755  0.00  0.00    +0.000 C 
ENDROOT
BRANCH   1  16
ATOM     15  C   UNL     1       7.298   4.789  13.700  0.00  0.00    +0.000 C 
ATOM     16  O   UNL     1       7.486   5.296  14.968  0.00  0.00    +0.000 OA
ENDBRANCH   1  16
BRANCH  14  17
ATOM     17  S   UNL     1       2.083   7.175  18.075  0.00  0.00    +0.000 S 
BRANCH  17  18
ATOM     18  C   UNL     1       1.889   8.186  19.598  0.00  0.00    +0.000 C 
BRANCH  18  19
ATOM     19  C   UNL     1       1.600   9.656  19.265  0.00  0.00    +0.000 C 
BRANCH  19  20
ATOM     20  N   UNL     1       0.173  10.035  19.410  0.00  0.00    +0.000 NA
ATOM     21  C   UNL     1      -0.001  11.361  20.049  0.00  0.00    +0.000 C 
ATOM     22  C   UNL     1      -1.493  11.679  20.218  0.00  0.00    +0.000 C 
ATOM     23  C   UNL     1      -2.186  11.670  18.857  0.00  0.00    +0.000 C 
ATOM     24  C   UNL     1      -1.968  10.313  18.187  0.00  0.00    +0.000 C 
ATOM     25  C   UNL     1      -0.465  10.027  18.074  0.00  0.00    +0.000 C 
ENDBRANCH  19  20
ENDBRANCH  18  19
ENDBRANCH  17  18
ENDBRANCH  14  17
TORSDOF 5
ENDMDL
MODEL 6
REMARK VINA RESULT:      -7.4      1.447      1.757
REMARK  Name = 
REMARK  6 active torsions:
REMARK  status: ('A' for Active; 'I' for Inactive)
REMARK    1  A    between atoms: C_1  and  O_2
REMARK    2  A    between atoms: O_2  and  C_3
REMARK    3  A    between atoms: C_16  and  S_17
REMARK    4  A    between atoms: S_17  and  C_18
REMARK    5  A    between atoms: C_18  and  C_19
REMARK    6  A    between atoms: C_19  and  N_20
REMARK                            x       y       z     vdW  Elec       q    Type
REMARK                         _______ _______ _______ _____ _____    ______ ____
ROOT
ATOM      1  C   UNL     1       5.795   4.866  15.100  0.00  0.00    +0.000 A 
ATOM      2  C   UNL     1       5.520   6.219  15.377  0.00  0.00    +0.000 A 
ATOM      3  C   UNL     1       4.785   6.571  16.512  0.00  0.00    +0.000 A 
ATOM      4  C   UNL     1       4.321   5.581  17.394  0.00  0.00    +0.000 A 
ATOM      5  C   UNL     1       4.632   4.233  17.142  0.00  0.00    +0.000 A 
ATOM      6  C   UNL     1       5.354   3.885  15.996  0.00  0.00    +0.000 A 
ATOM      7  O   UNL     1       4.235   3.256  17.994  0.00  0.00    +0.000 OA
ATOM      8  C   UNL     1       3.554   3.487  19.140  0.00  0.00    +0.000 A 
ATOM      9  C   UNL     1       3.234   2.411  19.976  0.00  0.00    +0.000 A 
ATOM     10  C   UNL     1       2.520   2.626  21.158  0.00  0.00    +0.000 A 
ATOM     11  C   UNL     1       2.120   3.917  21.513  0.00  0.00    +0.000 A 
ATOM     12  C   UNL     1       2.440   4.998  20.686  0.00  0.00    +0.000 A 
ATOM     13  C   UNL     1       3.158   4.793  19.496  0.00  0.00    +0.000 A 
ATOM     14  C   UNL     1       3.482   5.963  18.595  0.00  0.00    +0.000 C 
ENDROOT
BRANCH   1  16
ATOM     15  C   UNL     1       6.038   3.541  13.067  0.00  0.00    +0.000 C 
ATOM     16  O   UNL     1       6.468   4.469  13.989  0.00  0.00    +0.000 OA
ENDBRANCH   1  16
BRANCH  14  17
ATOM     17  S   UNL     1       1.921   6.775  18.038  0.00  0.00    +0.000 S 
BRANCH  17  18
ATOM     18  C   UNL     1       2.299   8.459  18.669  0.00  0.00    +0.000 C 
BRANCH  18  19
ATOM     19  C   UNL     1       1.501   9.534  17.918  0.00  0.00    +0.000 C 
BRANCH  19  20
ATOM     20  N   UNL     1       0.776  10.475  18.808  0.00  0.00    +0.000 NA
ATOM     21  C   UNL     1      -0.692  10.437  18.600  0.00  0.00    +0.000 C 
ATOM     22  C   UNL     1      -1.384  11.462  19.508  0.00  0.00    +0.000 C 
ATOM     23  C   UNL     1      -1.064  11.162  20.972  0.00  0.00    +0.000 C 
ATOM     24  C   UNL     1       0.452  11.163  21.169  0.00  0.00    +0.000 C 
ATOM     25  C   UNL     1       1.098  10.150  20.216  0.00  0.00    +0.000 C 
ENDBRANCH  19  20
ENDBRANCH  18  19
ENDBRANCH  17  18
ENDBRANCH  14  17
TORSDOF 5
ENDMDL
MODEL 7
REMARK VINA RESULT:      -7.4      0.741      1.347
REMARK  Name = 
REMARK  6 active torsions:
REMARK  status: ('A' for Active; 'I' for Inactive)
REMARK    1  A    between atoms: C_1  and  O_2
REMARK    2  A    between atoms: O_2  and  C_3
REMARK    3  A    between atoms: C_16  and  S_17
REMARK    4  A    between atoms: S_17  and  C_18
REMARK    5  A    between atoms: C_18  and  C_19
REMARK    6  A    between atoms: C_19  and  N_20
REMARK                            x       y       z     vdW  Elec       q    Type
REMARK                         _______ _______ _______ _____ _____    ______ ____
ROOT
ATOM      1  C   UNL     1       6.516   5.405  15.802  0.00  0.00    +0.000 A 
ATOM      2  C   UNL     1       6.488   6.500  16.687  0.00  0.00    +0.000 A 
ATOM      3  C   UNL     1       5.506   6.579  17.678  0.00  0.00    +0.000 A 
ATOM      4  C   UNL     1       4.544   5.565  17.810  0.00  0.00    +0.000 A 
ATOM      5  C   UNL     1       4.597   4.449  16.955  0.00  0.00    +0.000 A 
ATOM      6  C   UNL     1       5.572   4.383  15.954  0.00  0.00    +0.000 A 
ATOM      7  O   UNL     1       3.709   3.434  17.080  0.00  0.00    +0.000 OA
ATOM      8  C   UNL     1       2.744   3.389  18.029  0.00  0.00    +0.000 A 
ATOM      9  C   UNL     1       1.908   2.269  18.104  0.00  0.00    +0.000 A 
ATOM     10  C   UNL     1       0.897   2.209  19.067  0.00  0.00    +0.000 A 
ATOM     11  C   UNL     1       0.714   3.267  19.961  0.00  0.00    +0.000 A 
ATOM     12  C   UNL     1       1.548   4.387  19.896  0.00  0.00    +0.000 A 
ATOM     13  C   UNL     1       2.568   4.458  18.932  0.00  0.00    +0.000 A 
ATOM     14  C   UNL     1       3.453   5.680  18.853  0.00  0.00    +0.000 C 
ENDROOT
BRANCH   1  16
ATOM     15  C   UNL     1       7.180   4.809  13.531  0.00  0.00    +0.000 C 
ATOM     16  O   UNL     1       7.422   5.301  14.795  0.00  0.00    +0.000 OA
ENDBRANCH   1  16
BRANCH  14  17
ATOM     17  S   UNL     1       2.424   7.177  18.521  0.00  0.00    +0.000 S 
BRANCH  17  18
ATOM     18  C   UNL     1       2.262   7.737  20.264  0.00  0.00    +0.000 C 
BRANCH  18  19
ATOM     19  C   UNL     1       0.864   8.305  20.545  0.00  0.00    +0.000 C 
BRANCH  19  20
ATOM     20  N   UNL     1       0.827   9.785  20.648  0.00  0.00    +0.000 NA
ATOM     21  C   UNL     1       0.684  10.443  19.327  0.00  0.00    +0.000 C 
ATOM     22  C   UNL     1       0.701  11.968  19.488  0.00  0.00    +0.000 C 
ATOM     23  C   UNL     1      -0.438  12.408  20.407  0.00  0.00    +0.000 C 
ATOM     24  C   UNL     1      -0.308  11.695  21.752  0.00  0.00    +0.000 C 
ATOM     25  C   UNL     1      -0.293  10.177  21.534  0.00  0.00    +0.000 C 
ENDBRANCH  19  20
ENDBRANCH  18  19
ENDBRANCH  17  18
ENDBRANCH  14  17
TORSDOF 5
ENDMDL
MODEL 8
REMARK VINA RESULT:      -7.3      1.817      2.111
REMARK  Name = 
REMARK  6 active torsions:
REMARK  status: ('A' for Active; 'I' for Inactive)
REMARK    1  A    between atoms: C_1  and  O_2
REMARK    2  A    between atoms: O_2  and  C_3
REMARK    3  A    between atoms: C_16  and  S_17
REMARK    4  A    between atoms: S_17  and  C_18
REMARK    5  A    between atoms: C_18  and  C_19
REMARK    6  A    between atoms: C_19  and  N_20
REMARK                            x       y       z     vdW  Elec       q    Type
REMARK                         _______ _______ _______ _____ _____    ______ ____
ROOT
ATOM      1  C   UNL     1       6.620   5.274  16.204  0.00  0.00    +0.000 A 
ATOM      2  C   UNL     1       6.860   6.049  17.355  0.00  0.00    +0.000 A 
ATOM      3  C   UNL     1       5.968   6.009  18.429  0.00  0.00    +0.000 A 
ATOM      4  C   UNL     1       4.829   5.189  18.379  0.00  0.00    +0.000 A 
ATOM      5  C   UNL     1       4.611   4.382  17.248  0.00  0.00    +0.000 A 
ATOM      6  C   UNL     1       5.499   4.438  16.168  0.00  0.00    +0.000 A 
ATOM      7  O   UNL     1       3.543   3.550  17.183  0.00  0.00    +0.000 OA
ATOM      8  C   UNL     1       2.640   3.403  18.180  0.00  0.00    +0.000 A 
ATOM      9  C   UNL     1       1.600   2.477  18.032  0.00  0.00    +0.000 A 
ATOM     10  C   UNL     1       0.650   2.320  19.044  0.00  0.00    +0.000 A 
ATOM     11  C   UNL     1       0.731   3.085  20.210  0.00  0.00    +0.000 A 
ATOM     12  C   UNL     1       1.769   4.008  20.368  0.00  0.00    +0.000 A 
ATOM     13  C   UNL     1       2.731   4.174  19.357  0.00  0.00    +0.000 A 
ATOM     14  C   UNL     1       3.839   5.188  19.524  0.00  0.00    +0.000 C 
ENDROOT
BRANCH   1  16
ATOM     15  C   UNL     1       7.138   4.812  13.865  0.00  0.00    +0.000 C 
ATOM     16  O   UNL     1       7.433   5.308  15.116  0.00  0.00    +0.000 OA
ENDBRANCH   1  16
BRANCH  14  17
ATOM     17  S   UNL     1       3.118   6.875  19.732  0.00  0.00    +0.000 S 
BRANCH  17  18
ATOM     18  C   UNL     1       2.419   7.038  18.040  0.00  0.00    +0.000 C 
BRANCH  18  19
ATOM     19  C   UNL     1       2.525   8.479  17.524  0.00  0.00    +0.000 C 
BRANCH  19  20
ATOM     20  N   UNL     1       1.764   9.464  18.332  0.00  0.00    +0.000 NA
ATOM     21  C   UNL     1       2.206  10.859  18.091  0.00  0.00    +0.000 C 
ATOM     22  C   UNL     1       1.421  11.827  18.986  0.00  0.00    +0.000 C 
ATOM     23  C   UNL     1      -0.075  11.705  18.700  0.00  0.00    +0.000 C 
ATOM     24  C   UNL     1      -0.514  10.256  18.911  0.00  0.00    +0.000 C 
ATOM     25  C   UNL     1       0.322   9.327  18.023  0.00  0.00    +0.000 C 
ENDBRANCH  19  20
ENDBRANCH  18  19
ENDBRANCH  17  18
ENDBRANCH  14  17
TORSDOF 5
ENDMDL
MODEL 9
REMARK VINA RESULT:      -7.2      1.178      1.356
REMARK  Name = 
REMARK  6 active torsions:
REMARK  status: ('A' for Active; 'I' for Inactive)
REMARK    1  A    between atoms: C_1  and  O_2
REMARK    2  A    between atoms: O_2  and  C_3
REMARK    3  A    between atoms: C_16  and  S_17
REMARK    4  A    between atoms: S_17  and  C_18
REMARK    5  A    between atoms: C_18  and  C_19
REMARK    6  A    between atoms: C_19  and  N_20
REMARK                            x       y       z     vdW  Elec       q    Type
REMARK                         _______ _______ _______ _____ _____    ______ ____
ROOT
ATOM      1  C   UNL     1       5.747   4.418  15.117  0.00  0.00    +0.000 A 
ATOM      2  C   UNL     1       5.659   5.792  15.414  0.00  0.00    +0.000 A 
ATOM      3  C   UNL     1       4.887   6.232  16.491  0.00  0.00    +0.000 A 
ATOM      4  C   UNL     1       4.198   5.311  17.297  0.00  0.00    +0.000 A 
ATOM      5  C   UNL     1       4.320   3.935  17.029  0.00  0.00    +0.000 A 
ATOM      6  C   UNL     1       5.081   3.501  15.939  0.00  0.00    +0.000 A 
ATOM      7  O   UNL     1       3.702   3.017  17.810  0.00  0.00    +0.000 OA
ATOM      8  C   UNL     1       2.963   3.329  18.900  0.00  0.00    +0.000 A 
ATOM      9  C   UNL     1       2.407   2.301  19.670  0.00  0.00    +0.000 A 
ATOM     10  C   UNL     1       1.630   2.602  20.792  0.00  0.00    +0.000 A 
ATOM     11  C   UNL     1       1.403   3.933  21.153  0.00  0.00    +0.000 A 
ATOM     12  C   UNL     1       1.959   4.966  20.392  0.00  0.00    +0.000 A 
ATOM     13  C   UNL     1       2.742   4.674  19.263  0.00  0.00    +0.000 A 
ATOM     14  C   UNL     1       3.323   5.796  18.433  0.00  0.00    +0.000 C 
ENDROOT
BRANCH   1  16
ATOM     15  C   UNL     1       7.195   4.692  13.174  0.00  0.00    +0.000 C 
ATOM     16  O   UNL     1       6.449   3.942  14.057  0.00  0.00    +0.000 OA
ENDBRANCH   1  16
BRANCH  14  17
ATOM     17  S   UNL     1       1.962   6.852  17.769  0.00  0.00    +0.000 S 
BRANCH  17  18
ATOM     18  C   UNL     1       2.657   8.474  18.282  0.00  0.00    +0.000 C 
BRANCH  18  19
ATOM     19  C   UNL     1       1.714   9.630  17.923  0.00  0.00    +0.000 C 
BRANCH  19  20
ATOM     20  N   UNL     1       0.581   9.796  18.867  0.00  0.00    +0.000 NA
ATOM     21  C   UNL     1       1.014   9.776  20.285  0.00  0.00    +0.000 C 
ATOM     22  C   UNL     1      -0.200   9.902  21.214  0.00  0.00    +0.000 C 
ATOM     23  C   UNL     1      -0.947  11.202  20.923  0.00  0.00    +0.000 C 
ATOM     24  C   UNL     1      -1.355  11.234  19.450  0.00  0.00    +0.000 C 
ATOM     25  C   UNL     1      -0.113  11.069  18.566  0.00  0.00    +0.000 C 
ENDBRANCH  19  20
ENDBRANCH  18  19
ENDBRANCH  17  18
ENDBRANCH  14  17
TORSDOF 5
ENDMDL
