MODEL 1
REMARK VINA RESULT:      -7.7      0.000      0.000
REMARK  Name = 
REMARK  6 active torsions:
REMARK  status: ('A' for Active; 'I' for Inactive)
REMARK    1  A    between atoms: C_1  and  O_2
REMARK    2  A    between atoms: O_2  and  C_3
REMARK    3  A    between atoms: C_6  and  C_7
REMARK    4  A    between atoms: C_11  and  C_12
REMARK    5  A    between atoms: C_12  and  C_13
REMARK    6  A    between atoms: C_13  and  N_14
REMARK                            x       y       z     vdW  Elec       q    Type
REMARK                         _______ _______ _______ _____ _____    ______ ____
ROOT
ATOM      1  C   UNL     1       2.177   7.942  18.724  0.00  0.00    +0.000 C 
ATOM      2  C   UNL     1       2.403   6.660  19.024  0.00  0.00    +0.000 C 
ATOM      3  C   UNL     1       1.916   5.817  20.159  0.00  0.00    +0.000 C 
ATOM      4  C   UNL     1       2.994   4.749  20.288  0.00  0.00    +0.000 C 
ATOM      5  C   UNL     1       3.518   4.490  18.871  0.00  0.00    +0.000 C 
ATOM      6  C   UNL     1       3.334   5.831  18.212  0.00  0.00    +0.000 C 
ATOM      7  O   UNL     1       3.833   6.183  17.157  0.00  0.00    +0.000 OA
ENDROOT
BRANCH   1  11
ATOM      8  C   UNL     1      -0.355  10.435  21.064  0.00  0.00    +0.000 A 
ATOM      9  C   UNL     1      -0.260  10.626  19.685  0.00  0.00    +0.000 A 
ATOM     10  C   UNL     1       0.574   9.810  18.917  0.00  0.00    +0.000 A 
ATOM     11  C   UNL     1       1.330   8.809  19.531  0.00  0.00    +0.000 A 
ATOM     12  C   UNL     1       1.266   8.646  20.919  0.00  0.00    +0.000 A 
ATOM     13  C   UNL     1       0.423   9.455  21.683  0.00  0.00    +0.000 A 
BRANCH   8  15
ATOM     14  C   UNL     1      -1.310  11.091  23.118  0.00  0.00    +0.000 C 
ATOM     15  O   UNL     1      -1.212  11.283  21.710  0.00  0.00    +0.000 OA
ENDBRANCH   8  15
ENDBRANCH   1  11
BRANCH   5  16
ATOM     16  C   UNL     1       4.971   4.037  18.848  0.00  0.00    +0.000 C 
BRANCH  16  17
ATOM     17  C   UNL     1       5.904   5.179  19.257  0.00  0.00    +0.000 C 
BRANCH  17  18
ATOM     18  N   UNL     1       7.295   4.995  18.818  0.00  0.00    +0.000 NA
ATOM     19  C   UNL     1       8.102   6.233  18.896  0.00  0.00    +0.000 C 
ATOM     20  C   UNL     1       7.674   7.307  17.883  0.00  0.00    +0.000 C 
ATOM     21  O   UNL     1       7.704   6.805  16.540  0.00  0.00    +0.000 OA
ATOM     22  C   UNL     1       6.900   5.626  16.406  0.00  0.00    +0.000 C 
ATOM     23  C   UNL     1       7.331   4.538  17.407  0.00  0.00    +0.000 C 
ENDBRANCH  17  18
ENDBRANCH  16  17
ENDBRANCH   5  16
TORSDOF 5
ENDMDL
MODEL 2
REMARK VINA RESULT:      -7.5      0.480      1.109
REMARK  Name = 
REMARK  6 active torsions:
REMARK  status: ('A' for Active; 'I' for Inactive)
REMARK    1  A    between atoms: C_1  and  O_2
REMARK    2  A    between atoms: O_2  and  C_3
REMARK    3  A    between atoms: C_6  and  C_7
REMARK    4  A    between atoms: C_11  and  C_12
REMARK    5  A    between atoms: C_12  and  C_13
REMARK    6  A    between atoms: C_13  and  N_14
REMARK                            x       y       z     vdW  Elec       q    Type
REMARK                         _______ _______ _______ _____ _____    ______ ____
ROOT
ATOM      1  C   UNL     1       2.154   8.108  18.858  0.00  0.00    +0.000 C 
ATOM      2  C   UNL     1       2.406   6.809  19.047  0.00  0.00    +0.000 C 
ATOM      3  C   UNL     1       1.971   5.872  20.127  0.00  0.00    +0.000 C 
ATOM      4  C   UNL     1       3.066   4.814  20.134  0.00  0.00    +0.000 C 
ATOM      5  C   UNL     1       3.543   4.676  18.684  0.00  0.00    +0.000 C 
ATOM      6  C   UNL     1       3.319   6.062  18.140  0.00  0.00    +0.000 C 
ATOM      7  O   UNL     1       3.777   6.504  17.101  0.00  0.00    +0.000 OA
ENDROOT
BRANCH   1  11
ATOM      8  C   UNL     1      -0.217  10.452  21.501  0.00  0.00    +0.000 A 
ATOM      9  C   UNL     1       0.682   9.513  22.007  0.00  0.00    +0.000 A 
ATOM     10  C   UNL     1       1.458   8.740  21.140  0.00  0.00    +0.000 A 
ATOM     11  C   UNL     1       1.324   8.895  19.759  0.00  0.00    +0.000 A 
ATOM     12  C   UNL     1       0.392   9.806  19.251  0.00  0.00    +0.000 A 
ATOM     13  C   UNL     1      -0.374  10.585  20.120  0.00  0.00    +0.000 A 
BRANCH   8  15
ATOM     14  C   UNL     1      -0.794  12.575  22.349  0.00  0.00    +0.000 C 
ATOM     15  O   UNL     1      -0.911  11.158  22.443  0.00  0.00    +0.000 OA
ENDBRANCH   8  15
ENDBRANCH   1  11
BRANCH   5  16
ATOM     16  C   UNL     1       5.001   4.249  18.576  0.00  0.00    +0.000 C 
BRANCH  16  17
ATOM     17  C   UNL     1       5.919   5.272  19.249  0.00  0.00    +0.000 C 
BRANCH  17  18
ATOM     18  N   UNL     1       7.330   5.151  18.856  0.00  0.00    +0.000 NA
ATOM     19  C   UNL     1       8.037   6.450  18.803  0.00  0.00    +0.000 C 
ATOM     20  C   UNL     1       7.554   7.364  17.667  0.00  0.00    +0.000 C 
ATOM     21  O   UNL     1       7.655   6.717  16.391  0.00  0.00    +0.000 OA
ATOM     22  C   UNL     1       6.948   5.470  16.381  0.00  0.00    +0.000 C 
ATOM     23  C   UNL     1       7.437   4.540  17.508  0.00  0.00    +0.000 C 
ENDBRANCH  17  18
ENDBRANCH  16  17
ENDBRANCH   5  16
TORSDOF 5
ENDMDL
MODEL 3
REMARK VINA RESULT:      -7.4      1.682      2.659
REMARK  Name = 
REMARK  6 active torsions:
REMARK  status: ('A' for Active; 'I' for Inactive)
REMARK    1  A    between atoms: C_1  and  O_2
REMARK    2  A    between atoms: O_2  and  C_3
REMARK    3  A    between atoms: C_6  and  C_7
REMARK    4  A    between atoms: C_11  and  C_12
REMARK    5  A    between atoms: C_12  and  C_13
REMARK    6  A    between atoms: C_13  and  N_14
REMARK                            x       y       z     vdW  Elec       q    Type
REMARK                         _______ _______ _______ _____ _____    ______ ____
ROOT
ATOM      1  C   UNL     1       0.996   7.824  21.225  0.00  0.00    +0.000 C 
ATOM      2  C   UNL     1       1.768   7.668  20.145  0.00  0.00    +0.000 C 
ATOM      3  C   UNL     1       2.055   8.589  19.004  0.00  0.00    +0.000 C 
ATOM      4  C   UNL     1       2.419   7.639  17.871  0.00  0.00    +0.000 C 
ATOM      5  C   UNL     1       3.120   6.440  18.521  0.00  0.00    +0.000 C 
ATOM      6  C   UNL     1       2.462   6.381  19.874  0.00  0.00    +0.000 C 
ATOM      7  O   UNL     1       2.516   5.445  20.653  0.00  0.00    +0.000 OA
ENDROOT
BRANCH   1  11
ATOM      8  C   UNL     1      -1.266  11.344  21.995  0.00  0.00    +0.000 A 
ATOM      9  C   UNL     1      -0.935  10.993  20.686  0.00  0.00    +0.000 A 
ATOM     10  C   UNL     1      -0.189   9.839  20.433  0.00  0.00    +0.000 A 
ATOM     11  C   UNL     1       0.243   9.040  21.494  0.00  0.00    +0.000 A 
ATOM     12  C   UNL     1      -0.053   9.416  22.808  0.00  0.00    +0.000 A 
ATOM     13  C   UNL     1      -0.808  10.564  23.058  0.00  0.00    +0.000 A 
BRANCH   8  15
ATOM     14  C   UNL     1      -2.258  13.185  20.905  0.00  0.00    +0.000 C 
ATOM     15  O   UNL     1      -2.010  12.484  22.120  0.00  0.00    +0.000 OA
ENDBRANCH   8  15
ENDBRANCH   1  11
BRANCH   5  16
ATOM     16  C   UNL     1       2.934   5.147  17.739  0.00  0.00    +0.000 C 
BRANCH  16  17
ATOM     17  C   UNL     1       4.273   4.644  17.193  0.00  0.00    +0.000 C 
BRANCH  17  18
ATOM     18  N   UNL     1       5.144   5.712  16.682  0.00  0.00    +0.000 NA
ATOM     19  C   UNL     1       5.619   5.470  15.301  0.00  0.00    +0.000 C 
ATOM     20  C   UNL     1       6.600   4.292  15.189  0.00  0.00    +0.000 C 
ATOM     21  O   UNL     1       7.729   4.464  16.057  0.00  0.00    +0.000 OA
ATOM     22  C   UNL     1       7.318   4.660  17.415  0.00  0.00    +0.000 C 
ATOM     23  C   UNL     1       6.346   5.849  17.540  0.00  0.00    +0.000 C 
ENDBRANCH  17  18
ENDBRANCH  16  17
ENDBRANCH   5  16
TORSDOF 5
ENDMDL
MODEL 4
REMARK VINA RESULT:      -7.4      1.675      2.797
REMARK  Name = 
REMARK  6 active torsions:
REMARK  status: ('A' for Active; 'I' for Inactive)
REMARK    1  A    between atoms: C_1  and  O_2
REMARK    2  A    between atoms: O_2  and  C_3
REMARK    3  A    between atoms: C_6  and  C_7
REMARK    4  A    between atoms: C_11  and  C_12
REMARK    5  A    between atoms: C_12  and  C_13
REMARK    6  A    between atoms: C_13  and  N_14
REMARK                            x       y       z     vdW  Elec       q    Type
REMARK                         _______ _______ _______ _____ _____    ______ ____
ROOT
ATOM      1  C   UNL     1       1.106   7.809  21.209  0.00  0.00    +0.000 C 
ATOM      2  C   UNL     1       1.835   7.659  20.099  0.00  0.00    +0.000 C 
ATOM      3  C   UNL     1       2.050   8.573  18.936  0.00  0.00    +0.000 C 
ATOM      4  C   UNL     1       2.390   7.618  17.799  0.00  0.00    +0.000 C 
ATOM      5  C   UNL     1       3.148   6.446  18.432  0.00  0.00    +0.000 C 
ATOM      6  C   UNL     1       2.550   6.386  19.813  0.00  0.00    +0.000 C 
ATOM      7  O   UNL     1       2.661   5.462  20.600  0.00  0.00    +0.000 OA
ENDROOT
BRANCH   1  11
ATOM      8  C   UNL     1      -1.093  11.349  22.066  0.00  0.00    +0.000 A 
ATOM      9  C   UNL     1      -0.762  10.461  23.090  0.00  0.00    +0.000 A 
ATOM     10  C   UNL     1      -0.044   9.297  22.808  0.00  0.00    +0.000 A 
ATOM     11  C   UNL     1       0.333   9.009  21.495  0.00  0.00    +0.000 A 
ATOM     12  C   UNL     1      -0.036   9.878  20.463  0.00  0.00    +0.000 A 
ATOM     13  C   UNL     1      -0.745  11.047  20.748  0.00  0.00    +0.000 A 
BRANCH   8  15
ATOM     14  C   UNL     1      -2.347  13.233  21.405  0.00  0.00    +0.000 C 
ATOM     15  O   UNL     1      -1.785  12.460  22.461  0.00  0.00    +0.000 OA
ENDBRANCH   8  15
ENDBRANCH   1  11
BRANCH   5  16
ATOM     16  C   UNL     1       2.963   5.139  17.674  0.00  0.00    +0.000 C 
BRANCH  16  17
ATOM     17  C   UNL     1       4.295   4.648  17.103  0.00  0.00    +0.000 C 
BRANCH  17  18
ATOM     18  N   UNL     1       5.181   5.730  16.649  0.00  0.00    +0.000 NA
ATOM     19  C   UNL     1       5.686   5.536  15.272  0.00  0.00    +0.000 C 
ATOM     20  C   UNL     1       6.666   4.359  15.140  0.00  0.00    +0.000 C 
ATOM     21  O   UNL     1       7.776   4.495  16.038  0.00  0.00    +0.000 OA
ATOM     22  C   UNL     1       7.335   4.645  17.393  0.00  0.00    +0.000 C 
ATOM     23  C   UNL     1       6.364   5.832  17.538  0.00  0.00    +0.000 C 
ENDBRANCH  17  18
ENDBRANCH  16  17
ENDBRANCH   5  16
TORSDOF 5
ENDMDL
MODEL 5
REMARK VINA RESULT:      -7.2      2.989      8.886
REMARK  Name = 
REMARK  6 active torsions:
REMARK  status: ('A' for Active; 'I' for Inactive)
REMARK    1  A    between atoms: C_1  and  O_2
REMARK    2  A    between atoms: O_2  and  C_3
REMARK    3  A    between atoms: C_6  and  C_7
REMARK    4  A    between atoms: C_11  and  C_12
REMARK    5  A    between atoms: C_12  and  C_13
REMARK    6  A    between atoms: C_13  and  N_14
REMARK                            x       y       z     vdW  Elec       q    Type
REMARK                         _______ _______ _______ _____ _____    ______ ____
ROOT
ATOM      1  C   UNL     1       2.906   6.589  19.331  0.00  0.00    +0.000 C 
ATOM      2  C   UNL     1       2.191   7.668  18.994  0.00  0.00    +0.000 C 
ATOM      3  C   UNL     1       2.003   8.348  17.677  0.00  0.00    +0.000 C 
ATOM      4  C   UNL     1       1.669   9.781  18.068  0.00  0.00    +0.000 C 
ATOM      5  C   UNL     1       0.890   9.699  19.386  0.00  0.00    +0.000 C 
ATOM      6  C   UNL     1       1.467   8.463  20.023  0.00  0.00    +0.000 C 
ATOM      7  O   UNL     1       1.336   8.132  21.188  0.00  0.00    +0.000 OA
ENDROOT
BRANCH   1  11
ATOM      8  C   UNL     1       5.149   4.378  16.470  0.00  0.00    +0.000 A 
ATOM      9  C   UNL     1       3.922   3.896  16.928  0.00  0.00    +0.000 A 
ATOM     10  C   UNL     1       3.187   4.620  17.869  0.00  0.00    +0.000 A 
ATOM     11  C   UNL     1       3.687   5.824  18.370  0.00  0.00    +0.000 A 
ATOM     12  C   UNL     1       4.937   6.285  17.944  0.00  0.00    +0.000 A 
ATOM     13  C   UNL     1       5.665   5.565  16.993  0.00  0.00    +0.000 A 
BRANCH   8  15
ATOM     14  C   UNL     1       6.414   4.298  14.482  0.00  0.00    +0.000 C 
ATOM     15  O   UNL     1       5.771   3.593  15.540  0.00  0.00    +0.000 OA
ENDBRANCH   8  15
ENDBRANCH   1  11
BRANCH   5  16
ATOM     16  C   UNL     1       1.072  10.931  20.262  0.00  0.00    +0.000 C 
BRANCH  16  17
ATOM     17  C   UNL     1      -0.274  11.419  20.801  0.00  0.00    +0.000 C 
BRANCH  17  18
ATOM     18  N   UNL     1      -0.197  12.006  22.146  0.00  0.00    +0.000 NA
ATOM     19  C   UNL     1      -1.328  11.620  23.020  0.00  0.00    +0.000 C 
ATOM     20  C   UNL     1      -2.674  12.217  22.578  0.00  0.00    +0.000 C 
ATOM     21  O   UNL     1      -2.611  13.647  22.488  0.00  0.00    +0.000 OA
ATOM     22  C   UNL     1      -1.554  14.068  21.617  0.00  0.00    +0.000 C 
ATOM     23  C   UNL     1      -0.198  13.487  22.061  0.00  0.00    +0.000 C 
ENDBRANCH  17  18
ENDBRANCH  16  17
ENDBRANCH   5  16
TORSDOF 5
ENDMDL
MODEL 6
REMARK VINA RESULT:      -7.2      2.634      8.342
REMARK  Name = 
REMARK  6 active torsions:
REMARK  status: ('A' for Active; 'I' for Inactive)
REMARK    1  A    between atoms: C_1  and  O_2
REMARK    2  A    between atoms: O_2  and  C_3
REMARK    3  A    between atoms: C_6  and  C_7
REMARK    4  A    between atoms: C_11  and  C_12
REMARK    5  A    between atoms: C_12  and  C_13
REMARK    6  A    between atoms: C_13  and  N_14
REMARK                            x       y       z     vdW  Elec       q    Type
REMARK                         _______ _______ _______ _____ _____    ______ ____
ROOT
ATOM      1  C   UNL     1       3.931   5.478  18.893  0.00  0.00    +0.000 C 
ATOM      2  C   UNL     1       2.991   6.423  18.987  0.00  0.00    +0.000 C 
ATOM      3  C   UNL     1       2.669   7.579  18.095  0.00  0.00    +0.000 C 
ATOM      4  C   UNL     1       2.008   8.575  19.038  0.00  0.00    +0.000 C 
ATOM      5  C   UNL     1       1.250   7.745  20.081  0.00  0.00    +0.000 C 
ATOM      6  C   UNL     1       2.088   6.497  20.167  0.00  0.00    +0.000 C 
ATOM      7  O   UNL     1       2.021   5.650  21.041  0.00  0.00    +0.000 OA
ENDROOT
BRANCH   1  11
ATOM      8  C   UNL     1       6.748   5.235  15.713  0.00  0.00    +0.000 A 
ATOM      9  C   UNL     1       6.976   6.090  16.792  0.00  0.00    +0.000 A 
ATOM     10  C   UNL     1       6.050   6.172  17.834  0.00  0.00    +0.000 A 
ATOM     11  C   UNL     1       4.881   5.410  17.792  0.00  0.00    +0.000 A 
ATOM     12  C   UNL     1       4.632   4.585  16.690  0.00  0.00    +0.000 A 
ATOM     13  C   UNL     1       5.565   4.496  15.654  0.00  0.00    +0.000 A 
BRANCH   8  15
ATOM     14  C   UNL     1       7.294   4.896  13.445  0.00  0.00    +0.000 C 
ATOM     15  O   UNL     1       7.728   5.227  14.760  0.00  0.00    +0.000 OA
ENDBRANCH   8  15
ENDBRANCH   1  11
BRANCH   5  16
ATOM     16  C   UNL     1       1.130   8.446  21.427  0.00  0.00    +0.000 C 
BRANCH  16  17
ATOM     17  C   UNL     1       0.012   9.491  21.398  0.00  0.00    +0.000 C 
BRANCH  17  18
ATOM     18  N   UNL     1       0.425  10.815  21.886  0.00  0.00    +0.000 NA
ATOM     19  C   UNL     1      -0.691  11.604  22.454  0.00  0.00    +0.000 C 
ATOM     20  C   UNL     1      -1.722  12.050  21.405  0.00  0.00    +0.000 C 
ATOM     21  O   UNL     1      -1.106  12.794  20.345  0.00  0.00    +0.000 OA
ATOM     22  C   UNL     1      -0.044  12.051  19.735  0.00  0.00    +0.000 C 
ATOM     23  C   UNL     1       1.003  11.612  20.777  0.00  0.00    +0.000 C 
ENDBRANCH  17  18
ENDBRANCH  16  17
ENDBRANCH   5  16
TORSDOF 5
ENDMDL
MODEL 7
REMARK VINA RESULT:      -7.2      1.134      1.371
REMARK  Name = 
REMARK  6 active torsions:
REMARK  status: ('A' for Active; 'I' for Inactive)
REMARK    1  A    between atoms: C_1  and  O_2
REMARK    2  A    between atoms: O_2  and  C_3
REMARK    3  A    between atoms: C_6  and  C_7
REMARK    4  A    between atoms: C_11  and  C_12
REMARK    5  A    between atoms: C_12  and  C_13
REMARK    6  A    between atoms: C_13  and  N_14
REMARK                            x       y       z     vdW  Elec       q    Type
REMARK                         _______ _______ _______ _____ _____    ______ ____
ROOT
ATOM      1  C   UNL     1       1.903   8.305  19.674  0.00  0.00    +0.000 C 
ATOM      2  C   UNL     1       2.079   6.981  19.682  0.00  0.00    +0.000 C 
ATOM      3  C   UNL     1       1.581   5.930  20.621  0.00  0.00    +0.000 C 
ATOM      4  C   UNL     1       2.613   4.820  20.483  0.00  0.00    +0.000 C 
ATOM      5  C   UNL     1       3.095   4.856  19.028  0.00  0.00    +0.000 C 
ATOM      6  C   UNL     1       2.955   6.314  18.681  0.00  0.00    +0.000 C 
ATOM      7  O   UNL     1       3.446   6.868  17.713  0.00  0.00    +0.000 OA
ENDROOT
BRANCH   1  11
ATOM      8  C   UNL     1      -0.460  10.308  22.591  0.00  0.00    +0.000 A 
ATOM      9  C   UNL     1      -0.667  10.548  21.232  0.00  0.00    +0.000 A 
ATOM     10  C   UNL     1       0.111   9.893  20.274  0.00  0.00    +0.000 A 
ATOM     11  C   UNL     1       1.112   9.007  20.675  0.00  0.00    +0.000 A 
ATOM     12  C   UNL     1       1.348   8.799  22.038  0.00  0.00    +0.000 A 
ATOM     13  C   UNL     1       0.561   9.446  22.994  0.00  0.00    +0.000 A 
BRANCH   8  15
ATOM     14  C   UNL     1      -2.088  11.999  22.818  0.00  0.00    +0.000 C 
ATOM     15  O   UNL     1      -1.289  10.993  23.435  0.00  0.00    +0.000 OA
ENDBRANCH   8  15
ENDBRANCH   1  11
BRANCH   5  16
ATOM     16  C   UNL     1       4.526   4.363  18.862  0.00  0.00    +0.000 C 
BRANCH  16  17
ATOM     17  C   UNL     1       4.872   4.187  17.382  0.00  0.00    +0.000 C 
BRANCH  17  18
ATOM     18  N   UNL     1       6.286   3.866  17.138  0.00  0.00    +0.000 NA
ATOM     19  C   UNL     1       7.223   4.769  17.843  0.00  0.00    +0.000 C 
ATOM     20  C   UNL     1       7.211   6.207  17.301  0.00  0.00    +0.000 C 
ATOM     21  O   UNL     1       7.487   6.242  15.894  0.00  0.00    +0.000 OA
ATOM     22  C   UNL     1       6.575   5.411  15.164  0.00  0.00    +0.000 C 
ATOM     23  C   UNL     1       6.591   3.964  15.689  0.00  0.00    +0.000 C 
ENDBRANCH  17  18
ENDBRANCH  16  17
ENDBRANCH   5  16
TORSDOF 5
ENDMDL
MODEL 8
REMARK VINA RESULT:      -7.2      1.593      2.547
REMARK  Name = 
REMARK  6 active torsions:
REMARK  status: ('A' for Active; 'I' for Inactive)
REMARK    1  A    between atoms: C_1  and  O_2
REMARK    2  A    between atoms: O_2  and  C_3
REMARK    3  A    between atoms: C_6  and  C_7
REMARK    4  A    between atoms: C_11  and  C_12
REMARK    5  A    between atoms: C_12  and  C_13
REMARK    6  A    between atoms: C_13  and  N_14
REMARK                            x       y       z     vdW  Elec       q    Type
REMARK                         _______ _______ _______ _____ _____    ______ ____
ROOT
ATOM      1  C   UNL     1       0.887   7.739  21.224  0.00  0.00    +0.000 C 
ATOM      2  C   UNL     1       1.762   7.589  20.224  0.00  0.00    +0.000 C 
ATOM      3  C   UNL     1       2.201   8.536  19.155  0.00  0.00    +0.000 C 
ATOM      4  C   UNL     1       2.646   7.611  18.030  0.00  0.00    +0.000 C 
ATOM      5  C   UNL     1       3.230   6.363  18.703  0.00  0.00    +0.000 C 
ATOM      6  C   UNL     1       2.433   6.284  19.978  0.00  0.00    +0.000 C 
ATOM      7  O   UNL     1       2.369   5.321  20.721  0.00  0.00    +0.000 OA
ENDROOT
BRANCH   1  11
ATOM      8  C   UNL     1      -1.192  11.383  21.927  0.00  0.00    +0.000 A 
ATOM      9  C   UNL     1      -0.846  10.553  22.994  0.00  0.00    +0.000 A 
ATOM     10  C   UNL     1      -0.167   9.355  22.763  0.00  0.00    +0.000 A 
ATOM     11  C   UNL     1       0.155   8.975  21.459  0.00  0.00    +0.000 A 
ATOM     12  C   UNL     1      -0.230   9.786  20.386  0.00  0.00    +0.000 A 
ATOM     13  C   UNL     1      -0.899  10.989  20.620  0.00  0.00    +0.000 A 
BRANCH   8  15
ATOM     14  C   UNL     1      -1.037  13.515  22.924  0.00  0.00    +0.000 C 
ATOM     15  O   UNL     1      -1.842  12.535  22.274  0.00  0.00    +0.000 OA
ENDBRANCH   8  15
ENDBRANCH   1  11
BRANCH   5  16
ATOM     16  C   UNL     1       3.080   5.106  17.857  0.00  0.00    +0.000 C 
BRANCH  16  17
ATOM     17  C   UNL     1       4.117   5.081  16.731  0.00  0.00    +0.000 C 
BRANCH  17  18
ATOM     18  N   UNL     1       5.305   4.272  17.036  0.00  0.00    +0.000 NA
ATOM     19  C   UNL     1       6.350   5.019  17.771  0.00  0.00    +0.000 C 
ATOM     20  C   UNL     1       7.022   6.117  16.932  0.00  0.00    +0.000 C 
ATOM     21  O   UNL     1       7.580   5.587  15.721  0.00  0.00    +0.000 OA
ATOM     22  C   UNL     1       6.592   4.888  14.954  0.00  0.00    +0.000 C 
ATOM     23  C   UNL     1       5.923   3.775  15.783  0.00  0.00    +0.000 C 
ENDBRANCH  17  18
ENDBRANCH  16  17
ENDBRANCH   5  16
TORSDOF 5
ENDMDL
MODEL 9
REMARK VINA RESULT:      -7.1      2.660      8.299
REMARK  Name = 
REMARK  6 active torsions:
REMARK  status: ('A' for Active; 'I' for Inactive)
REMARK    1  A    between atoms: C_1  and  O_2
REMARK    2  A    between atoms: O_2  and  C_3
REMARK    3  A    between atoms: C_6  and  C_7
REMARK    4  A    between atoms: C_11  and  C_12
REMARK    5  A    between atoms: C_12  and  C_13
REMARK    6  A    between atoms: C_13  and  N_14
REMARK                            x       y       z     vdW  Elec       q    Type
REMARK                         _______ _______ _______ _____ _____    ______ ____
ROOT
ATOM      1  C   UNL     1       3.971   5.396  18.913  0.00  0.00    +0.000 C 
ATOM      2  C   UNL     1       3.031   6.342  19.004  0.00  0.00    +0.000 C 
ATOM      3  C   UNL     1       2.735   7.518  18.131  0.00  0.00    +0.000 C 
ATOM      4  C   UNL     1       2.050   8.493  19.078  0.00  0.00    +0.000 C 
ATOM      5  C   UNL     1       1.263   7.641  20.081  0.00  0.00    +0.000 C 
ATOM      6  C   UNL     1       2.097   6.390  20.161  0.00  0.00    +0.000 C 
ATOM      7  O   UNL     1       2.004   5.523  21.013  0.00  0.00    +0.000 OA
ENDROOT
BRANCH   1  11
ATOM      8  C   UNL     1       6.799   5.317  15.735  0.00  0.00    +0.000 A 
ATOM      9  C   UNL     1       5.597   4.617  15.625  0.00  0.00    +0.000 A 
ATOM     10  C   UNL     1       4.670   4.640  16.670  0.00  0.00    +0.000 A 
ATOM     11  C   UNL     1       4.951   5.352  17.837  0.00  0.00    +0.000 A 
ATOM     12  C   UNL     1       6.174   6.019  17.965  0.00  0.00    +0.000 A 
ATOM     13  C   UNL     1       7.095   6.004  16.914  0.00  0.00    +0.000 A 
BRANCH   8  15
ATOM     14  C   UNL     1       7.046   4.624  13.495  0.00  0.00    +0.000 C 
ATOM     15  O   UNL     1       7.621   5.234  14.646  0.00  0.00    +0.000 OA
ENDBRANCH   8  15
ENDBRANCH   1  11
BRANCH   5  16
ATOM     16  C   UNL     1       1.108   8.312  21.439  0.00  0.00    +0.000 C 
BRANCH  16  17
ATOM     17  C   UNL     1       0.917   9.822  21.281  0.00  0.00    +0.000 C 
BRANCH  17  18
ATOM     18  N   UNL     1      -0.487  10.229  21.124  0.00  0.00    +0.000 NA
ATOM     19  C   UNL     1      -0.804  10.730  19.768  0.00  0.00    +0.000 C 
ATOM     20  C   UNL     1      -0.131  12.073  19.439  0.00  0.00    +0.000 C 
ATOM     21  O   UNL     1      -0.463  13.078  20.407  0.00  0.00    +0.000 OA
ATOM     22  C   UNL     1      -0.134  12.652  21.735  0.00  0.00    +0.000 C 
ATOM     23  C   UNL     1      -0.816  11.315  22.080  0.00  0.00    +0.000 C 
ENDBRANCH  17  18
ENDBRANCH  16  17
ENDBRANCH   5  16
TORSDOF 5
ENDMDL
