MODEL 1
REMARK VINA RESULT:      -7.0      0.000      0.000
REMARK  Name = 
REMARK  3 active torsions:
REMARK  status: ('A' for Active; 'I' for Inactive)
REMARK    1  A    between atoms: C_6  and  N_7
REMARK    2  A    between atoms: N_7  and  C_8
REMARK    3  A    between atoms: C_8  and  C_9
REMARK                            x       y       z     vdW  Elec       q    Type
REMARK                         _______ _______ _______ _____ _____    ______ ____
ROOT
ATOM      1  N   UNL     1       4.574   3.170  17.215  0.00  0.00    +0.000 N 
ATOM      2  H   UNL     1       4.731   2.235  16.848  0.00  0.00    +0.000 HD
ENDROOT
BRANCH   1   8
ATOM      3 CL   UNL     1       7.640   7.043  17.870  0.00  0.00    +0.000 Cl
ATOM      4  C   UNL     1       6.985   5.798  16.901  0.00  0.00    +0.000 A 
ATOM      5  N   UNL     1       7.450   5.718  15.648  0.00  0.00    +0.000 NA
ATOM      6  C   UNL     1       6.914   4.732  14.916  0.00  0.00    +0.000 A 
ATOM      7  C   UNL     1       5.948   3.875  15.396  0.00  0.00    +0.000 A 
ATOM      8  C   UNL     1       5.530   4.061  16.704  0.00  0.00    +0.000 A 
ATOM      9  N   UNL     1       6.056   5.022  17.476  0.00  0.00    +0.000 NA
ENDBRANCH   1   8
BRANCH   1  10
ATOM     10  C   UNL     1       3.184   3.577  17.043  0.00  0.00    +0.000 C 
BRANCH  10  11
ATOM     11  C   UNL     1       2.514   3.650  18.400  0.00  0.00    +0.000 A 
ATOM     12  C   UNL     1       2.075   2.483  19.045  0.00  0.00    +0.000 A 
ATOM     13  C   UNL     1       1.461   2.549  20.298  0.00  0.00    +0.000 A 
ATOM     14  C   UNL     1       1.281   3.781  20.923  0.00  0.00    +0.000 A 
ATOM     15  C   UNL     1       1.714   4.948  20.295  0.00  0.00    +0.000 A 
ATOM     16  C   UNL     1       2.327   4.884  19.041  0.00  0.00    +0.000 A 
ENDBRANCH  10  11
ENDBRANCH   1  10
TORSDOF 3
ENDMDL
MODEL 2
REMARK VINA RESULT:      -7.0      1.110      1.632
REMARK  Name = 
REMARK  3 active torsions:
REMARK  status: ('A' for Active; 'I' for Inactive)
REMARK    1  A    between atoms: C_6  and  N_7
REMARK    2  A    between atoms: N_7  and  C_8
REMARK    3  A    between atoms: C_8  and  C_9
REMARK                            x       y       z     vdW  Elec       q    Type
REMARK                         _______ _______ _______ _____ _____    ______ ____
ROOT
ATOM      1  N   UNL     1       5.586   3.719  18.788  0.00  0.00    +0.000 N 
ATOM      2  H   UNL     1       6.270   3.062  19.152  0.00  0.00    +0.000 HD
ENDROOT
BRANCH   1   8
ATOM      3 CL   UNL     1       7.978   8.009  17.954  0.00  0.00    +0.000 Cl
ATOM      4  C   UNL     1       7.318   6.532  17.408  0.00  0.00    +0.000 A 
ATOM      5  N   UNL     1       7.435   6.281  16.098  0.00  0.00    +0.000 NA
ATOM      6  C   UNL     1       6.905   5.115  15.704  0.00  0.00    +0.000 A 
ATOM      7  C   UNL     1       6.272   4.244  16.564  0.00  0.00    +0.000 A 
ATOM      8  C   UNL     1       6.195   4.616  17.897  0.00  0.00    +0.000 A 
ATOM      9  N   UNL     1       6.730   5.763  18.336  0.00  0.00    +0.000 NA
ENDBRANCH   1   8
BRANCH   1  10
ATOM     10  C   UNL     1       4.411   3.023  18.272  0.00  0.00    +0.000 C 
BRANCH  10  11
ATOM     11  C   UNL     1       3.195   3.435  19.074  0.00  0.00    +0.000 A 
ATOM     12  C   UNL     1       3.195   4.632  19.810  0.00  0.00    +0.000 A 
ATOM     13  C   UNL     1       2.072   5.015  20.547  0.00  0.00    +0.000 A 
ATOM     14  C   UNL     1       0.935   4.209  20.557  0.00  0.00    +0.000 A 
ATOM     15  C   UNL     1       0.921   3.019  19.830  0.00  0.00    +0.000 A 
ATOM     16  C   UNL     1       2.043   2.634  19.093  0.00  0.00    +0.000 A 
ENDBRANCH  10  11
ENDBRANCH   1  10
TORSDOF 3
ENDMDL
MODEL 3
REMARK VINA RESULT:      -6.9      0.985      1.246
REMARK  Name = 
REMARK  3 active torsions:
REMARK  status: ('A' for Active; 'I' for Inactive)
REMARK    1  A    between atoms: C_6  and  N_7
REMARK    2  A    between atoms: N_7  and  C_8
REMARK    3  A    between atoms: C_8  and  C_9
REMARK                            x       y       z     vdW  Elec       q    Type
REMARK                         _______ _______ _______ _____ _____    ______ ____
ROOT
ATOM      1  N   UNL     1       3.827   4.137  17.020  0.00  0.00    +0.000 N 
ATOM      2  H   UNL     1       3.305   4.837  17.540  0.00  0.00    +0.000 HD
ENDROOT
BRANCH   1   8
ATOM      3 CL   UNL     1       7.634   7.287  17.661  0.00  0.00    +0.000 Cl
ATOM      4  C   UNL     1       6.851   6.041  16.795  0.00  0.00    +0.000 A 
ATOM      5  N   UNL     1       7.480   5.598  15.699  0.00  0.00    +0.000 NA
ATOM      6  C   UNL     1       6.837   4.623  15.043  0.00  0.00    +0.000 A 
ATOM      7  C   UNL     1       5.617   4.121  15.442  0.00  0.00    +0.000 A 
ATOM      8  C   UNL     1       5.052   4.667  16.583  0.00  0.00    +0.000 A 
ATOM      9  N   UNL     1       5.671   5.629  17.280  0.00  0.00    +0.000 NA
ENDBRANCH   1   8
BRANCH   1  10
ATOM     10  C   UNL     1       3.917   2.886  17.765  0.00  0.00    +0.000 C 
BRANCH  10  11
ATOM     11  C   UNL     1       3.005   2.958  18.972  0.00  0.00    +0.000 A 
ATOM     12  C   UNL     1       1.659   3.333  18.830  0.00  0.00    +0.000 A 
ATOM     13  C   UNL     1       0.815   3.397  19.941  0.00  0.00    +0.000 A 
ATOM     14  C   UNL     1       1.305   3.084  21.208  0.00  0.00    +0.000 A 
ATOM     15  C   UNL     1       2.638   2.709  21.364  0.00  0.00    +0.000 A 
ATOM     16  C   UNL     1       3.484   2.646  20.253  0.00  0.00    +0.000 A 
ENDBRANCH  10  11
ENDBRANCH   1  10
TORSDOF 3
ENDMDL
MODEL 4
REMARK VINA RESULT:      -6.9      0.887      1.004
REMARK  Name = 
REMARK  3 active torsions:
REMARK  status: ('A' for Active; 'I' for Inactive)
REMARK    1  A    between atoms: C_6  and  N_7
REMARK    2  A    between atoms: N_7  and  C_8
REMARK    3  A    between atoms: C_8  and  C_9
REMARK                            x       y       z     vdW  Elec       q    Type
REMARK                         _______ _______ _______ _____ _____    ______ ____
ROOT
ATOM      1  N   UNL     1       4.848   3.305  17.508  0.00  0.00    +0.000 N 
ATOM      2  H   UNL     1       3.943   3.292  17.047  0.00  0.00    +0.000 HD
ENDROOT
BRANCH   1   8
ATOM      3 CL   UNL     1       7.689   7.397  17.600  0.00  0.00    +0.000 Cl
ATOM      4  C   UNL     1       7.063   6.026  16.797  0.00  0.00    +0.000 A 
ATOM      5  N   UNL     1       7.462   5.850  15.530  0.00  0.00    +0.000 NA
ATOM      6  C   UNL     1       6.951   4.767  14.930  0.00  0.00    +0.000 A 
ATOM      7  C   UNL     1       6.071   3.906  15.549  0.00  0.00    +0.000 A 
ATOM      8  C   UNL     1       5.715   4.196  16.856  0.00  0.00    +0.000 A 
ATOM      9  N   UNL     1       6.219   5.258  17.499  0.00  0.00    +0.000 NA
ENDBRANCH   1   8
BRANCH   1  10
ATOM     10  C   UNL     1       4.704   3.511  18.945  0.00  0.00    +0.000 C 
BRANCH  10  11
ATOM     11  C   UNL     1       3.238   3.430  19.316  0.00  0.00    +0.000 A 
ATOM     12  C   UNL     1       2.376   2.553  18.638  0.00  0.00    +0.000 A 
ATOM     13  C   UNL     1       1.024   2.475  18.982  0.00  0.00    +0.000 A 
ATOM     14  C   UNL     1       0.518   3.270  20.008  0.00  0.00    +0.000 A 
ATOM     15  C   UNL     1       1.362   4.144  20.691  0.00  0.00    +0.000 A 
ATOM     16  C   UNL     1       2.714   4.224  20.348  0.00  0.00    +0.000 A 
ENDBRANCH  10  11
ENDBRANCH   1  10
TORSDOF 3
ENDMDL
MODEL 5
REMARK VINA RESULT:      -6.8      1.733      2.290
REMARK  Name = 
REMARK  3 active torsions:
REMARK  status: ('A' for Active; 'I' for Inactive)
REMARK    1  A    between atoms: C_6  and  N_7
REMARK    2  A    between atoms: N_7  and  C_8
REMARK    3  A    between atoms: C_8  and  C_9
REMARK                            x       y       z     vdW  Elec       q    Type
REMARK                         _______ _______ _______ _____ _____    ______ ____
ROOT
ATOM      1  N   UNL     1       5.590   3.729  18.908  0.00  0.00    +0.000 N 
ATOM      2  H   UNL     1       6.253   3.057  19.285  0.00  0.00    +0.000 HD
ENDROOT
BRANCH   1   8
ATOM      3 CL   UNL     1       7.098   4.926  14.312  0.00  0.00    +0.000 Cl
ATOM      4  C   UNL     1       6.944   5.276  15.976  0.00  0.00    +0.000 A 
ATOM      5  N   UNL     1       7.457   6.443  16.385  0.00  0.00    +0.000 NA
ATOM      6  C   UNL     1       7.321   6.684  17.696  0.00  0.00    +0.000 A 
ATOM      7  C   UNL     1       6.719   5.803  18.567  0.00  0.00    +0.000 A 
ATOM      8  C   UNL     1       6.238   4.617  18.035  0.00  0.00    +0.000 A 
ATOM      9  N   UNL     1       6.336   4.346  16.727  0.00  0.00    +0.000 NA
ENDBRANCH   1   8
BRANCH   1  10
ATOM     10  C   UNL     1       4.416   3.058  18.359  0.00  0.00    +0.000 C 
BRANCH  10  11
ATOM     11  C   UNL     1       3.275   3.160  19.350  0.00  0.00    +0.000 A 
ATOM     12  C   UNL     1       2.070   3.785  18.992  0.00  0.00    +0.000 A 
ATOM     13  C   UNL     1       1.016   3.876  19.904  0.00  0.00    +0.000 A 
ATOM     14  C   UNL     1       1.151   3.342  21.183  0.00  0.00    +0.000 A 
ATOM     15  C   UNL     1       2.341   2.716  21.552  0.00  0.00    +0.000 A 
ATOM     16  C   UNL     1       3.397   2.625  20.642  0.00  0.00    +0.000 A 
ENDBRANCH  10  11
ENDBRANCH   1  10
TORSDOF 3
ENDMDL
MODEL 6
REMARK VINA RESULT:      -6.8      1.607      1.997
REMARK  Name = 
REMARK  3 active torsions:
REMARK  status: ('A' for Active; 'I' for Inactive)
REMARK    1  A    between atoms: C_6  and  N_7
REMARK    2  A    between atoms: N_7  and  C_8
REMARK    3  A    between atoms: C_8  and  C_9
REMARK                            x       y       z     vdW  Elec       q    Type
REMARK                         _______ _______ _______ _____ _____    ______ ____
ROOT
ATOM      1  N   UNL     1       5.559   3.593  18.865  0.00  0.00    +0.000 N 
ATOM      2  H   UNL     1       6.211   2.888  19.198  0.00  0.00    +0.000 HD
ENDROOT
BRANCH   1   8
ATOM      3 CL   UNL     1       7.050   4.940  14.306  0.00  0.00    +0.000 Cl
ATOM      4  C   UNL     1       6.914   5.229  15.983  0.00  0.00    +0.000 A 
ATOM      5  N   UNL     1       7.450   6.372  16.431  0.00  0.00    +0.000 NA
ATOM      6  C   UNL     1       7.327   6.565  17.751  0.00  0.00    +0.000 A 
ATOM      7  C   UNL     1       6.718   5.661  18.594  0.00  0.00    +0.000 A 
ATOM      8  C   UNL     1       6.215   4.504  18.022  0.00  0.00    +0.000 A 
ATOM      9  N   UNL     1       6.298   4.281  16.704  0.00  0.00    +0.000 NA
ENDBRANCH   1   8
BRANCH   1  10
ATOM     10  C   UNL     1       4.357   2.979  18.310  0.00  0.00    +0.000 C 
BRANCH  10  11
ATOM     11  C   UNL     1       3.152   3.435  19.106  0.00  0.00    +0.000 A 
ATOM     12  C   UNL     1       1.998   2.637  19.176  0.00  0.00    +0.000 A 
ATOM     13  C   UNL     1       0.887   3.054  19.913  0.00  0.00    +0.000 A 
ATOM     14  C   UNL     1       0.916   4.271  20.591  0.00  0.00    +0.000 A 
ATOM     15  C   UNL     1       2.055   5.072  20.532  0.00  0.00    +0.000 A 
ATOM     16  C   UNL     1       3.167   4.657  19.794  0.00  0.00    +0.000 A 
ENDBRANCH  10  11
ENDBRANCH   1  10
TORSDOF 3
ENDMDL
MODEL 7
REMARK VINA RESULT:      -6.8      1.464      1.556
REMARK  Name = 
REMARK  3 active torsions:
REMARK  status: ('A' for Active; 'I' for Inactive)
REMARK    1  A    between atoms: C_6  and  N_7
REMARK    2  A    between atoms: N_7  and  C_8
REMARK    3  A    between atoms: C_8  and  C_9
REMARK                            x       y       z     vdW  Elec       q    Type
REMARK                         _______ _______ _______ _____ _____    ______ ____
ROOT
ATOM      1  N   UNL     1       5.152   3.337  18.156  0.00  0.00    +0.000 N 
ATOM      2  H   UNL     1       5.855   2.639  17.929  0.00  0.00    +0.000 HD
ENDROOT
BRANCH   1   8
ATOM      3 CL   UNL     1       8.117   7.336  18.354  0.00  0.00    +0.000 Cl
ATOM      4  C   UNL     1       6.848   6.447  17.637  0.00  0.00    +0.000 A 
ATOM      5  N   UNL     1       6.261   7.009  16.573  0.00  0.00    +0.000 NA
ATOM      6  C   UNL     1       5.268   6.286  16.037  0.00  0.00    +0.000 A 
ATOM      7  C   UNL     1       4.863   5.070  16.541  0.00  0.00    +0.000 A 
ATOM      8  C   UNL     1       5.532   4.593  17.656  0.00  0.00    +0.000 A 
ATOM      9  N   UNL     1       6.543   5.274  18.211  0.00  0.00    +0.000 NA
ENDBRANCH   1   8
BRANCH   1  10
ATOM     10  C   UNL     1       3.819   2.886  17.769  0.00  0.00    +0.000 C 
BRANCH  10  11
ATOM     11  C   UNL     1       2.915   2.903  18.984  0.00  0.00    +0.000 A 
ATOM     12  C   UNL     1       3.440   2.694  20.269  0.00  0.00    +0.000 A 
ATOM     13  C   UNL     1       2.608   2.713  21.391  0.00  0.00    +0.000 A 
ATOM     14  C   UNL     1       1.242   2.943  21.242  0.00  0.00    +0.000 A 
ATOM     15  C   UNL     1       0.707   3.154  19.972  0.00  0.00    +0.000 A 
ATOM     16  C   UNL     1       1.537   3.134  18.849  0.00  0.00    +0.000 A 
ENDBRANCH  10  11
ENDBRANCH   1  10
TORSDOF 3
ENDMDL
MODEL 8
REMARK VINA RESULT:      -6.7      1.773      2.452
REMARK  Name = 
REMARK  3 active torsions:
REMARK  status: ('A' for Active; 'I' for Inactive)
REMARK    1  A    between atoms: C_6  and  N_7
REMARK    2  A    between atoms: N_7  and  C_8
REMARK    3  A    between atoms: C_8  and  C_9
REMARK                            x       y       z     vdW  Elec       q    Type
REMARK                         _______ _______ _______ _____ _____    ______ ____
ROOT
ATOM      1  N   UNL     1       4.209   6.063  17.941  0.00  0.00    +0.000 N 
ATOM      2  H   UNL     1       4.176   7.066  17.782  0.00  0.00    +0.000 HD
ENDROOT
BRANCH   1   8
ATOM      3 CL   UNL     1       6.856   4.658  13.961  0.00  0.00    +0.000 Cl
ATOM      4  C   UNL     1       6.688   4.878  15.646  0.00  0.00    +0.000 A 
ATOM      5  N   UNL     1       7.738   4.521  16.396  0.00  0.00    +0.000 NA
ATOM      6  C   UNL     1       7.571   4.704  17.713  0.00  0.00    +0.000 A 
ATOM      7  C   UNL     1       6.410   5.201  18.264  0.00  0.00    +0.000 A 
ATOM      8  C   UNL     1       5.382   5.521  17.393  0.00  0.00    +0.000 A 
ATOM      9  N   UNL     1       5.516   5.373  16.068  0.00  0.00    +0.000 NA
ENDBRANCH   1   8
BRANCH   1  10
ATOM     10  C   UNL     1       3.968   5.744  19.344  0.00  0.00    +0.000 C 
BRANCH  10  11
ATOM     11  C   UNL     1       2.824   4.755  19.441  0.00  0.00    +0.000 A 
ATOM     12  C   UNL     1       2.251   4.443  20.684  0.00  0.00    +0.000 A 
ATOM     13  C   UNL     1       1.195   3.535  20.775  0.00  0.00    +0.000 A 
ATOM     14  C   UNL     1       0.696   2.928  19.624  0.00  0.00    +0.000 A 
ATOM     15  C   UNL     1       1.253   3.229  18.382  0.00  0.00    +0.000 A 
ATOM     16  C   UNL     1       2.311   4.137  18.290  0.00  0.00    +0.000 A 
ENDBRANCH  10  11
ENDBRANCH   1  10
TORSDOF 3
ENDMDL
MODEL 9
REMARK VINA RESULT:      -6.7      1.968      2.265
REMARK  Name = 
REMARK  3 active torsions:
REMARK  status: ('A' for Active; 'I' for Inactive)
REMARK    1  A    between atoms: C_6  and  N_7
REMARK    2  A    between atoms: N_7  and  C_8
REMARK    3  A    between atoms: C_8  and  C_9
REMARK                            x       y       z     vdW  Elec       q    Type
REMARK                         _______ _______ _______ _____ _____    ______ ____
ROOT
ATOM      1  N   UNL     1       4.937   3.235  17.948  0.00  0.00    +0.000 N 
ATOM      2  H   UNL     1       5.723   2.601  18.063  0.00  0.00    +0.000 HD
ENDROOT
BRANCH   1   8
ATOM      3 CL   UNL     1       6.661   4.322  13.402  0.00  0.00    +0.000 Cl
ATOM      4  C   UNL     1       5.947   4.784  14.883  0.00  0.00    +0.000 A 
ATOM      5  N   UNL     1       5.657   6.085  15.018  0.00  0.00    +0.000 NA
ATOM      6  C   UNL     1       5.101   6.412  16.193  0.00  0.00    +0.000 A 
ATOM      7  C   UNL     1       4.858   5.498  17.194  0.00  0.00    +0.000 A 
ATOM      8  C   UNL     1       5.214   4.182  16.949  0.00  0.00    +0.000 A 
ATOM      9  N   UNL     1       5.754   3.808  15.781  0.00  0.00    +0.000 NA
ENDBRANCH   1   8
BRANCH   1  10
ATOM     10  C   UNL     1       3.687   2.500  17.785  0.00  0.00    +0.000 C 
BRANCH  10  11
ATOM     11  C   UNL     1       2.833   2.686  19.022  0.00  0.00    +0.000 A 
ATOM     12  C   UNL     1       3.393   2.556  20.303  0.00  0.00    +0.000 A 
ATOM     13  C   UNL     1       2.608   2.731  21.445  0.00  0.00    +0.000 A 
ATOM     14  C   UNL     1       1.255   3.042  21.321  0.00  0.00    +0.000 A 
ATOM     15  C   UNL     1       0.687   3.176  20.055  0.00  0.00    +0.000 A 
ATOM     16  C   UNL     1       1.470   3.000  18.912  0.00  0.00    +0.000 A 
ENDBRANCH  10  11
ENDBRANCH   1  10
TORSDOF 3
ENDMDL
