MODEL 1
REMARK VINA RESULT:      -8.4      0.000      0.000
REMARK  Name = 
REMARK  5 active torsions:
REMARK  status: ('A' for Active; 'I' for Inactive)
REMARK    1  A    between atoms: C_1  and  C_2
REMARK    2  A    between atoms: C_2  and  N_3
REMARK    3  A    between atoms: C_4  and  C_6
REMARK    4  A    between atoms: C_9  and  N_10
REMARK    5  A    between atoms: N_21  and  C_22
REMARK                            x       y       z     vdW  Elec       q    Type
REMARK                         _______ _______ _______ _____ _____    ______ ____
ROOT
ATOM      1  N   UNL     1       5.700   4.302  18.274  0.00  0.00    +0.000 N 
ATOM      2  C   UNL     1       4.428   4.065  17.766  0.00  0.00    +0.000 C 
ATOM      3  O   UNL     1       3.822   4.857  17.043  0.00  0.00    +0.000 OA
ATOM      4  N   UNL     1       3.897   2.803  18.127  0.00  0.00    +0.000 N 
ATOM      5  C   UNL     1       2.500   2.466  17.588  0.00  0.00    +0.000 C 
ATOM      6  C   UNL     1       1.201   2.267  18.567  0.00  0.00    +0.000 C 
ATOM      7  C   UNL     1       1.018   3.250  19.808  0.00  0.00    +0.000 C 
ATOM      8  C   UNL     1       1.030   2.716  21.310  0.00  0.00    +0.000 C 
ATOM      9  C   UNL     1       2.554   2.607  21.756  0.00  0.00    +0.000 C 
ATOM     10  C   UNL     1       3.114   2.728  20.383  0.00  0.00    +0.000 C 
ATOM     11  C   UNL     1       4.246   2.282  19.482  0.00  0.00    +0.000 C 
ATOM     12  N   UNL     1       2.319   3.850  19.815  0.00  0.00    +0.000 NA
ATOM     13  C   UNL     1       2.388   5.187  20.359  0.00  0.00    +0.000 C 
ATOM     14  H   UNL     1       6.243   3.478  18.475  0.00  0.00    +0.000 HD
ENDROOT
BRANCH   1  18
ATOM     15  C   UNL     1       7.856   7.949  18.224  0.00  0.00    +0.000 A 
ATOM     16  C   UNL     1       6.758   7.775  17.380  0.00  0.00    +0.000 A 
ATOM     17  C   UNL     1       6.029   6.572  17.397  0.00  0.00    +0.000 A 
ATOM     18  C   UNL     1       6.408   5.527  18.236  0.00  0.00    +0.000 A 
ATOM     19  C   UNL     1       7.505   5.703  19.087  0.00  0.00    +0.000 A 
ATOM     20  C   UNL     1       8.237   6.904  19.073  0.00  0.00    +0.000 A 
BRANCH  15  22
ATOM     21  N   UNL     1       9.355   9.574  19.267  0.00  0.00    +0.000 N 
ATOM     22  C   UNL     1       8.563   9.266  18.178  0.00  0.00    +0.000 C 
ATOM     23  O   UNL     1       8.382  10.027  17.243  0.00  0.00    +0.000 OA
ATOM     24  H   UNL     1       9.404   8.948  20.058  0.00  0.00    +0.000 HD
BRANCH  21  26
ATOM     25  C   UNL     1       9.725  11.525  20.707  0.00  0.00    +0.000 C 
ATOM     26  C   UNL     1      10.021  10.859  19.377  0.00  0.00    +0.000 C 
ENDBRANCH  21  26
ENDBRANCH  15  22
ENDBRANCH   1  18
TORSDOF 3
ENDMDL
MODEL 2
REMARK VINA RESULT:      -7.4      5.628      8.137
REMARK  Name = 
REMARK  5 active torsions:
REMARK  status: ('A' for Active; 'I' for Inactive)
REMARK    1  A    between atoms: C_1  and  C_2
REMARK    2  A    between atoms: C_2  and  N_3
REMARK    3  A    between atoms: C_4  and  C_6
REMARK    4  A    between atoms: C_9  and  N_10
REMARK    5  A    between atoms: N_21  and  C_22
REMARK                            x       y       z     vdW  Elec       q    Type
REMARK                         _______ _______ _______ _____ _____    ______ ____
ROOT
ATOM      1  N   UNL     1       1.317   8.921  19.729  0.00  0.00    +0.000 N 
ATOM      2  C   UNL     1       0.459   9.789  19.062  0.00  0.00    +0.000 C 
ATOM      3  O   UNL     1       0.163   9.677  17.873  0.00  0.00    +0.000 OA
ATOM      4  N   UNL     1      -0.078  10.806  19.889  0.00  0.00    +0.000 N 
ATOM      5  C   UNL     1      -1.046  11.793  19.223  0.00  0.00    +0.000 C 
ATOM      6  C   UNL     1      -0.703  13.386  19.053  0.00  0.00    +0.000 C 
ATOM      7  C   UNL     1       0.779  13.813  18.650  0.00  0.00    +0.000 C 
ATOM      8  C   UNL     1       1.688  14.699  19.614  0.00  0.00    +0.000 C 
ATOM      9  C   UNL     1       2.370  13.709  20.656  0.00  0.00    +0.000 C 
ATOM     10  C   UNL     1       1.482  12.553  20.357  0.00  0.00    +0.000 C 
ATOM     11  C   UNL     1       0.807  11.343  20.965  0.00  0.00    +0.000 C 
ATOM     12  N   UNL     1       1.442  12.562  18.870  0.00  0.00    +0.000 NA
ATOM     13  C   UNL     1       2.625  12.333  18.072  0.00  0.00    +0.000 C 
ATOM     14  H   UNL     1       1.164   8.844  20.721  0.00  0.00    +0.000 HD
ENDROOT
BRANCH   1  18
ATOM     15  C   UNL     1       3.761   5.906  18.031  0.00  0.00    +0.000 A 
ATOM     16  C   UNL     1       3.638   7.145  17.398  0.00  0.00    +0.000 A 
ATOM     17  C   UNL     1       2.837   8.156  17.959  0.00  0.00    +0.000 A 
ATOM     18  C   UNL     1       2.135   7.928  19.140  0.00  0.00    +0.000 A 
ATOM     19  C   UNL     1       2.264   6.689  19.779  0.00  0.00    +0.000 A 
ATOM     20  C   UNL     1       3.063   5.675  19.221  0.00  0.00    +0.000 A 
BRANCH  15  22
ATOM     21  N   UNL     1       5.547   5.364  16.452  0.00  0.00    +0.000 N 
ATOM     22  C   UNL     1       4.657   4.891  17.397  0.00  0.00    +0.000 C 
ATOM     23  O   UNL     1       4.542   3.710  17.678  0.00  0.00    +0.000 OA
ATOM     24  H   UNL     1       5.545   6.338  16.190  0.00  0.00    +0.000 HD
BRANCH  21  26
ATOM     25  C   UNL     1       5.887   4.239  14.299  0.00  0.00    +0.000 C 
ATOM     26  C   UNL     1       6.406   4.462  15.706  0.00  0.00    +0.000 C 
ENDBRANCH  21  26
ENDBRANCH  15  22
ENDBRANCH   1  18
TORSDOF 3
ENDMDL
MODEL 3
REMARK VINA RESULT:      -7.4      7.000      9.514
REMARK  Name = 
REMARK  5 active torsions:
REMARK  status: ('A' for Active; 'I' for Inactive)
REMARK    1  A    between atoms: C_1  and  C_2
REMARK    2  A    between atoms: C_2  and  N_3
REMARK    3  A    between atoms: C_4  and  C_6
REMARK    4  A    between atoms: C_9  and  N_10
REMARK    5  A    between atoms: N_21  and  C_22
REMARK                            x       y       z     vdW  Elec       q    Type
REMARK                         _______ _______ _______ _____ _____    ______ ____
ROOT
ATOM      1  N   UNL     1       0.527  11.231  19.441  0.00  0.00    +0.000 N 
ATOM      2  C   UNL     1       0.827  12.180  20.412  0.00  0.00    +0.000 C 
ATOM      3  O   UNL     1       1.790  12.099  21.174  0.00  0.00    +0.000 OA
ATOM      4  N   UNL     1      -0.065  13.281  20.426  0.00  0.00    +0.000 N 
ATOM      5  C   UNL     1       0.213  14.377  21.463  0.00  0.00    +0.000 C 
ATOM      6  C   UNL     1      -0.814  14.706  22.697  0.00  0.00    +0.000 C 
ATOM      7  C   UNL     1      -1.520  13.493  23.450  0.00  0.00    +0.000 C 
ATOM      8  C   UNL     1      -3.104  13.311  23.445  0.00  0.00    +0.000 C 
ATOM      9  C   UNL     1      -3.484  12.555  22.097  0.00  0.00    +0.000 C 
ATOM     10  C   UNL     1      -2.167  12.770  21.437  0.00  0.00    +0.000 C 
ATOM     11  C   UNL     1      -1.495  13.000  20.101  0.00  0.00    +0.000 C 
ATOM     12  N   UNL     1      -1.210  12.442  22.528  0.00  0.00    +0.000 NA
ATOM     13  C   UNL     1      -1.124  11.116  23.096  0.00  0.00    +0.000 C 
ATOM     14  H   UNL     1       0.017  11.577  18.645  0.00  0.00    +0.000 HD
ENDROOT
BRANCH   1  18
ATOM     15  C   UNL     1       2.307   7.418  18.947  0.00  0.00    +0.000 A 
ATOM     16  C   UNL     1       1.720   7.763  20.166  0.00  0.00    +0.000 A 
ATOM     17  C   UNL     1       1.117   9.023  20.337  0.00  0.00    +0.000 A 
ATOM     18  C   UNL     1       1.120   9.953  19.302  0.00  0.00    +0.000 A 
ATOM     19  C   UNL     1       1.702   9.606  18.077  0.00  0.00    +0.000 A 
ATOM     20  C   UNL     1       2.306   8.348  17.902  0.00  0.00    +0.000 A 
BRANCH  15  22
ATOM     21  N   UNL     1       2.354   5.233  17.853  0.00  0.00    +0.000 N 
ATOM     22  C   UNL     1       2.898   6.050  18.825  0.00  0.00    +0.000 C 
ATOM     23  O   UNL     1       3.770   5.688  19.596  0.00  0.00    +0.000 OA
ATOM     24  H   UNL     1       1.574   5.548  17.297  0.00  0.00    +0.000 HD
BRANCH  21  26
ATOM     25  C   UNL     1       1.759   2.887  18.254  0.00  0.00    +0.000 C 
ATOM     26  C   UNL     1       2.786   3.855  17.698  0.00  0.00    +0.000 C 
ENDBRANCH  21  26
ENDBRANCH  15  22
ENDBRANCH   1  18
TORSDOF 3
ENDMDL
MODEL 4
REMARK VINA RESULT:      -7.3      6.986      9.393
REMARK  Name = 
REMARK  5 active torsions:
REMARK  status: ('A' for Active; 'I' for Inactive)
REMARK    1  A    between atoms: C_1  and  C_2
REMARK    2  A    between atoms: C_2  and  N_3
REMARK    3  A    between atoms: C_4  and  C_6
REMARK    4  A    between atoms: C_9  and  N_10
REMARK    5  A    between atoms: N_21  and  C_22
REMARK                            x       y       z     vdW  Elec       q    Type
REMARK                         _______ _______ _______ _____ _____    ______ ____
ROOT
ATOM      1  N   UNL     1       0.480  11.192  19.386  0.00  0.00    +0.000 N 
ATOM      2  C   UNL     1       0.781  12.175  20.323  0.00  0.00    +0.000 C 
ATOM      3  O   UNL     1       1.768  12.141  21.057  0.00  0.00    +0.000 OA
ATOM      4  N   UNL     1      -0.141  13.250  20.335  0.00  0.00    +0.000 N 
ATOM      5  C   UNL     1       0.136  14.382  21.335  0.00  0.00    +0.000 C 
ATOM      6  C   UNL     1      -0.864  14.714  22.590  0.00  0.00    +0.000 C 
ATOM      7  C   UNL     1      -1.513  13.502  23.395  0.00  0.00    +0.000 C 
ATOM      8  C   UNL     1      -3.090  13.276  23.442  0.00  0.00    +0.000 C 
ATOM      9  C   UNL     1      -3.487  12.475  22.126  0.00  0.00    +0.000 C 
ATOM     10  C   UNL     1      -2.198  12.709  21.422  0.00  0.00    +0.000 C 
ATOM     11  C   UNL     1      -1.571  12.922  20.060  0.00  0.00    +0.000 C 
ATOM     12  N   UNL     1      -1.200  12.436  22.491  0.00  0.00    +0.000 NA
ATOM     13  C   UNL     1      -1.060  11.129  23.091  0.00  0.00    +0.000 C 
ATOM     14  H   UNL     1      -0.063  11.502  18.597  0.00  0.00    +0.000 HD
ENDROOT
BRANCH   1  18
ATOM     15  C   UNL     1       2.341   7.397  19.095  0.00  0.00    +0.000 A 
ATOM     16  C   UNL     1       2.370   8.275  18.010  0.00  0.00    +0.000 A 
ATOM     17  C   UNL     1       1.764   9.542  18.100  0.00  0.00    +0.000 A 
ATOM     18  C   UNL     1       1.104   9.928  19.263  0.00  0.00    +0.000 A 
ATOM     19  C   UNL     1       1.081   9.051  20.354  0.00  0.00    +0.000 A 
ATOM     20  C   UNL     1       1.684   7.784  20.268  0.00  0.00    +0.000 A 
BRANCH  15  22
ATOM     21  N   UNL     1       3.043   5.539  17.671  0.00  0.00    +0.000 N 
ATOM     22  C   UNL     1       3.035   6.082  18.941  0.00  0.00    +0.000 C 
ATOM     23  O   UNL     1       3.508   5.520  19.914  0.00  0.00    +0.000 OA
ATOM     24  H   UNL     1       2.562   6.001  16.913  0.00  0.00    +0.000 HD
BRANCH  21  26
ATOM     25  C   UNL     1       2.539   3.154  17.399  0.00  0.00    +0.000 C 
ATOM     26  C   UNL     1       3.610   4.227  17.414  0.00  0.00    +0.000 C 
ENDBRANCH  21  26
ENDBRANCH  15  22
ENDBRANCH   1  18
TORSDOF 3
ENDMDL
MODEL 5
REMARK VINA RESULT:      -7.3      6.970      9.567
REMARK  Name = 
REMARK  5 active torsions:
REMARK  status: ('A' for Active; 'I' for Inactive)
REMARK    1  A    between atoms: C_1  and  C_2
REMARK    2  A    between atoms: C_2  and  N_3
REMARK    3  A    between atoms: C_4  and  C_6
REMARK    4  A    between atoms: C_9  and  N_10
REMARK    5  A    between atoms: N_21  and  C_22
REMARK                            x       y       z     vdW  Elec       q    Type
REMARK                         _______ _______ _______ _____ _____    ______ ____
ROOT
ATOM      1  N   UNL     1       0.404  10.973  19.526  0.00  0.00    +0.000 N 
ATOM      2  C   UNL     1       0.675  12.047  20.366  0.00  0.00    +0.000 C 
ATOM      3  O   UNL     1       1.622  12.079  21.152  0.00  0.00    +0.000 OA
ATOM      4  N   UNL     1      -0.224  13.131  20.211  0.00  0.00    +0.000 N 
ATOM      5  C   UNL     1       0.023  14.360  21.097  0.00  0.00    +0.000 C 
ATOM      6  C   UNL     1      -1.034  14.842  22.253  0.00  0.00    +0.000 C 
ATOM      7  C   UNL     1      -1.749  13.734  23.148  0.00  0.00    +0.000 C 
ATOM      8  C   UNL     1      -3.331  13.537  23.134  0.00  0.00    +0.000 C 
ATOM      9  C   UNL     1      -3.675  12.603  21.892  0.00  0.00    +0.000 C 
ATOM     10  C   UNL     1      -2.346  12.740  21.238  0.00  0.00    +0.000 C 
ATOM     11  C   UNL     1      -1.644  12.795  19.897  0.00  0.00    +0.000 C 
ATOM     12  N   UNL     1      -1.411  12.572  22.383  0.00  0.00    +0.000 NA
ATOM     13  C   UNL     1      -1.328  11.336  23.127  0.00  0.00    +0.000 C 
ATOM     14  H   UNL     1      -0.090  11.203  18.680  0.00  0.00    +0.000 HD
ENDROOT
BRANCH   1  18
ATOM     15  C   UNL     1       2.225   7.148  19.590  0.00  0.00    +0.000 A 
ATOM     16  C   UNL     1       1.557   7.623  20.720  0.00  0.00    +0.000 A 
ATOM     17  C   UNL     1       0.940   8.888  20.706  0.00  0.00    +0.000 A 
ATOM     18  C   UNL     1       1.008   9.694  19.574  0.00  0.00    +0.000 A 
ATOM     19  C   UNL     1       1.672   9.216  18.437  0.00  0.00    +0.000 A 
ATOM     20  C   UNL     1       2.291   7.952  18.448  0.00  0.00    +0.000 A 
BRANCH  15  22
ATOM     21  N   UNL     1       1.953   4.740  19.908  0.00  0.00    +0.000 N 
ATOM     22  C   UNL     1       2.827   5.781  19.665  0.00  0.00    +0.000 C 
ATOM     23  O   UNL     1       4.033   5.637  19.570  0.00  0.00    +0.000 OA
ATOM     24  H   UNL     1       0.973   4.920  20.066  0.00  0.00    +0.000 HD
BRANCH  21  26
ATOM     25  C   UNL     1       2.251   2.915  21.520  0.00  0.00    +0.000 C 
ATOM     26  C   UNL     1       2.430   3.380  20.088  0.00  0.00    +0.000 C 
ENDBRANCH  21  26
ENDBRANCH  15  22
ENDBRANCH   1  18
TORSDOF 3
ENDMDL
MODEL 6
REMARK VINA RESULT:      -7.3      6.837      9.349
REMARK  Name = 
REMARK  5 active torsions:
REMARK  status: ('A' for Active; 'I' for Inactive)
REMARK    1  A    between atoms: C_1  and  C_2
REMARK    2  A    between atoms: C_2  and  N_3
REMARK    3  A    between atoms: C_4  and  C_6
REMARK    4  A    between atoms: C_9  and  N_10
REMARK    5  A    between atoms: N_21  and  C_22
REMARK                            x       y       z     vdW  Elec       q    Type
REMARK                         _______ _______ _______ _____ _____    ______ ____
ROOT
ATOM      1  N   UNL     1       0.586  10.614  18.379  0.00  0.00    +0.000 N 
ATOM      2  C   UNL     1       0.917  11.881  18.847  0.00  0.00    +0.000 C 
ATOM      3  O   UNL     1       1.942  12.128  19.483  0.00  0.00    +0.000 OA
ATOM      4  N   UNL     1      -0.021  12.881  18.495  0.00  0.00    +0.000 N 
ATOM      5  C   UNL     1       0.288  14.309  18.966  0.00  0.00    +0.000 C 
ATOM      6  C   UNL     1      -0.652  15.104  20.048  0.00  0.00    +0.000 C 
ATOM      7  C   UNL     1      -1.237  14.298  21.292  0.00  0.00    +0.000 C 
ATOM      8  C   UNL     1      -2.806  14.114  21.508  0.00  0.00    +0.000 C 
ATOM      9  C   UNL     1      -3.257  12.869  20.625  0.00  0.00    +0.000 C 
ATOM     10  C   UNL     1      -2.009  12.808  19.817  0.00  0.00    +0.000 C 
ATOM     11  C   UNL     1      -1.458  12.478  18.446  0.00  0.00    +0.000 C 
ATOM     12  N   UNL     1      -0.953  12.965  20.852  0.00  0.00    +0.000 NA
ATOM     13  C   UNL     1      -0.759  11.989  21.900  0.00  0.00    +0.000 C 
ATOM     14  H   UNL     1      -0.002  10.599  17.562  0.00  0.00    +0.000 HD
ENDROOT
BRANCH   1  18
ATOM     15  C   UNL     1       2.513   6.960  19.316  0.00  0.00    +0.000 A 
ATOM     16  C   UNL     1       1.781   7.635  20.295  0.00  0.00    +0.000 A 
ATOM     17  C   UNL     1       1.129   8.844  19.991  0.00  0.00    +0.000 A 
ATOM     18  C   UNL     1       1.225   9.398  18.718  0.00  0.00    +0.000 A 
ATOM     19  C   UNL     1       1.953   8.718  17.734  0.00  0.00    +0.000 A 
ATOM     20  C   UNL     1       2.608   7.510  18.033  0.00  0.00    +0.000 A 
BRANCH  15  22
ATOM     21  N   UNL     1       2.315   4.705  20.237  0.00  0.00    +0.000 N 
ATOM     22  C   UNL     1       3.151   5.663  19.700  0.00  0.00    +0.000 C 
ATOM     23  O   UNL     1       4.356   5.515  19.585  0.00  0.00    +0.000 OA
ATOM     24  H   UNL     1       1.338   4.906  20.393  0.00  0.00    +0.000 HD
BRANCH  21  26
ATOM     25  C   UNL     1       1.829   2.740  21.622  0.00  0.00    +0.000 C 
ATOM     26  C   UNL     1       2.832   3.440  20.727  0.00  0.00    +0.000 C 
ENDBRANCH  21  26
ENDBRANCH  15  22
ENDBRANCH   1  18
TORSDOF 3
ENDMDL
MODEL 7
REMARK VINA RESULT:      -7.2      6.793      9.245
REMARK  Name = 
REMARK  5 active torsions:
REMARK  status: ('A' for Active; 'I' for Inactive)
REMARK    1  A    between atoms: C_1  and  C_2
REMARK    2  A    between atoms: C_2  and  N_3
REMARK    3  A    between atoms: C_4  and  C_6
REMARK    4  A    between atoms: C_9  and  N_10
REMARK    5  A    between atoms: N_21  and  C_22
REMARK                            x       y       z     vdW  Elec       q    Type
REMARK                         _______ _______ _______ _____ _____    ______ ____
ROOT
ATOM      1  N   UNL     1       0.741  10.643  18.279  0.00  0.00    +0.000 N 
ATOM      2  C   UNL     1       1.006  11.869  18.880  0.00  0.00    +0.000 C 
ATOM      3  O   UNL     1       1.949  12.065  19.648  0.00  0.00    +0.000 OA
ATOM      4  N   UNL     1       0.107  12.895  18.501  0.00  0.00    +0.000 N 
ATOM      5  C   UNL     1       0.348  14.281  19.115  0.00  0.00    +0.000 C 
ATOM      6  C   UNL     1      -0.716  14.989  20.140  0.00  0.00    +0.000 C 
ATOM      7  C   UNL     1      -1.435  14.089  21.241  0.00  0.00    +0.000 C 
ATOM      8  C   UNL     1      -3.016  13.890  21.260  0.00  0.00    +0.000 C 
ATOM      9  C   UNL     1      -3.352  12.719  20.237  0.00  0.00    +0.000 C 
ATOM     10  C   UNL     1      -2.020  12.720  19.575  0.00  0.00    +0.000 C 
ATOM     11  C   UNL     1      -1.311  12.498  18.255  0.00  0.00    +0.000 C 
ATOM     12  N   UNL     1      -1.091  12.794  20.734  0.00  0.00    +0.000 NA
ATOM     13  C   UNL     1      -1.012  11.739  21.718  0.00  0.00    +0.000 C 
ATOM     14  H   UNL     1       0.251  10.693  17.401  0.00  0.00    +0.000 HD
ENDROOT
BRANCH   1  18
ATOM     15  C   UNL     1       2.537   6.944  19.296  0.00  0.00    +0.000 A 
ATOM     16  C   UNL     1       2.695   7.468  18.012  0.00  0.00    +0.000 A 
ATOM     17  C   UNL     1       2.112   8.701  17.667  0.00  0.00    +0.000 A 
ATOM     18  C   UNL     1       1.347   9.404  18.593  0.00  0.00    +0.000 A 
ATOM     19  C   UNL     1       1.193   8.882  19.884  0.00  0.00    +0.000 A 
ATOM     20  C   UNL     1       1.775   7.650  20.232  0.00  0.00    +0.000 A 
BRANCH  15  22
ATOM     21  N   UNL     1       2.389   4.583  19.909  0.00  0.00    +0.000 N 
ATOM     22  C   UNL     1       3.215   5.647  19.603  0.00  0.00    +0.000 C 
ATOM     23  O   UNL     1       4.432   5.582  19.630  0.00  0.00    +0.000 OA
ATOM     24  H   UNL     1       1.389   4.708  19.959  0.00  0.00    +0.000 HD
BRANCH  21  26
ATOM     25  C   UNL     1       2.327   2.821  21.615  0.00  0.00    +0.000 C 
ATOM     26  C   UNL     1       2.932   3.297  20.308  0.00  0.00    +0.000 C 
ENDBRANCH  21  26
ENDBRANCH  15  22
ENDBRANCH   1  18
TORSDOF 3
ENDMDL
MODEL 8
REMARK VINA RESULT:      -7.2      6.996      9.278
REMARK  Name = 
REMARK  5 active torsions:
REMARK  status: ('A' for Active; 'I' for Inactive)
REMARK    1  A    between atoms: C_1  and  C_2
REMARK    2  A    between atoms: C_2  and  N_3
REMARK    3  A    between atoms: C_4  and  C_6
REMARK    4  A    between atoms: C_9  and  N_10
REMARK    5  A    between atoms: N_21  and  C_22
REMARK                            x       y       z     vdW  Elec       q    Type
REMARK                         _______ _______ _______ _____ _____    ______ ____
ROOT
ATOM      1  N   UNL     1       0.520  11.264  19.413  0.00  0.00    +0.000 N 
ATOM      2  C   UNL     1       0.820  12.201  20.396  0.00  0.00    +0.000 C 
ATOM      3  O   UNL     1       1.792  12.116  21.147  0.00  0.00    +0.000 OA
ATOM      4  N   UNL     1      -0.081  13.293  20.434  0.00  0.00    +0.000 N 
ATOM      5  C   UNL     1       0.198  14.376  21.486  0.00  0.00    +0.000 C 
ATOM      6  C   UNL     1      -0.820  14.677  22.734  0.00  0.00    +0.000 C 
ATOM      7  C   UNL     1      -1.509  13.446  23.476  0.00  0.00    +0.000 C 
ATOM      8  C   UNL     1      -3.091  13.250  23.483  0.00  0.00    +0.000 C 
ATOM      9  C   UNL     1      -3.477  12.512  22.127  0.00  0.00    +0.000 C 
ATOM     10  C   UNL     1      -2.169  12.748  21.458  0.00  0.00    +0.000 C 
ATOM     11  C   UNL     1      -1.511  13.005  20.119  0.00  0.00    +0.000 C 
ATOM     12  N   UNL     1      -1.199  12.412  22.534  0.00  0.00    +0.000 NA
ATOM     13  C   UNL     1      -1.095  11.079  23.081  0.00  0.00    +0.000 C 
ATOM     14  H   UNL     1      -0.001  11.617  18.627  0.00  0.00    +0.000 HD
ENDROOT
BRANCH   1  18
ATOM     15  C   UNL     1       2.327   7.475  18.844  0.00  0.00    +0.000 A 
ATOM     16  C   UNL     1       1.757   7.799  20.076  0.00  0.00    +0.000 A 
ATOM     17  C   UNL     1       1.145   9.050  20.272  0.00  0.00    +0.000 A 
ATOM     18  C   UNL     1       1.122   9.994  19.249  0.00  0.00    +0.000 A 
ATOM     19  C   UNL     1       1.688   9.667  18.011  0.00  0.00    +0.000 A 
ATOM     20  C   UNL     1       2.301   8.417  17.811  0.00  0.00    +0.000 A 
BRANCH  15  22
ATOM     21  N   UNL     1       4.234   6.067  18.248  0.00  0.00    +0.000 N 
ATOM     22  C   UNL     1       2.929   6.114  18.696  0.00  0.00    +0.000 C 
ATOM     23  O   UNL     1       2.257   5.119  18.912  0.00  0.00    +0.000 OA
ATOM     24  H   UNL     1       4.721   6.915  17.999  0.00  0.00    +0.000 HD
BRANCH  21  26
ATOM     25  C   UNL     1       4.762   4.402  16.526  0.00  0.00    +0.000 C 
ATOM     26  C   UNL     1       4.897   4.803  17.982  0.00  0.00    +0.000 C 
ENDBRANCH  21  26
ENDBRANCH  15  22
ENDBRANCH   1  18
TORSDOF 3
ENDMDL
MODEL 9
REMARK VINA RESULT:      -7.1      2.596      4.375
REMARK  Name = 
REMARK  5 active torsions:
REMARK  status: ('A' for Active; 'I' for Inactive)
REMARK    1  A    between atoms: C_1  and  C_2
REMARK    2  A    between atoms: C_2  and  N_3
REMARK    3  A    between atoms: C_4  and  C_6
REMARK    4  A    between atoms: C_9  and  N_10
REMARK    5  A    between atoms: N_21  and  C_22
REMARK                            x       y       z     vdW  Elec       q    Type
REMARK                         _______ _______ _______ _____ _____    ______ ____
ROOT
ATOM      1  N   UNL     1       8.171   7.595  18.667  0.00  0.00    +0.000 N 
ATOM      2  C   UNL     1       7.777   6.752  17.633  0.00  0.00    +0.000 C 
ATOM      3  O   UNL     1       7.822   7.062  16.443  0.00  0.00    +0.000 OA
ATOM      4  N   UNL     1       7.348   5.475  18.073  0.00  0.00    +0.000 N 
ATOM      5  C   UNL     1       6.912   4.485  16.984  0.00  0.00    +0.000 C 
ATOM      6  C   UNL     1       5.372   3.943  16.850  0.00  0.00    +0.000 C 
ATOM      7  C   UNL     1       4.175   4.969  17.080  0.00  0.00    +0.000 C 
ATOM      8  C   UNL     1       3.125   4.781  18.264  0.00  0.00    +0.000 C 
ATOM      9  C   UNL     1       3.776   5.413  19.572  0.00  0.00    +0.000 C 
ATOM     10  C   UNL     1       5.154   5.499  19.017  0.00  0.00    +0.000 C 
ATOM     11  C   UNL     1       6.622   5.415  19.376  0.00  0.00    +0.000 C 
ATOM     12  N   UNL     1       4.913   6.052  17.657  0.00  0.00    +0.000 NA
ATOM     13  C   UNL     1       4.352   7.369  17.456  0.00  0.00    +0.000 C 
ATOM     14  H   UNL     1       8.485   7.131  19.503  0.00  0.00    +0.000 HD
ENDROOT
BRANCH   1  18
ATOM     15  C   UNL     1       9.037  11.723  18.277  0.00  0.00    +0.000 A 
ATOM     16  C   UNL     1       9.707  10.956  19.232  0.00  0.00    +0.000 A 
ATOM     17  C   UNL     1       9.434   9.582  19.362  0.00  0.00    +0.000 A 
ATOM     18  C   UNL     1       8.474   8.973  18.559  0.00  0.00    +0.000 A 
ATOM     19  C   UNL     1       7.807   9.740  17.596  0.00  0.00    +0.000 A 
ATOM     20  C   UNL     1       8.076  11.114  17.464  0.00  0.00    +0.000 A 
BRANCH  15  22
ATOM     21  N   UNL     1      10.348  13.493  17.217  0.00  0.00    +0.000 N 
ATOM     22  C   UNL     1       9.403  13.169  18.171  0.00  0.00    +0.000 C 
ATOM     23  O   UNL     1       8.917  13.983  18.938  0.00  0.00    +0.000 OA
ATOM     24  H   UNL     1      10.786  12.772  16.664  0.00  0.00    +0.000 HD
BRANCH  21  26
ATOM     25  C   UNL     1      12.170  15.029  17.795  0.00  0.00    +0.000 C 
ATOM     26  C   UNL     1      10.846  14.850  17.079  0.00  0.00    +0.000 C 
ENDBRANCH  21  26
ENDBRANCH  15  22
ENDBRANCH   1  18
TORSDOF 3
ENDMDL
