MODEL 1
REMARK VINA RESULT:      -7.0      0.000      0.000
REMARK  Name = 
REMARK  4 active torsions:
REMARK  status: ('A' for Active; 'I' for Inactive)
REMARK    1  A    between atoms: C_1  and  C_2
REMARK    2  A    between atoms: C_10  and  C_12
REMARK    3  A    between atoms: C_17  and  N_18
REMARK    4  A    between atoms: C_27  and  C_28
REMARK                            x       y       z     vdW  Elec       q    Type
REMARK                         _______ _______ _______ _____ _____    ______ ____
ROOT
ATOM      1  C   UNL     1       0.849   7.604  20.655  0.00  0.00    +0.000 C 
ATOM      2  C   UNL     1       0.855   9.080  20.398  0.00  0.00    +0.000 A 
ATOM      3  N   UNL     1       0.191   9.828  21.306  0.00  0.00    +0.000 NA
ATOM      4  C   UNL     1       0.146  11.158  21.136  0.00  0.00    +0.000 A 
ATOM      5  N   UNL     1      -0.586  11.892  22.016  0.00  0.00    +0.000 N 
ATOM      6  C   UNL     1      -0.519  13.335  22.102  0.00  0.00    +0.000 C 
ATOM      7  C   UNL     1      -1.600  13.706  23.140  0.00  0.00    +0.000 C 
ATOM      8  C   UNL     1      -2.730  14.546  22.559  0.00  0.00    +0.000 C 
ATOM      9  N   UNL     1      -3.624  13.581  21.960  0.00  0.00    +0.000 N 
ATOM     10  C   UNL     1      -4.482  13.924  20.920  0.00  0.00    +0.000 C 
ATOM     11  O   UNL     1      -4.605  15.092  20.545  0.00  0.00    +0.000 OA
ATOM     12  C   UNL     1      -3.517  12.292  22.623  0.00  0.00    +0.000 C 
ATOM     13  C   UNL     1      -2.274  12.372  23.516  0.00  0.00    +0.000 C 
ATOM     14  C   UNL     1      -1.254  11.301  23.150  0.00  0.00    +0.000 C 
ATOM     15  N   UNL     1       0.745  11.777  20.108  0.00  0.00    +0.000 NA
ATOM     16  C   UNL     1       1.389  11.016  19.187  0.00  0.00    +0.000 A 
ATOM     17  C   UNL     1       1.975  11.764  18.025  0.00  0.00    +0.000 C 
ATOM     18  C   UNL     1       1.481   9.639  19.292  0.00  0.00    +0.000 A 
ATOM     19 CL   UNL     1       2.305   8.678  18.126  0.00  0.00    +0.000 Cl
ENDROOT
BRANCH  10  20
ATOM     20  C   UNL     1      -5.318  12.852  20.260  0.00  0.00    +0.000 A 
ATOM     21  N   UNL     1      -4.798  12.352  19.094  0.00  0.00    +0.000 NA
ATOM     22  C   UNL     1      -5.394  11.277  18.541  0.00  0.00    +0.000 A 
ATOM     23  C   UNL     1      -6.464  10.617  19.113  0.00  0.00    +0.000 A 
ATOM     24  C   UNL     1      -6.972  11.109  20.311  0.00  0.00    +0.000 A 
ATOM     25  C   UNL     1      -6.417  12.268  20.879  0.00  0.00    +0.000 A 
BRANCH  25  26
ATOM     26  N   UNL     1      -7.042  12.829  22.012  0.00  0.00    +0.000 N 
ATOM     27  N   UNL     1      -7.518  14.111  21.991  0.00  0.00    +0.000 NA
ATOM     28  C   UNL     1      -7.917  14.281  23.253  0.00  0.00    +0.000 A 
ATOM     29  C   UNL     1      -7.557  13.169  24.016  0.00  0.00    +0.000 A 
ATOM     30  N   UNL     1      -6.960  12.260  23.244  0.00  0.00    +0.000 NA
ENDBRANCH  25  26
ENDBRANCH  10  20
TORSDOF 2
ENDMDL
MODEL 2
REMARK VINA RESULT:      -7.0      1.333      3.064
REMARK  Name = 
REMARK  4 active torsions:
REMARK  status: ('A' for Active; 'I' for Inactive)
REMARK    1  A    between atoms: C_1  and  C_2
REMARK    2  A    between atoms: C_10  and  C_12
REMARK    3  A    between atoms: C_17  and  N_18
REMARK    4  A    between atoms: C_27  and  C_28
REMARK                            x       y       z     vdW  Elec       q    Type
REMARK                         _______ _______ _______ _____ _____    ______ ____
ROOT
ATOM      1  C   UNL     1       1.032   7.548  21.363  0.00  0.00    +0.000 C 
ATOM      2  C   UNL     1       0.917   8.915  20.760  0.00  0.00    +0.000 A 
ATOM      3  N   UNL     1       0.278   9.831  21.521  0.00  0.00    +0.000 NA
ATOM      4  C   UNL     1       0.129  11.076  21.043  0.00  0.00    +0.000 A 
ATOM      5  N   UNL     1      -0.578  11.967  21.787  0.00  0.00    +0.000 N 
ATOM      6  C   UNL     1      -0.604  13.389  21.518  0.00  0.00    +0.000 C 
ATOM      7  C   UNL     1      -1.621  13.952  22.534  0.00  0.00    +0.000 C 
ATOM      8  C   UNL     1      -2.849  14.570  21.877  0.00  0.00    +0.000 C 
ATOM      9  N   UNL     1      -3.720  13.447  21.613  0.00  0.00    +0.000 N 
ATOM     10  C   UNL     1      -4.679  13.485  20.607  0.00  0.00    +0.000 C 
ATOM     11  O   UNL     1      -4.911  14.519  19.977  0.00  0.00    +0.000 OA
ATOM     12  C   UNL     1      -3.472  12.365  22.552  0.00  0.00    +0.000 C 
ATOM     13  C   UNL     1      -2.170  12.720  23.280  0.00  0.00    +0.000 C 
ATOM     14  C   UNL     1      -1.112  11.640  23.087  0.00  0.00    +0.000 C 
ATOM     15  N   UNL     1       0.601  11.451  19.845  0.00  0.00    +0.000 NA
ATOM     16  C   UNL     1       1.219  10.519  19.077  0.00  0.00    +0.000 A 
ATOM     17  C   UNL     1       1.659  10.987  17.719  0.00  0.00    +0.000 C 
ATOM     18  C   UNL     1       1.413   9.216  19.499  0.00  0.00    +0.000 A 
ATOM     19 CL   UNL     1       2.205   8.038  18.525  0.00  0.00    +0.000 Cl
ENDROOT
BRANCH  10  20
ATOM     20  C   UNL     1      -5.490  12.246  20.304  0.00  0.00    +0.000 A 
ATOM     21  N   UNL     1      -6.557  12.038  21.139  0.00  0.00    +0.000 NA
ATOM     22  C   UNL     1      -7.426  11.055  20.829  0.00  0.00    +0.000 A 
ATOM     23  C   UNL     1      -7.330  10.282  19.688  0.00  0.00    +0.000 A 
ATOM     24  C   UNL     1      -6.261  10.513  18.829  0.00  0.00    +0.000 A 
ATOM     25  C   UNL     1      -5.301  11.485  19.156  0.00  0.00    +0.000 A 
BRANCH  25  26
ATOM     26  N   UNL     1      -4.153  11.599  18.346  0.00  0.00    +0.000 N 
ATOM     27  N   UNL     1      -4.233  11.461  16.988  0.00  0.00    +0.000 NA
ATOM     28  C   UNL     1      -2.951  11.525  16.625  0.00  0.00    +0.000 A 
ATOM     29  C   UNL     1      -2.139  11.569  17.760  0.00  0.00    +0.000 A 
ATOM     30  N   UNL     1      -2.894  11.570  18.859  0.00  0.00    +0.000 NA
ENDBRANCH  25  26
ENDBRANCH  10  20
TORSDOF 2
ENDMDL
MODEL 3
REMARK VINA RESULT:      -6.8      3.213      7.130
REMARK  Name = 
REMARK  4 active torsions:
REMARK  status: ('A' for Active; 'I' for Inactive)
REMARK    1  A    between atoms: C_1  and  C_2
REMARK    2  A    between atoms: C_10  and  C_12
REMARK    3  A    between atoms: C_17  and  N_18
REMARK    4  A    between atoms: C_27  and  C_28
REMARK                            x       y       z     vdW  Elec       q    Type
REMARK                         _______ _______ _______ _____ _____    ______ ____
ROOT
ATOM      1  C   UNL     1      -6.616  16.767  18.137  0.00  0.00    +0.000 C 
ATOM      2  C   UNL     1      -6.465  15.386  18.701  0.00  0.00    +0.000 A 
ATOM      3  N   UNL     1      -6.043  15.329  19.984  0.00  0.00    +0.000 NA
ATOM      4  C   UNL     1      -5.875  14.126  20.554  0.00  0.00    +0.000 A 
ATOM      5  N   UNL     1      -5.382  14.080  21.820  0.00  0.00    +0.000 N 
ATOM      6  C   UNL     1      -5.387  12.885  22.636  0.00  0.00    +0.000 C 
ATOM      7  C   UNL     1      -4.625  13.293  23.915  0.00  0.00    +0.000 C 
ATOM      8  C   UNL     1      -3.330  12.516  24.118  0.00  0.00    +0.000 C 
ATOM      9  N   UNL     1      -2.360  13.216  23.306  0.00  0.00    +0.000 N 
ATOM     10  C   UNL     1      -1.225  12.582  22.813  0.00  0.00    +0.000 C 
ATOM     11  O   UNL     1      -0.933  11.431  23.145  0.00  0.00    +0.000 OA
ATOM     12  C   UNL     1      -2.724  14.615  23.151  0.00  0.00    +0.000 C 
ATOM     13  C   UNL     1      -4.163  14.741  23.665  0.00  0.00    +0.000 C 
ATOM     14  C   UNL     1      -5.097  15.270  22.584  0.00  0.00    +0.000 C 
ATOM     15  N   UNL     1      -6.122  12.978  19.906  0.00  0.00    +0.000 NA
ATOM     16  C   UNL     1      -6.522  13.044  18.611  0.00  0.00    +0.000 A 
ATOM     17  C   UNL     1      -6.711  11.722  17.923  0.00  0.00    +0.000 C 
ATOM     18  C   UNL     1      -6.718  14.246  17.953  0.00  0.00    +0.000 A 
ATOM     19 CL   UNL     1      -7.232  14.326  16.312  0.00  0.00    +0.000 Cl
ENDROOT
BRANCH  10  20
ATOM     20  C   UNL     1      -0.299  13.331  21.882  0.00  0.00    +0.000 A 
ATOM     21  N   UNL     1       0.576  14.184  22.503  0.00  0.00    +0.000 NA
ATOM     22  C   UNL     1       1.545  14.755  21.759  0.00  0.00    +0.000 A 
ATOM     23  C   UNL     1       1.738  14.485  20.419  0.00  0.00    +0.000 A 
ATOM     24  C   UNL     1       0.865  13.599  19.797  0.00  0.00    +0.000 A 
ATOM     25  C   UNL     1      -0.196  13.038  20.527  0.00  0.00    +0.000 A 
BRANCH  25  26
ATOM     26  N   UNL     1      -1.150  12.259  19.840  0.00  0.00    +0.000 N 
ATOM     27  N   UNL     1      -0.777  11.147  19.138  0.00  0.00    +0.000 NA
ATOM     28  C   UNL     1      -1.925  10.780  18.566  0.00  0.00    +0.000 A 
ATOM     29  C   UNL     1      -2.910  11.734  18.828  0.00  0.00    +0.000 A 
ATOM     30  N   UNL     1      -2.413  12.702  19.599  0.00  0.00    +0.000 NA
ENDBRANCH  25  26
ENDBRANCH  10  20
TORSDOF 2
ENDMDL
MODEL 4
REMARK VINA RESULT:      -6.8      1.442      3.084
REMARK  Name = 
REMARK  4 active torsions:
REMARK  status: ('A' for Active; 'I' for Inactive)
REMARK    1  A    between atoms: C_1  and  C_2
REMARK    2  A    between atoms: C_10  and  C_12
REMARK    3  A    between atoms: C_17  and  N_18
REMARK    4  A    between atoms: C_27  and  C_28
REMARK                            x       y       z     vdW  Elec       q    Type
REMARK                         _______ _______ _______ _____ _____    ______ ____
ROOT
ATOM      1  C   UNL     1       0.606   9.258  23.152  0.00  0.00    +0.000 C 
ATOM      2  C   UNL     1       0.412  10.312  22.104  0.00  0.00    +0.000 A 
ATOM      3  N   UNL     1      -0.142  11.465  22.539  0.00  0.00    +0.000 NA
ATOM      4  C   UNL     1      -0.355  12.451  21.655  0.00  0.00    +0.000 A 
ATOM      5  N   UNL     1      -0.977  13.579  22.090  0.00  0.00    +0.000 N 
ATOM      6  C   UNL     1      -1.045  14.802  21.319  0.00  0.00    +0.000 C 
ATOM      7  C   UNL     1      -1.941  15.735  22.161  0.00  0.00    +0.000 C 
ATOM      8  C   UNL     1      -3.241  16.112  21.463  0.00  0.00    +0.000 C 
ATOM      9  N   UNL     1      -4.129  15.003  21.731  0.00  0.00    +0.000 N 
ATOM     10  C   UNL     1      -5.199  14.703  20.894  0.00  0.00    +0.000 C 
ATOM     11  O   UNL     1      -5.510  15.440  19.957  0.00  0.00    +0.000 OA
ATOM     12  C   UNL     1      -3.766  14.334  22.970  0.00  0.00    +0.000 C 
ATOM     13  C   UNL     1      -2.390  14.885  23.365  0.00  0.00    +0.000 C 
ATOM     14  C   UNL     1      -1.354  13.772  23.469  0.00  0.00    +0.000 C 
ATOM     15  N   UNL     1      -0.028  12.343  20.358  0.00  0.00    +0.000 NA
ATOM     16  C   UNL     1       0.504  11.173  19.925  0.00  0.00    +0.000 A 
ATOM     17  C   UNL     1       0.780  11.093  18.451  0.00  0.00    +0.000 C 
ATOM     18  C   UNL     1       0.755  10.109  20.775  0.00  0.00    +0.000 A 
ATOM     19 CL   UNL     1       1.438   8.629  20.223  0.00  0.00    +0.000 Cl
ENDROOT
BRANCH  10  20
ATOM     20  C   UNL     1      -6.030  13.470  21.163  0.00  0.00    +0.000 A 
ATOM     21  N   UNL     1      -6.956  13.606  22.164  0.00  0.00    +0.000 NA
ATOM     22  C   UNL     1      -7.849  12.611  22.345  0.00  0.00    +0.000 A 
ATOM     23  C   UNL     1      -7.916  11.490  21.543  0.00  0.00    +0.000 A 
ATOM     24  C   UNL     1      -6.993  11.367  20.510  0.00  0.00    +0.000 A 
ATOM     25  C   UNL     1      -6.007  12.352  20.336  0.00  0.00    +0.000 A 
BRANCH  25  26
ATOM     26  N   UNL     1      -4.995  12.133  19.378  0.00  0.00    +0.000 N 
ATOM     27  N   UNL     1      -5.295  11.640  18.138  0.00  0.00    +0.000 NA
ATOM     28  C   UNL     1      -4.084  11.482  17.601  0.00  0.00    +0.000 A 
ATOM     29  C   UNL     1      -3.103  11.754  18.556  0.00  0.00    +0.000 A 
ATOM     30  N   UNL     1      -3.675  12.125  19.703  0.00  0.00    +0.000 NA
ENDBRANCH  25  26
ENDBRANCH  10  20
TORSDOF 2
ENDMDL
MODEL 5
REMARK VINA RESULT:      -6.8      8.221     10.957
REMARK  Name = 
REMARK  4 active torsions:
REMARK  status: ('A' for Active; 'I' for Inactive)
REMARK    1  A    between atoms: C_1  and  C_2
REMARK    2  A    between atoms: C_10  and  C_12
REMARK    3  A    between atoms: C_17  and  N_18
REMARK    4  A    between atoms: C_27  and  C_28
REMARK                            x       y       z     vdW  Elec       q    Type
REMARK                         _______ _______ _______ _____ _____    ______ ____
ROOT
ATOM      1  C   UNL     1       9.339   9.945  19.224  0.00  0.00    +0.000 C 
ATOM      2  C   UNL     1       9.647  11.274  19.845  0.00  0.00    +0.000 A 
ATOM      3  N   UNL     1       8.847  11.630  20.874  0.00  0.00    +0.000 NA
ATOM      4  C   UNL     1       9.057  12.812  21.474  0.00  0.00    +0.000 A 
ATOM      5  N   UNL     1       8.202  13.190  22.461  0.00  0.00    +0.000 N 
ATOM      6  C   UNL     1       8.452  14.304  23.351  0.00  0.00    +0.000 C 
ATOM      7  C   UNL     1       7.166  14.412  24.198  0.00  0.00    +0.000 C 
ATOM      8  C   UNL     1       6.417  15.722  23.990  0.00  0.00    +0.000 C 
ATOM      9  N   UNL     1       5.626  15.500  22.801  0.00  0.00    +0.000 N 
ATOM     10  C   UNL     1       5.204  16.552  21.995  0.00  0.00    +0.000 C 
ATOM     11  O   UNL     1       5.381  17.727  22.324  0.00  0.00    +0.000 OA
ATOM     12  C   UNL     1       5.324  14.088  22.634  0.00  0.00    +0.000 C 
ATOM     13  C   UNL     1       6.217  13.339  23.630  0.00  0.00    +0.000 C 
ATOM     14  C   UNL     1       7.128  12.344  22.922  0.00  0.00    +0.000 C 
ATOM     15  N   UNL     1      10.037  13.648  21.101  0.00  0.00    +0.000 NA
ATOM     16  C   UNL     1      10.819  13.294  20.050  0.00  0.00    +0.000 A 
ATOM     17  C   UNL     1      11.849  14.307  19.639  0.00  0.00    +0.000 C 
ATOM     18  C   UNL     1      10.666  12.093  19.380  0.00  0.00    +0.000 A 
ATOM     19 CL   UNL     1      11.665  11.643  18.052  0.00  0.00    +0.000 Cl
ENDROOT
BRANCH  10  20
ATOM     20  C   UNL     1       4.471  16.255  20.707  0.00  0.00    +0.000 A 
ATOM     21  N   UNL     1       3.128  16.022  20.850  0.00  0.00    +0.000 NA
ATOM     22  C   UNL     1       2.377  15.921  19.734  0.00  0.00    +0.000 A 
ATOM     23  C   UNL     1       2.876  16.096  18.459  0.00  0.00    +0.000 A 
ATOM     24  C   UNL     1       4.234  16.361  18.318  0.00  0.00    +0.000 A 
ATOM     25  C   UNL     1       5.057  16.405  19.456  0.00  0.00    +0.000 A 
BRANCH  25  26
ATOM     26  N   UNL     1       6.450  16.529  19.277  0.00  0.00    +0.000 N 
ATOM     27  N   UNL     1       7.005  17.711  18.870  0.00  0.00    +0.000 NA
ATOM     28  C   UNL     1       8.289  17.380  18.721  0.00  0.00    +0.000 A 
ATOM     29  C   UNL     1       8.448  16.006  18.910  0.00  0.00    +0.000 A 
ATOM     30  N   UNL     1       7.275  15.450  19.219  0.00  0.00    +0.000 NA
ENDBRANCH  25  26
ENDBRANCH  10  20
TORSDOF 2
ENDMDL
MODEL 6
REMARK VINA RESULT:      -6.7      3.272      7.124
REMARK  Name = 
REMARK  4 active torsions:
REMARK  status: ('A' for Active; 'I' for Inactive)
REMARK    1  A    between atoms: C_1  and  C_2
REMARK    2  A    between atoms: C_10  and  C_12
REMARK    3  A    between atoms: C_17  and  N_18
REMARK    4  A    between atoms: C_27  and  C_28
REMARK                            x       y       z     vdW  Elec       q    Type
REMARK                         _______ _______ _______ _____ _____    ______ ____
ROOT
ATOM      1  C   UNL     1      -5.820  17.403  18.972  0.00  0.00    +0.000 C 
ATOM      2  C   UNL     1      -5.885  15.952  19.343  0.00  0.00    +0.000 A 
ATOM      3  N   UNL     1      -5.253  15.619  20.490  0.00  0.00    +0.000 NA
ATOM      4  C   UNL     1      -5.261  14.336  20.881  0.00  0.00    +0.000 A 
ATOM      5  N   UNL     1      -4.562  14.003  21.999  0.00  0.00    +0.000 N 
ATOM      6  C   UNL     1      -4.686  12.725  22.666  0.00  0.00    +0.000 C 
ATOM      7  C   UNL     1      -3.624  12.774  23.786  0.00  0.00    +0.000 C 
ATOM      8  C   UNL     1      -2.527  11.731  23.621  0.00  0.00    +0.000 C 
ATOM      9  N   UNL     1      -1.593  12.333  22.697  0.00  0.00    +0.000 N 
ATOM     10  C   UNL     1      -0.747  11.564  21.905  0.00  0.00    +0.000 C 
ATOM     11  O   UNL     1      -0.669  10.342  22.045  0.00  0.00    +0.000 OA
ATOM     12  C   UNL     1      -1.651  13.784  22.771  0.00  0.00    +0.000 C 
ATOM     13  C   UNL     1      -2.899  14.121  23.595  0.00  0.00    +0.000 C 
ATOM     14  C   UNL     1      -3.874  14.983  22.803  0.00  0.00    +0.000 C 
ATOM     15  N   UNL     1      -5.882  13.372  20.186  0.00  0.00    +0.000 NA
ATOM     16  C   UNL     1      -6.492  13.710  19.022  0.00  0.00    +0.000 A 
ATOM     17  C   UNL     1      -7.104  12.572  18.257  0.00  0.00    +0.000 C 
ATOM     18  C   UNL     1      -6.529  15.011  18.551  0.00  0.00    +0.000 A 
ATOM     19 CL   UNL     1      -7.311  15.438  17.078  0.00  0.00    +0.000 Cl
ENDROOT
BRANCH  10  20
ATOM     20  C   UNL     1       0.133  12.241  20.880  0.00  0.00    +0.000 A 
ATOM     21  N   UNL     1       1.272  12.812  21.386  0.00  0.00    +0.000 NA
ATOM     22  C   UNL     1       2.189  13.282  20.516  0.00  0.00    +0.000 A 
ATOM     23  C   UNL     1       2.070  13.169  19.145  0.00  0.00    +0.000 A 
ATOM     24  C   UNL     1       0.926  12.564  18.635  0.00  0.00    +0.000 A 
ATOM     25  C   UNL     1      -0.080  12.124  19.511  0.00  0.00    +0.000 A 
BRANCH  25  26
ATOM     26  N   UNL     1      -1.290  11.649  18.966  0.00  0.00    +0.000 N 
ATOM     27  N   UNL     1      -1.300  10.613  18.073  0.00  0.00    +0.000 NA
ATOM     28  C   UNL     1      -2.589  10.554  17.730  0.00  0.00    +0.000 A 
ATOM     29  C   UNL     1      -3.283  11.616  18.312  0.00  0.00    +0.000 A 
ATOM     30  N   UNL     1      -2.454  12.344  19.063  0.00  0.00    +0.000 NA
ENDBRANCH  25  26
ENDBRANCH  10  20
TORSDOF 2
ENDMDL
MODEL 7
REMARK VINA RESULT:      -6.6      7.365     10.461
REMARK  Name = 
REMARK  4 active torsions:
REMARK  status: ('A' for Active; 'I' for Inactive)
REMARK    1  A    between atoms: C_1  and  C_2
REMARK    2  A    between atoms: C_10  and  C_12
REMARK    3  A    between atoms: C_17  and  N_18
REMARK    4  A    between atoms: C_27  and  C_28
REMARK                            x       y       z     vdW  Elec       q    Type
REMARK                         _______ _______ _______ _____ _____    ______ ____
ROOT
ATOM      1  C   UNL     1       9.327   9.973  19.055  0.00  0.00    +0.000 C 
ATOM      2  C   UNL     1       9.543  11.335  19.643  0.00  0.00    +0.000 A 
ATOM      3  N   UNL     1       8.960  11.546  20.844  0.00  0.00    +0.000 NA
ATOM      4  C   UNL     1       9.103  12.745  21.428  0.00  0.00    +0.000 A 
ATOM      5  N   UNL     1       8.453  12.969  22.600  0.00  0.00    +0.000 N 
ATOM      6  C   UNL     1       8.713  14.108  23.454  0.00  0.00    +0.000 C 
ATOM      7  C   UNL     1       7.662  13.991  24.579  0.00  0.00    +0.000 C 
ATOM      8  C   UNL     1       6.676  15.151  24.604  0.00  0.00    +0.000 C 
ATOM      9  N   UNL     1       5.677  14.797  23.622  0.00  0.00    +0.000 N 
ATOM     10  C   UNL     1       4.907  15.761  22.980  0.00  0.00    +0.000 C 
ATOM     11  O   UNL     1       4.957  16.948  23.308  0.00  0.00    +0.000 OA
ATOM     12  C   UNL     1       5.587  13.354  23.470  0.00  0.00    +0.000 C 
ATOM     13  C   UNL     1       6.801  12.770  24.201  0.00  0.00    +0.000 C 
ATOM     14  C   UNL     1       7.675  11.949  23.261  0.00  0.00    +0.000 C 
ATOM     15  N   UNL     1       9.813  13.739  20.874  0.00  0.00    +0.000 NA
ATOM     16  C   UNL     1      10.374  13.527  19.657  0.00  0.00    +0.000 A 
ATOM     17  C   UNL     1      11.093  14.704  19.061  0.00  0.00    +0.000 C 
ATOM     18  C   UNL     1      10.273  12.318  18.990  0.00  0.00    +0.000 A 
ATOM     19 CL   UNL     1      10.993  12.050  17.450  0.00  0.00    +0.000 Cl
ENDROOT
BRANCH  10  20
ATOM     20  C   UNL     1       3.953  15.343  21.885  0.00  0.00    +0.000 A 
ATOM     21  N   UNL     1       2.746  14.864  22.325  0.00  0.00    +0.000 NA
ATOM     22  C   UNL     1       1.781  14.635  21.411  0.00  0.00    +0.000 A 
ATOM     23  C   UNL     1       1.923  14.909  20.065  0.00  0.00    +0.000 A 
ATOM     24  C   UNL     1       3.139  15.421  19.625  0.00  0.00    +0.000 A 
ATOM     25  C   UNL     1       4.188  15.608  20.541  0.00  0.00    +0.000 A 
BRANCH  25  26
ATOM     26  N   UNL     1       5.453  15.989  20.048  0.00  0.00    +0.000 N 
ATOM     27  N   UNL     1       5.644  17.214  19.471  0.00  0.00    +0.000 NA
ATOM     28  C   UNL     1       6.909  17.131  19.054  0.00  0.00    +0.000 A 
ATOM     29  C   UNL     1       7.395  15.840  19.270  0.00  0.00    +0.000 A 
ATOM     30  N   UNL     1       6.459  15.095  19.860  0.00  0.00    +0.000 NA
ENDBRANCH  25  26
ENDBRANCH  10  20
TORSDOF 2
ENDMDL
MODEL 8
REMARK VINA RESULT:      -6.4      4.373      8.030
REMARK  Name = 
REMARK  4 active torsions:
REMARK  status: ('A' for Active; 'I' for Inactive)
REMARK    1  A    between atoms: C_1  and  C_2
REMARK    2  A    between atoms: C_10  and  C_12
REMARK    3  A    between atoms: C_17  and  N_18
REMARK    4  A    between atoms: C_27  and  C_28
REMARK                            x       y       z     vdW  Elec       q    Type
REMARK                         _______ _______ _______ _____ _____    ______ ____
ROOT
ATOM      1  C   UNL     1      -6.373  13.437  20.265  0.00  0.00    +0.000 C 
ATOM      2  C   UNL     1      -5.266  12.736  19.537  0.00  0.00    +0.000 A 
ATOM      3  N   UNL     1      -4.096  12.650  20.208  0.00  0.00    +0.000 NA
ATOM      4  C   UNL     1      -3.057  12.043  19.615  0.00  0.00    +0.000 A 
ATOM      5  N   UNL     1      -1.866  12.025  20.271  0.00  0.00    +0.000 N 
ATOM      6  C   UNL     1      -0.745  11.202  19.870  0.00  0.00    +0.000 C 
ATOM      7  C   UNL     1       0.394  11.615  20.827  0.00  0.00    +0.000 C 
ATOM      8  C   UNL     1       1.578  12.254  20.113  0.00  0.00    +0.000 C 
ATOM      9  N   UNL     1       1.197  13.640  19.954  0.00  0.00    +0.000 N 
ATOM     10  C   UNL     1       1.733  14.435  18.946  0.00  0.00    +0.000 C 
ATOM     11  O   UNL     1       2.645  14.030  18.222  0.00  0.00    +0.000 OA
ATOM     12  C   UNL     1       0.262  14.044  20.991  0.00  0.00    +0.000 C 
ATOM     13  C   UNL     1      -0.192  12.754  21.684  0.00  0.00    +0.000 C 
ATOM     14  C   UNL     1      -1.703  12.576  21.595  0.00  0.00    +0.000 C 
ATOM     15  N   UNL     1      -3.136  11.507  18.388  0.00  0.00    +0.000 NA
ATOM     16  C   UNL     1      -4.307  11.620  17.712  0.00  0.00    +0.000 A 
ATOM     17  C   UNL     1      -4.305  11.063  16.317  0.00  0.00    +0.000 C 
ATOM     18  C   UNL     1      -5.424  12.230  18.255  0.00  0.00    +0.000 A 
ATOM     19 CL   UNL     1      -6.910  12.365  17.396  0.00  0.00    +0.000 Cl
ENDROOT
BRANCH  10  20
ATOM     20  C   UNL     1       1.221  15.844  18.760  0.00  0.00    +0.000 A 
ATOM     21  N   UNL     1      -0.080  15.933  18.339  0.00  0.00    +0.000 NA
ATOM     22  C   UNL     1      -0.661  17.150  18.316  0.00  0.00    +0.000 A 
ATOM     23  C   UNL     1      -0.035  18.303  18.747  0.00  0.00    +0.000 A 
ATOM     24  C   UNL     1       1.277  18.206  19.201  0.00  0.00    +0.000 A 
ATOM     25  C   UNL     1       1.933  16.965  19.174  0.00  0.00    +0.000 A 
BRANCH  25  26
ATOM     26  N   UNL     1       3.304  16.919  19.500  0.00  0.00    +0.000 N 
ATOM     27  N   UNL     1       3.719  16.943  20.803  0.00  0.00    +0.000 NA
ATOM     28  C   UNL     1       5.046  16.996  20.672  0.00  0.00    +0.000 A 
ATOM     29  C   UNL     1       5.383  17.132  19.324  0.00  0.00    +0.000 A 
ATOM     30  N   UNL     1       4.279  17.130  18.576  0.00  0.00    +0.000 NA
ENDBRANCH  25  26
ENDBRANCH  10  20
TORSDOF 2
ENDMDL
MODEL 9
REMARK VINA RESULT:      -6.4      3.143      6.992
REMARK  Name = 
REMARK  4 active torsions:
REMARK  status: ('A' for Active; 'I' for Inactive)
REMARK    1  A    between atoms: C_1  and  C_2
REMARK    2  A    between atoms: C_10  and  C_12
REMARK    3  A    between atoms: C_17  and  N_18
REMARK    4  A    between atoms: C_27  and  C_28
REMARK                            x       y       z     vdW  Elec       q    Type
REMARK                         _______ _______ _______ _____ _____    ______ ____
ROOT
ATOM      1  C   UNL     1      -6.505  13.485  20.093  0.00  0.00    +0.000 C 
ATOM      2  C   UNL     1      -5.480  13.648  21.174  0.00  0.00    +0.000 A 
ATOM      3  N   UNL     1      -4.428  14.436  20.859  0.00  0.00    +0.000 NA
ATOM      4  C   UNL     1      -3.465  14.621  21.775  0.00  0.00    +0.000 A 
ATOM      5  N   UNL     1      -2.379  15.358  21.422  0.00  0.00    +0.000 N 
ATOM      6  C   UNL     1      -1.399  15.841  22.371  0.00  0.00    +0.000 C 
ATOM      7  C   UNL     1      -0.313  16.504  21.496  0.00  0.00    +0.000 C 
ATOM      8  C   UNL     1       1.042  15.815  21.593  0.00  0.00    +0.000 C 
ATOM      9  N   UNL     1       0.952  14.712  20.663  0.00  0.00    +0.000 N 
ATOM     10  C   UNL     1       1.737  13.572  20.803  0.00  0.00    +0.000 C 
ATOM     11  O   UNL     1       2.628  13.502  21.651  0.00  0.00    +0.000 OA
ATOM     12  C   UNL     1       0.004  15.003  19.601  0.00  0.00    +0.000 C 
ATOM     13  C   UNL     1      -0.761  16.257  20.042  0.00  0.00    +0.000 C 
ATOM     14  C   UNL     1      -2.259  15.992  20.132  0.00  0.00    +0.000 C 
ATOM     15  N   UNL     1      -3.511  14.066  22.995  0.00  0.00    +0.000 NA
ATOM     16  C   UNL     1      -4.558  13.255  23.293  0.00  0.00    +0.000 A 
ATOM     17  C   UNL     1      -4.510  12.608  24.648  0.00  0.00    +0.000 C 
ATOM     18  C   UNL     1      -5.590  13.015  22.404  0.00  0.00    +0.000 A 
ATOM     19 CL   UNL     1      -6.921  11.993  22.789  0.00  0.00    +0.000 Cl
ENDROOT
BRANCH  10  20
ATOM     20  C   UNL     1       1.527  12.406  19.865  0.00  0.00    +0.000 A 
ATOM     21  N   UNL     1       2.172  12.512  18.660  0.00  0.00    +0.000 NA
ATOM     22  C   UNL     1       2.175  11.439  17.842  0.00  0.00    +0.000 A 
ATOM     23  C   UNL     1       1.612  10.223  18.175  0.00  0.00    +0.000 A 
ATOM     24  C   UNL     1       0.982  10.109  19.410  0.00  0.00    +0.000 A 
ATOM     25  C   UNL     1       0.903  11.227  20.257  0.00  0.00    +0.000 A 
BRANCH  25  26
ATOM     26  N   UNL     1       0.135  11.127  21.436  0.00  0.00    +0.000 N 
ATOM     27  N   UNL     1       0.398  10.161  22.368  0.00  0.00    +0.000 NA
ATOM     28  C   UNL     1      -0.595  10.340  23.242  0.00  0.00    +0.000 A 
ATOM     29  C   UNL     1      -1.485  11.300  22.757  0.00  0.00    +0.000 A 
ATOM     30  N   UNL     1      -1.052  11.773  21.588  0.00  0.00    +0.000 NA
ENDBRANCH  25  26
ENDBRANCH  10  20
TORSDOF 2
ENDMDL
