MODEL 1
REMARK VINA RESULT:      -6.6      0.000      0.000
REMARK  Name = 
REMARK  1 active torsions:
REMARK  status: ('A' for Active; 'I' for Inactive)
REMARK    1  A    between atoms: C_4  and  N_5
REMARK                            x       y       z     vdW  Elec       q    Type
REMARK                         _______ _______ _______ _____ _____    ______ ____
ROOT
ATOM      1  N   UNL     1      -3.955  12.895  19.639  0.00  0.00    +0.000 NA
ATOM      2  C   UNL     1      -3.337  11.941  18.975  0.00  0.00    +0.000 C 
ATOM      3  C   UNL     1      -4.144  10.837  18.271  0.00  0.00    +0.000 C 
ATOM      4  C   UNL     1      -3.315   9.697  17.742  0.00  0.00    +0.000 C 
ATOM      5  C   UNL     1      -2.181  10.313  16.939  0.00  0.00    +0.000 C 
ATOM      6  C   UNL     1      -1.212  11.012  17.897  0.00  0.00    +0.000 C 
ATOM      7  C   UNL     1      -0.388   9.923  18.629  0.00  0.00    +0.000 C 
ATOM      8  C   UNL     1       1.117   9.953  18.340  0.00  0.00    +0.000 C 
ATOM      9  C   UNL     1       1.775   8.781  19.077  0.00  0.00    +0.000 C 
ATOM     10  C   UNL     1       1.462   8.804  20.582  0.00  0.00    +0.000 C 
ATOM     11  N   UNL     1       0.022   8.855  20.815  0.00  0.00    +0.000 NA
ATOM     12  C   UNL     1      -0.414   8.749  22.205  0.00  0.00    +0.000 C 
ATOM     13  C   UNL     1      -0.608  10.065  22.978  0.00  0.00    +0.000 C 
ATOM     14  C   UNL     1      -1.126  11.257  22.160  0.00  0.00    +0.000 C 
ATOM     15  C   UNL     1      -0.478  11.322  20.773  0.00  0.00    +0.000 C 
ATOM     16  C   UNL     1      -1.054  12.454  19.888  0.00  0.00    +0.000 C 
ATOM     17  N   UNL     1      -1.937  11.897  18.850  0.00  0.00    +0.000 N 
ATOM     18  C   UNL     1      -0.678   9.940  20.126  0.00  0.00    +0.000 C 
ENDROOT
BRANCH   1  22
ATOM     19  C   UNL     1      -7.605  13.012  19.082  0.00  0.00    +0.000 A 
ATOM     20  C   UNL     1      -7.687  12.425  20.321  0.00  0.00    +0.000 A 
ATOM     21  S   UNL     1      -6.148  12.274  21.059  0.00  0.00    +0.000 S 
ATOM     22  C   UNL     1      -5.325  12.910  19.679  0.00  0.00    +0.000 A 
ATOM     23  C   UNL     1      -6.271  13.416  18.791  0.00  0.00    +0.000 A 
ENDBRANCH   1  22
TORSDOF 1
ENDMDL
MODEL 2
REMARK VINA RESULT:      -6.2      1.381      1.485
REMARK  Name = 
REMARK  1 active torsions:
REMARK  status: ('A' for Active; 'I' for Inactive)
REMARK    1  A    between atoms: C_4  and  N_5
REMARK                            x       y       z     vdW  Elec       q    Type
REMARK                         _______ _______ _______ _____ _____    ______ ____
ROOT
ATOM      1  N   UNL     1      -3.440  13.617  20.854  0.00  0.00    +0.000 NA
ATOM      2  C   UNL     1      -3.002  12.782  19.935  0.00  0.00    +0.000 C 
ATOM      3  C   UNL     1      -3.995  11.991  19.067  0.00  0.00    +0.000 C 
ATOM      4  C   UNL     1      -3.368  10.919  18.217  0.00  0.00    +0.000 C 
ATOM      5  C   UNL     1      -2.204  11.562  17.484  0.00  0.00    +0.000 C 
ATOM      6  C   UNL     1      -1.093  11.881  18.490  0.00  0.00    +0.000 C 
ATOM      7  C   UNL     1      -0.395  10.552  18.874  0.00  0.00    +0.000 C 
ATOM      8  C   UNL     1       1.081  10.462  18.469  0.00  0.00    +0.000 C 
ATOM      9  C   UNL     1       1.604   9.074  18.853  0.00  0.00    +0.000 C 
ATOM     10  C   UNL     1       1.380   8.771  20.345  0.00  0.00    +0.000 C 
ATOM     11  N   UNL     1      -0.023   8.944  20.708  0.00  0.00    +0.000 NA
ATOM     12  C   UNL     1      -0.393   8.560  22.067  0.00  0.00    +0.000 C 
ATOM     13  C   UNL     1      -0.354   9.664  23.139  0.00  0.00    +0.000 C 
ATOM     14  C   UNL     1      -0.740  11.074  22.668  0.00  0.00    +0.000 C 
ATOM     15  C   UNL     1      -0.167  11.390  21.283  0.00  0.00    +0.000 C 
ATOM     16  C   UNL     1      -0.622  12.766  20.740  0.00  0.00    +0.000 C 
ATOM     17  N   UNL     1      -1.631  12.594  19.682  0.00  0.00    +0.000 N 
ATOM     18  C   UNL     1      -0.596  10.243  20.353  0.00  0.00    +0.000 C 
ENDROOT
BRANCH   1  22
ATOM     19  C   UNL     1      -7.013  13.651  21.789  0.00  0.00    +0.000 A 
ATOM     20  C   UNL     1      -7.054  14.836  21.097  0.00  0.00    +0.000 A 
ATOM     21  S   UNL     1      -5.556  15.188  20.343  0.00  0.00    +0.000 S 
ATOM     22  C   UNL     1      -4.789  13.793  21.015  0.00  0.00    +0.000 A 
ATOM     23  C   UNL     1      -5.761  12.995  21.612  0.00  0.00    +0.000 A 
ENDBRANCH   1  22
TORSDOF 1
ENDMDL
MODEL 3
REMARK VINA RESULT:      -6.0      2.744      6.991
REMARK  Name = 
REMARK  1 active torsions:
REMARK  status: ('A' for Active; 'I' for Inactive)
REMARK    1  A    between atoms: C_4  and  N_5
REMARK                            x       y       z     vdW  Elec       q    Type
REMARK                         _______ _______ _______ _____ _____    ______ ____
ROOT
ATOM      1  N   UNL     1      -1.909  12.715  19.630  0.00  0.00    +0.000 NA
ATOM      2  C   UNL     1      -2.329  12.775  20.876  0.00  0.00    +0.000 C 
ATOM      3  C   UNL     1      -1.724  11.848  21.945  0.00  0.00    +0.000 C 
ATOM      4  C   UNL     1      -2.442  11.866  23.267  0.00  0.00    +0.000 C 
ATOM      5  C   UNL     1      -2.604  13.325  23.661  0.00  0.00    +0.000 C 
ATOM      6  C   UNL     1      -3.618  13.987  22.723  0.00  0.00    +0.000 C 
ATOM      7  C   UNL     1      -5.034  13.501  23.123  0.00  0.00    +0.000 C 
ATOM      8  C   UNL     1      -5.971  14.602  23.632  0.00  0.00    +0.000 C 
ATOM      9  C   UNL     1      -7.296  13.954  24.048  0.00  0.00    +0.000 C 
ATOM     10  C   UNL     1      -7.915  13.132  22.905  0.00  0.00    +0.000 C 
ATOM     11  N   UNL     1      -6.965  12.149  22.396  0.00  0.00    +0.000 NA
ATOM     12  C   UNL     1      -7.473  11.214  21.395  0.00  0.00    +0.000 C 
ATOM     13  C   UNL     1      -7.301  11.611  19.918  0.00  0.00    +0.000 C 
ATOM     14  C   UNL     1      -6.025  12.395  19.576  0.00  0.00    +0.000 C 
ATOM     15  C   UNL     1      -5.690  13.436  20.648  0.00  0.00    +0.000 C 
ATOM     16  C   UNL     1      -4.355  14.173  20.380  0.00  0.00    +0.000 C 
ATOM     17  N   UNL     1      -3.309  13.691  21.296  0.00  0.00    +0.000 N 
ATOM     18  C   UNL     1      -5.667  12.694  21.995  0.00  0.00    +0.000 C 
ENDROOT
BRANCH   1  22
ATOM     19  C   UNL     1       0.287  10.002  18.419  0.00  0.00    +0.000 A 
ATOM     20  C   UNL     1       1.306  10.891  18.657  0.00  0.00    +0.000 A 
ATOM     21  S   UNL     1       0.737  12.338  19.378  0.00  0.00    +0.000 S 
ATOM     22  C   UNL     1      -0.914  11.834  19.296  0.00  0.00    +0.000 A 
ATOM     23  C   UNL     1      -0.951  10.493  18.922  0.00  0.00    +0.000 A 
ENDBRANCH   1  22
TORSDOF 1
ENDMDL
MODEL 4
REMARK VINA RESULT:      -5.9      4.496      6.869
REMARK  Name = 
REMARK  1 active torsions:
REMARK  status: ('A' for Active; 'I' for Inactive)
REMARK    1  A    between atoms: C_4  and  N_5
REMARK                            x       y       z     vdW  Elec       q    Type
REMARK                         _______ _______ _______ _____ _____    ______ ____
ROOT
ATOM      1  N   UNL     1       1.615   8.171  21.426  0.00  0.00    +0.000 NA
ATOM      2  C   UNL     1       1.902   7.947  20.161  0.00  0.00    +0.000 C 
ATOM      3  C   UNL     1       1.184   8.734  19.051  0.00  0.00    +0.000 C 
ATOM      4  C   UNL     1       1.444   8.228  17.658  0.00  0.00    +0.000 C 
ATOM      5  C   UNL     1       2.951   8.090  17.513  0.00  0.00    +0.000 C 
ATOM      6  C   UNL     1       3.433   6.926  18.384  0.00  0.00    +0.000 C 
ATOM      7  C   UNL     1       3.030   5.603  17.687  0.00  0.00    +0.000 C 
ATOM      8  C   UNL     1       4.207   4.725  17.244  0.00  0.00    +0.000 C 
ATOM      9  C   UNL     1       3.648   3.499  16.516  0.00  0.00    +0.000 C 
ATOM     10  C   UNL     1       2.632   2.733  17.381  0.00  0.00    +0.000 C 
ATOM     11  N   UNL     1       1.571   3.619  17.847  0.00  0.00    +0.000 NA
ATOM     12  C   UNL     1       0.471   2.988  18.571  0.00  0.00    +0.000 C 
ATOM     13  C   UNL     1       0.592   2.920  20.104  0.00  0.00    +0.000 C 
ATOM     14  C   UNL     1       1.298   4.106  20.777  0.00  0.00    +0.000 C 
ATOM     15  C   UNL     1       2.517   4.574  19.976  0.00  0.00    +0.000 C 
ATOM     16  C   UNL     1       3.190   5.832  20.578  0.00  0.00    +0.000 C 
ATOM     17  N   UNL     1       2.882   7.020  19.765  0.00  0.00    +0.000 N 
ATOM     18  C   UNL     1       2.032   4.825  18.538  0.00  0.00    +0.000 C 
ENDROOT
BRANCH   1  22
ATOM     19  C   UNL     1      -1.044  10.337  22.799  0.00  0.00    +0.000 A 
ATOM     20  C   UNL     1      -0.440  11.330  22.067  0.00  0.00    +0.000 A 
ATOM     21  S   UNL     1       0.852  10.727  21.117  0.00  0.00    +0.000 S 
ATOM     22  C   UNL     1       0.687   9.127  21.748  0.00  0.00    +0.000 A 
ATOM     23  C   UNL     1      -0.486   9.062  22.495  0.00  0.00    +0.000 A 
ENDBRANCH   1  22
TORSDOF 1
ENDMDL
MODEL 5
REMARK VINA RESULT:      -5.9     10.465     12.528
REMARK  Name = 
REMARK  1 active torsions:
REMARK  status: ('A' for Active; 'I' for Inactive)
REMARK    1  A    between atoms: C_4  and  N_5
REMARK                            x       y       z     vdW  Elec       q    Type
REMARK                         _______ _______ _______ _____ _____    ______ ____
ROOT
ATOM      1  N   UNL     1       8.580  13.749  23.078  0.00  0.00    +0.000 NA
ATOM      2  C   UNL     1       8.319  14.405  21.967  0.00  0.00    +0.000 C 
ATOM      3  C   UNL     1       6.889  14.437  21.402  0.00  0.00    +0.000 C 
ATOM      4  C   UNL     1       6.774  15.030  20.023  0.00  0.00    +0.000 C 
ATOM      5  C   UNL     1       7.513  16.357  20.052  0.00  0.00    +0.000 C 
ATOM      6  C   UNL     1       9.016  16.091  20.175  0.00  0.00    +0.000 C 
ATOM      7  C   UNL     1       9.531  15.590  18.802  0.00  0.00    +0.000 C 
ATOM      8  C   UNL     1      10.550  16.513  18.123  0.00  0.00    +0.000 C 
ATOM      9  C   UNL     1      10.906  15.917  16.757  0.00  0.00    +0.000 C 
ATOM     10  C   UNL     1      11.408  14.469  16.877  0.00  0.00    +0.000 C 
ATOM     11  N   UNL     1      10.446  13.641  17.598  0.00  0.00    +0.000 NA
ATOM     12  C   UNL     1      10.742  12.213  17.666  0.00  0.00    +0.000 C 
ATOM     13  C   UNL     1      11.535  11.723  18.891  0.00  0.00    +0.000 C 
ATOM     14  C   UNL     1      11.255  12.455  20.212  0.00  0.00    +0.000 C 
ATOM     15  C   UNL     1      11.103  13.965  20.006  0.00  0.00    +0.000 C 
ATOM     16  C   UNL     1      10.721  14.718  21.304  0.00  0.00    +0.000 C 
ATOM     17  N   UNL     1       9.306  15.121  21.268  0.00  0.00    +0.000 N 
ATOM     18  C   UNL     1      10.045  14.159  18.907  0.00  0.00    +0.000 C 
ENDROOT
BRANCH   1  22
ATOM     19  C   UNL     1       6.110  11.475  24.619  0.00  0.00    +0.000 A 
ATOM     20  C   UNL     1       5.835  12.536  25.446  0.00  0.00    +0.000 A 
ATOM     21  S   UNL     1       6.715  13.938  25.001  0.00  0.00    +0.000 S 
ATOM     22  C   UNL     1       7.562  13.113  23.740  0.00  0.00    +0.000 A 
ATOM     23  C   UNL     1       6.985  11.859  23.563  0.00  0.00    +0.000 A 
ENDBRANCH   1  22
TORSDOF 1
ENDMDL
MODEL 6
REMARK VINA RESULT:      -5.7      3.375      7.401
REMARK  Name = 
REMARK  1 active torsions:
REMARK  status: ('A' for Active; 'I' for Inactive)
REMARK    1  A    between atoms: C_4  and  N_5
REMARK                            x       y       z     vdW  Elec       q    Type
REMARK                         _______ _______ _______ _____ _____    ______ ____
ROOT
ATOM      1  N   UNL     1       2.349   7.507  18.598  0.00  0.00    +0.000 NA
ATOM      2  C   UNL     1       1.724   8.104  19.591  0.00  0.00    +0.000 C 
ATOM      3  C   UNL     1       1.251   7.294  20.811  0.00  0.00    +0.000 C 
ATOM      4  C   UNL     1       0.364   8.053  21.760  0.00  0.00    +0.000 C 
ATOM      5  C   UNL     1       1.062   9.368  22.060  0.00  0.00    +0.000 C 
ATOM      6  C   UNL     1       1.035  10.247  20.806  0.00  0.00    +0.000 C 
ATOM      7  C   UNL     1      -0.401  10.803  20.636  0.00  0.00    +0.000 C 
ATOM      8  C   UNL     1      -0.518  12.327  20.748  0.00  0.00    +0.000 C 
ATOM      9  C   UNL     1      -1.997  12.709  20.629  0.00  0.00    +0.000 C 
ATOM     10  C   UNL     1      -2.628  12.161  19.338  0.00  0.00    +0.000 C 
ATOM     11  N   UNL     1      -2.427  10.719  19.231  0.00  0.00    +0.000 NA
ATOM     12  C   UNL     1      -3.092  10.054  18.113  0.00  0.00    +0.000 C 
ATOM     13  C   UNL     1      -2.283   9.898  16.813  0.00  0.00    +0.000 C 
ATOM     14  C   UNL     1      -0.774   9.669  16.981  0.00  0.00    +0.000 C 
ATOM     15  C   UNL     1      -0.186  10.536  18.098  0.00  0.00    +0.000 C 
ATOM     16  C   UNL     1       1.314  10.254  18.358  0.00  0.00    +0.000 C 
ATOM     17  N   UNL     1       1.485   9.490  19.605  0.00  0.00    +0.000 N 
ATOM     18  C   UNL     1      -1.037  10.278  19.354  0.00  0.00    +0.000 C 
ENDROOT
BRANCH   1  22
ATOM     19  C   UNL     1       2.546   3.829  18.317  0.00  0.00    +0.000 A 
ATOM     20  C   UNL     1       3.766   3.973  18.932  0.00  0.00    +0.000 A 
ATOM     21  S   UNL     1       4.066   5.598  19.384  0.00  0.00    +0.000 S 
ATOM     22  C   UNL     1       2.596   6.161  18.670  0.00  0.00    +0.000 A 
ATOM     23  C   UNL     1       1.828   5.059  18.306  0.00  0.00    +0.000 A 
ENDBRANCH   1  22
TORSDOF 1
ENDMDL
MODEL 7
REMARK VINA RESULT:      -5.7      9.269     11.313
REMARK  Name = 
REMARK  1 active torsions:
REMARK  status: ('A' for Active; 'I' for Inactive)
REMARK    1  A    between atoms: C_4  and  N_5
REMARK                            x       y       z     vdW  Elec       q    Type
REMARK                         _______ _______ _______ _____ _____    ______ ____
ROOT
ATOM      1  N   UNL     1       7.071  15.507  21.722  0.00  0.00    +0.000 NA
ATOM      2  C   UNL     1       7.505  15.513  20.478  0.00  0.00    +0.000 C 
ATOM      3  C   UNL     1       6.519  15.708  19.313  0.00  0.00    +0.000 C 
ATOM      4  C   UNL     1       7.110  15.474  17.949  0.00  0.00    +0.000 C 
ATOM      5  C   UNL     1       8.395  16.282  17.881  0.00  0.00    +0.000 C 
ATOM      6  C   UNL     1       9.436  15.645  18.807  0.00  0.00    +0.000 C 
ATOM      7  C   UNL     1       9.960  14.354  18.129  0.00  0.00    +0.000 C 
ATOM      8  C   UNL     1      11.450  14.377  17.768  0.00  0.00    +0.000 C 
ATOM      9  C   UNL     1      11.793  13.068  17.050  0.00  0.00    +0.000 C 
ATOM     10  C   UNL     1      11.406  11.837  17.886  0.00  0.00    +0.000 C 
ATOM     11  N   UNL     1      10.001  11.892  18.275  0.00  0.00    +0.000 NA
ATOM     12  C   UNL     1       9.472  10.717  18.963  0.00  0.00    +0.000 C 
ATOM     13  C   UNL     1       9.524  10.726  20.501  0.00  0.00    +0.000 C 
ATOM     14  C   UNL     1       9.326  12.093  21.174  0.00  0.00    +0.000 C 
ATOM     15  C   UNL     1      10.051  13.211  20.419  0.00  0.00    +0.000 C 
ATOM     16  C   UNL     1       9.788  14.614  21.016  0.00  0.00    +0.000 C 
ATOM     17  N   UNL     1       8.866  15.375  20.156  0.00  0.00    +0.000 N 
ATOM     18  C   UNL     1       9.595  13.124  18.953  0.00  0.00    +0.000 C 
ENDROOT
BRANCH   1  22
ATOM     19  C   UNL     1       3.589  16.650  22.182  0.00  0.00    +0.000 A 
ATOM     20  C   UNL     1       3.282  15.311  22.180  0.00  0.00    +0.000 A 
ATOM     21  S   UNL     1       4.686  14.333  22.101  0.00  0.00    +0.000 S 
ATOM     22  C   UNL     1       5.737  15.699  21.971  0.00  0.00    +0.000 A 
ATOM     23  C   UNL     1       4.998  16.854  22.211  0.00  0.00    +0.000 A 
ENDBRANCH   1  22
TORSDOF 1
ENDMDL
MODEL 8
REMARK VINA RESULT:      -5.6      3.161      7.013
REMARK  Name = 
REMARK  1 active torsions:
REMARK  status: ('A' for Active; 'I' for Inactive)
REMARK    1  A    between atoms: C_4  and  N_5
REMARK                            x       y       z     vdW  Elec       q    Type
REMARK                         _______ _______ _______ _____ _____    ______ ____
ROOT
ATOM      1  N   UNL     1      -1.734  14.187  20.099  0.00  0.00    +0.000 NA
ATOM      2  C   UNL     1      -2.262  13.711  21.207  0.00  0.00    +0.000 C 
ATOM      3  C   UNL     1      -1.541  12.605  21.997  0.00  0.00    +0.000 C 
ATOM      4  C   UNL     1      -2.353  12.002  23.112  0.00  0.00    +0.000 C 
ATOM      5  C   UNL     1      -2.906  13.158  23.929  0.00  0.00    +0.000 C 
ATOM      6  C   UNL     1      -3.967  13.893  23.105  0.00  0.00    +0.000 C 
ATOM      7  C   UNL     1      -5.247  13.020  23.078  0.00  0.00    +0.000 C 
ATOM      8  C   UNL     1      -6.469  13.651  23.755  0.00  0.00    +0.000 C 
ATOM      9  C   UNL     1      -7.623  12.644  23.707  0.00  0.00    +0.000 C 
ATOM     10  C   UNL     1      -7.917  12.179  22.270  0.00  0.00    +0.000 C 
ATOM     11  N   UNL     1      -6.711  11.658  21.634  0.00  0.00    +0.000 NA
ATOM     12  C   UNL     1      -6.883  11.061  20.312  0.00  0.00    +0.000 C 
ATOM     13  C   UNL     1      -6.686  11.987  19.098  0.00  0.00    +0.000 C 
ATOM     14  C   UNL     1      -5.621  13.083  19.252  0.00  0.00    +0.000 C 
ATOM     15  C   UNL     1      -5.649  13.715  20.646  0.00  0.00    +0.000 C 
ATOM     16  C   UNL     1      -4.521  14.753  20.864  0.00  0.00    +0.000 C 
ATOM     17  N   UNL     1      -3.471  14.197  21.733  0.00  0.00    +0.000 N 
ATOM     18  C   UNL     1      -5.560  12.560  21.659  0.00  0.00    +0.000 C 
ENDROOT
BRANCH   1  22
ATOM     19  C   UNL     1       1.776  13.241  19.446  0.00  0.00    +0.000 A 
ATOM     20  C   UNL     1       1.232  12.212  18.716  0.00  0.00    +0.000 A 
ATOM     21  S   UNL     1      -0.476  12.320  18.636  0.00  0.00    +0.000 S 
ATOM     22  C   UNL     1      -0.526  13.706  19.667  0.00  0.00    +0.000 A 
ATOM     23  C   UNL     1       0.775  14.165  19.858  0.00  0.00    +0.000 A 
ENDBRANCH   1  22
TORSDOF 1
ENDMDL
MODEL 9
REMARK VINA RESULT:      -5.6     10.578     13.067
REMARK  Name = 
REMARK  1 active torsions:
REMARK  status: ('A' for Active; 'I' for Inactive)
REMARK    1  A    between atoms: C_4  and  N_5
REMARK                            x       y       z     vdW  Elec       q    Type
REMARK                         _______ _______ _______ _____ _____    ______ ____
ROOT
ATOM      1  N   UNL     1       7.467  13.693  22.047  0.00  0.00    +0.000 NA
ATOM      2  C   UNL     1       8.424  13.298  21.234  0.00  0.00    +0.000 C 
ATOM      3  C   UNL     1       9.331  12.116  21.618  0.00  0.00    +0.000 C 
ATOM      4  C   UNL     1      10.514  11.914  20.709  0.00  0.00    +0.000 C 
ATOM      5  C   UNL     1       9.981  11.914  19.286  0.00  0.00    +0.000 C 
ATOM      6  C   UNL     1       9.521  13.330  18.923  0.00  0.00    +0.000 C 
ATOM      7  C   UNL     1      10.781  14.198  18.679  0.00  0.00    +0.000 C 
ATOM      8  C   UNL     1      10.928  14.729  17.248  0.00  0.00    +0.000 C 
ATOM      9  C   UNL     1      12.246  15.503  17.152  0.00  0.00    +0.000 C 
ATOM     10  C   UNL     1      12.333  16.618  18.208  0.00  0.00    +0.000 C 
ATOM     11  N   UNL     1      12.110  16.085  19.548  0.00  0.00    +0.000 NA
ATOM     12  C   UNL     1      12.297  17.019  20.656  0.00  0.00    +0.000 C 
ATOM     13  C   UNL     1      11.051  17.780  21.144  0.00  0.00    +0.000 C 
ATOM     14  C   UNL     1       9.723  17.012  21.077  0.00  0.00    +0.000 C 
ATOM     15  C   UNL     1       9.607  16.182  19.794  0.00  0.00    +0.000 C 
ATOM     16  C   UNL     1       8.323  15.319  19.746  0.00  0.00    +0.000 C 
ATOM     17  N   UNL     1       8.646  13.903  19.984  0.00  0.00    +0.000 N 
ATOM     18  C   UNL     1      10.876  15.317  19.711  0.00  0.00    +0.000 C 
ENDROOT
BRANCH   1  22
ATOM     19  C   UNL     1       6.742  11.390  24.843  0.00  0.00    +0.000 A 
ATOM     20  C   UNL     1       7.533  12.236  25.580  0.00  0.00    +0.000 A 
ATOM     21  S   UNL     1       8.032  13.599  24.670  0.00  0.00    +0.000 S 
ATOM     22  C   UNL     1       7.270  13.027  23.229  0.00  0.00    +0.000 A 
ATOM     23  C   UNL     1       6.480  11.927  23.550  0.00  0.00    +0.000 A 
ENDBRANCH   1  22
TORSDOF 1
ENDMDL
