MODEL 1
REMARK VINA RESULT:      -9.4      0.000      0.000
REMARK  Name = 
REMARK  9 active torsions:
REMARK  status: ('A' for Active; 'I' for Inactive)
REMARK    1  A    between atoms: C_1  and  C_2
REMARK    2  A    between atoms: C_5  and  C_6
REMARK    3  A    between atoms: C_6  and  N_7
REMARK    4  A    between atoms: N_7  and  C_8
REMARK    5  A    between atoms: C_9  and  C_11
REMARK    6  A    between atoms: C_11  and  C_12
REMARK    7  A    between atoms: C_12  and  C_13
REMARK    8  A    between atoms: C_12  and  C_20
REMARK    9  A    between atoms: C_17  and  O_18
REMARK                            x       y       z     vdW  Elec       q    Type
REMARK                         _______ _______ _______ _____ _____    ______ ____
ROOT
ATOM      1  C   UNL     1       3.101   5.981  18.787  0.00  0.00    +0.000 C 
ENDROOT
BRANCH   1   2
ATOM      2  C   UNL     1       2.334   7.290  19.056  0.00  0.00    +0.000 A 
ATOM      3  C   UNL     1       2.101   8.188  17.998  0.00  0.00    +0.000 A 
ATOM      4  C   UNL     1       1.374   9.368  18.206  0.00  0.00    +0.000 A 
ATOM      5  C   UNL     1       0.867   9.670  19.467  0.00  0.00    +0.000 A 
ATOM      6  C   UNL     1       1.081   8.786  20.521  0.00  0.00    +0.000 A 
ATOM      7 CL   UNL     1       0.447   9.143  22.080  0.00  0.00    +0.000 Cl
ATOM      8  C   UNL     1       1.803   7.605  20.319  0.00  0.00    +0.000 A 
ENDBRANCH   1   2
BRANCH   1   9
ATOM      9  C   UNL     1       2.365   4.791  19.402  0.00  0.00    +0.000 A 
ATOM     10  C   UNL     1       2.413   4.576  20.789  0.00  0.00    +0.000 A 
ATOM     11  C   UNL     1       1.740   3.496  21.368  0.00  0.00    +0.000 A 
ATOM     12  C   UNL     1       1.013   2.613  20.572  0.00  0.00    +0.000 A 
ATOM     13  C   UNL     1       0.972   2.816  19.198  0.00  0.00    +0.000 A 
ATOM     14  C   UNL     1       1.639   3.887  18.612  0.00  0.00    +0.000 A 
BRANCH  13  15
ATOM     15  O   UNL     1       0.272   1.982  18.376  0.00  0.00    +0.000 OA
ATOM     16  H   UNL     1       0.411   1.069  18.675  0.00  0.00    +0.000 HD
ENDBRANCH  13  15
ENDBRANCH   1   9
BRANCH   1  17
ATOM     17  C   UNL     1       4.576   6.072  19.238  0.00  0.00    +0.000 C 
BRANCH  17  20
ATOM     18  N   UNL     1       6.149   5.499  17.419  0.00  0.00    +0.000 N 
ATOM     19  C   UNL     1       5.745   6.705  16.707  0.00  0.00    +0.000 C 
ATOM     20  C   UNL     1       5.548   5.077  18.606  0.00  0.00    +0.000 C 
ATOM     21  O   UNL     1       5.768   3.965  19.085  0.00  0.00    +0.000 OA
BRANCH  18  22
ATOM     22  C   UNL     1       7.239   4.711  16.834  0.00  0.00    +0.000 C 
BRANCH  22  27
ATOM     23  C   UNL     1       5.429   3.353  12.429  0.00  0.00    +0.000 C 
ATOM     24  C   UNL     1       6.331   3.997  13.411  0.00  0.00    +0.000 A 
ATOM     25  C   UNL     1       7.297   4.962  13.200  0.00  0.00    +0.000 A 
ATOM     26  N   UNL     1       7.765   5.277  14.447  0.00  0.00    +0.000 N 
ATOM     27  C   UNL     1       7.097   4.505  15.362  0.00  0.00    +0.000 A 
ATOM     28  N   UNL     1       6.245   3.703  14.754  0.00  0.00    +0.000 NA
ATOM     29  H   UNL     1       8.437   6.002  14.679  0.00  0.00    +0.000 HD
ENDBRANCH  22  27
ENDBRANCH  18  22
ENDBRANCH  17  20
ENDBRANCH   1  17
TORSDOF 7
ENDMDL
MODEL 2
REMARK VINA RESULT:      -9.2      3.797      7.571
REMARK  Name = 
REMARK  9 active torsions:
REMARK  status: ('A' for Active; 'I' for Inactive)
REMARK    1  A    between atoms: C_1  and  C_2
REMARK    2  A    between atoms: C_5  and  C_6
REMARK    3  A    between atoms: C_6  and  N_7
REMARK    4  A    between atoms: N_7  and  C_8
REMARK    5  A    between atoms: C_9  and  C_11
REMARK    6  A    between atoms: C_11  and  C_12
REMARK    7  A    between atoms: C_12  and  C_13
REMARK    8  A    between atoms: C_12  and  C_20
REMARK    9  A    between atoms: C_17  and  O_18
REMARK                            x       y       z     vdW  Elec       q    Type
REMARK                         _______ _______ _______ _____ _____    ______ ____
ROOT
ATOM      1  C   UNL     1       3.103   6.034  18.169  0.00  0.00    +0.000 C 
ENDROOT
BRANCH   1   2
ATOM      2  C   UNL     1       2.613   4.616  18.522  0.00  0.00    +0.000 A 
ATOM      3  C   UNL     1       2.641   3.607  17.541  0.00  0.00    +0.000 A 
ATOM      4  C   UNL     1       2.236   2.301  17.845  0.00  0.00    +0.000 A 
ATOM      5  C   UNL     1       1.802   1.978  19.128  0.00  0.00    +0.000 A 
ATOM      6  C   UNL     1       1.778   2.962  20.111  0.00  0.00    +0.000 A 
ATOM      7 CL   UNL     1       1.256   2.572  21.703  0.00  0.00    +0.000 Cl
ATOM      8  C   UNL     1       2.184   4.268  19.815  0.00  0.00    +0.000 A 
ENDBRANCH   1   2
BRANCH   1   9
ATOM      9  C   UNL     1       4.629   6.073  18.105  0.00  0.00    +0.000 A 
ATOM     10  C   UNL     1       5.272   6.592  16.969  0.00  0.00    +0.000 A 
ATOM     11  C   UNL     1       6.667   6.641  16.897  0.00  0.00    +0.000 A 
ATOM     12  C   UNL     1       7.443   6.171  17.956  0.00  0.00    +0.000 A 
ATOM     13  C   UNL     1       6.811   5.648  19.077  0.00  0.00    +0.000 A 
ATOM     14  C   UNL     1       5.423   5.593  19.158  0.00  0.00    +0.000 A 
BRANCH  13  15
ATOM     15  O   UNL     1       7.523   5.177  20.141  0.00  0.00    +0.000 OA
ATOM     16  H   UNL     1       7.362   4.223  20.220  0.00  0.00    +0.000 HD
ENDBRANCH  13  15
ENDBRANCH   1   9
BRANCH   1  17
ATOM     17  C   UNL     1       2.515   7.101  19.118  0.00  0.00    +0.000 C 
BRANCH  17  20
ATOM     18  N   UNL     1       1.416   9.306  19.326  0.00  0.00    +0.000 N 
ATOM     19  C   UNL     1       0.953   8.935  20.658  0.00  0.00    +0.000 C 
ATOM     20  C   UNL     1       2.094   8.426  18.481  0.00  0.00    +0.000 C 
ATOM     21  O   UNL     1       2.303   8.693  17.299  0.00  0.00    +0.000 OA
BRANCH  18  22
ATOM     22  C   UNL     1       1.139  10.675  18.881  0.00  0.00    +0.000 C 
BRANCH  22  27
ATOM     23  C   UNL     1      -3.539   9.949  17.427  0.00  0.00    +0.000 C 
ATOM     24  C   UNL     1      -2.365  10.644  18.003  0.00  0.00    +0.000 A 
ATOM     25  C   UNL     1      -2.326  11.794  18.769  0.00  0.00    +0.000 A 
ATOM     26  N   UNL     1      -1.011  11.944  19.120  0.00  0.00    +0.000 N 
ATOM     27  C   UNL     1      -0.299  10.916  18.561  0.00  0.00    +0.000 A 
ATOM     28  N   UNL     1      -1.094  10.133  17.857  0.00  0.00    +0.000 NA
ATOM     29  H   UNL     1      -0.625  12.649  19.741  0.00  0.00    +0.000 HD
ENDBRANCH  22  27
ENDBRANCH  18  22
ENDBRANCH  17  20
ENDBRANCH   1  17
TORSDOF 7
ENDMDL
MODEL 3
REMARK VINA RESULT:      -9.0      3.732      7.459
REMARK  Name = 
REMARK  9 active torsions:
REMARK  status: ('A' for Active; 'I' for Inactive)
REMARK    1  A    between atoms: C_1  and  C_2
REMARK    2  A    between atoms: C_5  and  C_6
REMARK    3  A    between atoms: C_6  and  N_7
REMARK    4  A    between atoms: N_7  and  C_8
REMARK    5  A    between atoms: C_9  and  C_11
REMARK    6  A    between atoms: C_11  and  C_12
REMARK    7  A    between atoms: C_12  and  C_13
REMARK    8  A    between atoms: C_12  and  C_20
REMARK    9  A    between atoms: C_17  and  O_18
REMARK                            x       y       z     vdW  Elec       q    Type
REMARK                         _______ _______ _______ _____ _____    ______ ____
ROOT
ATOM      1  C   UNL     1       3.199   5.892  18.146  0.00  0.00    +0.000 C 
ENDROOT
BRANCH   1   2
ATOM      2  C   UNL     1       2.610   4.520  18.526  0.00  0.00    +0.000 A 
ATOM      3  C   UNL     1       2.512   3.512  17.548  0.00  0.00    +0.000 A 
ATOM      4  C   UNL     1       2.016   2.243  17.874  0.00  0.00    +0.000 A 
ATOM      5  C   UNL     1       1.613   1.957  19.176  0.00  0.00    +0.000 A 
ATOM      6  C   UNL     1       1.713   2.941  20.155  0.00  0.00    +0.000 A 
ATOM      7 CL   UNL     1       1.229   2.594  21.770  0.00  0.00    +0.000 Cl
ATOM      8  C   UNL     1       2.210   4.208  19.837  0.00  0.00    +0.000 A 
ENDBRANCH   1   2
BRANCH   1   9
ATOM      9  C   UNL     1       4.723   5.820  18.069  0.00  0.00    +0.000 A 
ATOM     10  C   UNL     1       5.478   5.623  19.237  0.00  0.00    +0.000 A 
ATOM     11  C   UNL     1       6.873   5.549  19.182  0.00  0.00    +0.000 A 
ATOM     12  C   UNL     1       7.536   5.672  17.963  0.00  0.00    +0.000 A 
ATOM     13  C   UNL     1       6.794   5.877  16.806  0.00  0.00    +0.000 A 
ATOM     14  C   UNL     1       5.405   5.955  16.849  0.00  0.00    +0.000 A 
BRANCH  13  15
ATOM     15  O   UNL     1       7.394   6.003  15.587  0.00  0.00    +0.000 OA
ATOM     16  H   UNL     1       6.902   5.463  14.947  0.00  0.00    +0.000 HD
ENDBRANCH  13  15
ENDBRANCH   1   9
BRANCH   1  17
ATOM     17  C   UNL     1       2.698   7.014  19.083  0.00  0.00    +0.000 C 
BRANCH  17  20
ATOM     18  N   UNL     1       1.541   9.194  19.237  0.00  0.00    +0.000 N 
ATOM     19  C   UNL     1       1.079   8.839  20.573  0.00  0.00    +0.000 C 
ATOM     20  C   UNL     1       2.247   8.313  18.415  0.00  0.00    +0.000 C 
ATOM     21  O   UNL     1       2.458   8.561  17.228  0.00  0.00    +0.000 OA
BRANCH  18  22
ATOM     22  C   UNL     1       1.231  10.545  18.760  0.00  0.00    +0.000 C 
BRANCH  22  27
ATOM     23  C   UNL     1      -3.481   9.787  17.438  0.00  0.00    +0.000 C 
ATOM     24  C   UNL     1      -2.302  10.476  18.012  0.00  0.00    +0.000 A 
ATOM     25  C   UNL     1      -2.261  11.579  18.844  0.00  0.00    +0.000 A 
ATOM     26  N   UNL     1      -0.938  11.742  19.155  0.00  0.00    +0.000 N 
ATOM     27  C   UNL     1      -0.223  10.767  18.509  0.00  0.00    +0.000 A 
ATOM     28  N   UNL     1      -1.026  10.008  17.789  0.00  0.00    +0.000 NA
ATOM     29  H   UNL     1      -0.544  12.417  19.803  0.00  0.00    +0.000 HD
ENDBRANCH  22  27
ENDBRANCH  18  22
ENDBRANCH  17  20
ENDBRANCH   1  17
TORSDOF 7
ENDMDL
MODEL 4
REMARK VINA RESULT:      -9.0      3.820      7.564
REMARK  Name = 
REMARK  9 active torsions:
REMARK  status: ('A' for Active; 'I' for Inactive)
REMARK    1  A    between atoms: C_1  and  C_2
REMARK    2  A    between atoms: C_5  and  C_6
REMARK    3  A    between atoms: C_6  and  N_7
REMARK    4  A    between atoms: N_7  and  C_8
REMARK    5  A    between atoms: C_9  and  C_11
REMARK    6  A    between atoms: C_11  and  C_12
REMARK    7  A    between atoms: C_12  and  C_13
REMARK    8  A    between atoms: C_12  and  C_20
REMARK    9  A    between atoms: C_17  and  O_18
REMARK                            x       y       z     vdW  Elec       q    Type
REMARK                         _______ _______ _______ _____ _____    ______ ____
ROOT
ATOM      1  C   UNL     1       2.821   6.155  17.921  0.00  0.00    +0.000 C 
ENDROOT
BRANCH   1   2
ATOM      2  C   UNL     1       2.206   4.909  18.587  0.00  0.00    +0.000 A 
ATOM      3  C   UNL     1       1.426   4.024  17.820  0.00  0.00    +0.000 A 
ATOM      4  C   UNL     1       0.886   2.864  18.391  0.00  0.00    +0.000 A 
ATOM      5  C   UNL     1       1.116   2.566  19.731  0.00  0.00    +0.000 A 
ATOM      6  C   UNL     1       1.894   3.426  20.500  0.00  0.00    +0.000 A 
ATOM      7 CL   UNL     1       2.196   3.061  22.154  0.00  0.00    +0.000 Cl
ATOM      8  C   UNL     1       2.438   4.584  19.935  0.00  0.00    +0.000 A 
ENDBRANCH   1   2
BRANCH   1   9
ATOM      9  C   UNL     1       4.214   5.841  17.378  0.00  0.00    +0.000 A 
ATOM     10  C   UNL     1       4.488   4.575  16.834  0.00  0.00    +0.000 A 
ATOM     11  C   UNL     1       5.756   4.274  16.328  0.00  0.00    +0.000 A 
ATOM     12  C   UNL     1       6.770   5.230  16.359  0.00  0.00    +0.000 A 
ATOM     13  C   UNL     1       6.506   6.480  16.905  0.00  0.00    +0.000 A 
ATOM     14  C   UNL     1       5.248   6.789  17.413  0.00  0.00    +0.000 A 
BRANCH  13  15
ATOM     15  O   UNL     1       7.463   7.451  16.958  0.00  0.00    +0.000 OA
ATOM     16  H   UNL     1       8.099   7.218  17.653  0.00  0.00    +0.000 HD
ENDBRANCH  13  15
ENDBRANCH   1   9
BRANCH   1  17
ATOM     17  C   UNL     1       2.805   7.380  18.861  0.00  0.00    +0.000 C 
BRANCH  17  20
ATOM     18  N   UNL     1       1.313   9.301  19.308  0.00  0.00    +0.000 N 
ATOM     19  C   UNL     1       1.052   8.771  20.641  0.00  0.00    +0.000 C 
ATOM     20  C   UNL     1       2.075   8.624  18.355  0.00  0.00    +0.000 C 
ATOM     21  O   UNL     1       2.123   8.992  17.181  0.00  0.00    +0.000 OA
BRANCH  18  22
ATOM     22  C   UNL     1       0.732  10.607  18.983  0.00  0.00    +0.000 C 
BRANCH  22  27
ATOM     23  C   UNL     1      -4.084  11.535  18.301  0.00  0.00    +0.000 C 
ATOM     24  C   UNL     1      -2.753  10.921  18.089  0.00  0.00    +0.000 A 
ATOM     25  C   UNL     1      -2.304  10.172  17.017  0.00  0.00    +0.000 A 
ATOM     26  N   UNL     1      -0.980   9.938  17.277  0.00  0.00    +0.000 N 
ATOM     27  C   UNL     1      -0.670  10.523  18.477  0.00  0.00    +0.000 A 
ATOM     28  N   UNL     1      -1.735  11.099  18.999  0.00  0.00    +0.000 NA
ATOM     29  H   UNL     1      -0.315   9.474  16.667  0.00  0.00    +0.000 HD
ENDBRANCH  22  27
ENDBRANCH  18  22
ENDBRANCH  17  20
ENDBRANCH   1  17
TORSDOF 7
ENDMDL
MODEL 5
REMARK VINA RESULT:      -9.0      1.226      1.789
REMARK  Name = 
REMARK  9 active torsions:
REMARK  status: ('A' for Active; 'I' for Inactive)
REMARK    1  A    between atoms: C_1  and  C_2
REMARK    2  A    between atoms: C_5  and  C_6
REMARK    3  A    between atoms: C_6  and  N_7
REMARK    4  A    between atoms: N_7  and  C_8
REMARK    5  A    between atoms: C_9  and  C_11
REMARK    6  A    between atoms: C_11  and  C_12
REMARK    7  A    between atoms: C_12  and  C_13
REMARK    8  A    between atoms: C_12  and  C_20
REMARK    9  A    between atoms: C_17  and  O_18
REMARK                            x       y       z     vdW  Elec       q    Type
REMARK                         _______ _______ _______ _____ _____    ______ ____
ROOT
ATOM      1  C   UNL     1       3.014   6.015  18.935  0.00  0.00    +0.000 C 
ENDROOT
BRANCH   1   2
ATOM      2  C   UNL     1       2.218   7.233  19.443  0.00  0.00    +0.000 A 
ATOM      3  C   UNL     1       1.683   7.219  20.745  0.00  0.00    +0.000 A 
ATOM      4  C   UNL     1       0.987   8.327  21.246  0.00  0.00    +0.000 A 
ATOM      5  C   UNL     1       0.816   9.465  20.462  0.00  0.00    +0.000 A 
ATOM      6  C   UNL     1       1.347   9.497  19.176  0.00  0.00    +0.000 A 
ATOM      7 CL   UNL     1       1.152  10.903  18.203  0.00  0.00    +0.000 Cl
ATOM      8  C   UNL     1       2.045   8.395  18.671  0.00  0.00    +0.000 A 
ENDBRANCH   1   2
BRANCH   1   9
ATOM      9  C   UNL     1       2.285   4.717  19.278  0.00  0.00    +0.000 A 
ATOM     10  C   UNL     1       1.598   4.011  18.276  0.00  0.00    +0.000 A 
ATOM     11  C   UNL     1       0.931   2.818  18.572  0.00  0.00    +0.000 A 
ATOM     12  C   UNL     1       0.936   2.314  19.871  0.00  0.00    +0.000 A 
ATOM     13  C   UNL     1       1.606   3.014  20.867  0.00  0.00    +0.000 A 
ATOM     14  C   UNL     1       2.271   4.203  20.584  0.00  0.00    +0.000 A 
BRANCH  13  15
ATOM     15  O   UNL     1       1.643   2.562  22.153  0.00  0.00    +0.000 OA
ATOM     16  H   UNL     1       0.739   2.333  22.424  0.00  0.00    +0.000 HD
ENDBRANCH  13  15
ENDBRANCH   1   9
BRANCH   1  17
ATOM     17  C   UNL     1       4.476   6.032  19.434  0.00  0.00    +0.000 C 
BRANCH  17  20
ATOM     18  N   UNL     1       6.113   5.498  17.661  0.00  0.00    +0.000 N 
ATOM     19  C   UNL     1       5.804   6.766  17.011  0.00  0.00    +0.000 C 
ATOM     20  C   UNL     1       5.432   5.031  18.786  0.00  0.00    +0.000 C 
ATOM     21  O   UNL     1       5.574   3.881  19.201  0.00  0.00    +0.000 OA
BRANCH  18  22
ATOM     22  C   UNL     1       7.194   4.695  17.079  0.00  0.00    +0.000 C 
BRANCH  22  27
ATOM     23  C   UNL     1       5.409   3.398  12.645  0.00  0.00    +0.000 C 
ATOM     24  C   UNL     1       6.308   4.024  13.642  0.00  0.00    +0.000 A 
ATOM     25  C   UNL     1       7.285   4.982  13.448  0.00  0.00    +0.000 A 
ATOM     26  N   UNL     1       7.745   5.281  14.703  0.00  0.00    +0.000 N 
ATOM     27  C   UNL     1       7.063   4.506  15.604  0.00  0.00    +0.000 A 
ATOM     28  N   UNL     1       6.209   3.717  14.980  0.00  0.00    +0.000 NA
ATOM     29  H   UNL     1       8.422   5.996  14.947  0.00  0.00    +0.000 HD
ENDBRANCH  22  27
ENDBRANCH  18  22
ENDBRANCH  17  20
ENDBRANCH   1  17
TORSDOF 7
ENDMDL
MODEL 6
REMARK VINA RESULT:      -9.0      2.264      4.089
REMARK  Name = 
REMARK  9 active torsions:
REMARK  status: ('A' for Active; 'I' for Inactive)
REMARK    1  A    between atoms: C_1  and  C_2
REMARK    2  A    between atoms: C_5  and  C_6
REMARK    3  A    between atoms: C_6  and  N_7
REMARK    4  A    between atoms: N_7  and  C_8
REMARK    5  A    between atoms: C_9  and  C_11
REMARK    6  A    between atoms: C_11  and  C_12
REMARK    7  A    between atoms: C_12  and  C_13
REMARK    8  A    between atoms: C_12  and  C_20
REMARK    9  A    between atoms: C_17  and  O_18
REMARK                            x       y       z     vdW  Elec       q    Type
REMARK                         _______ _______ _______ _____ _____    ______ ____
ROOT
ATOM      1  C   UNL     1       2.990   6.594  19.301  0.00  0.00    +0.000 C 
ENDROOT
BRANCH   1   2
ATOM      2  C   UNL     1       2.263   5.236  19.352  0.00  0.00    +0.000 A 
ATOM      3  C   UNL     1       1.762   4.672  18.164  0.00  0.00    +0.000 A 
ATOM      4  C   UNL     1       1.129   3.422  18.175  0.00  0.00    +0.000 A 
ATOM      5  C   UNL     1       0.989   2.714  19.366  0.00  0.00    +0.000 A 
ATOM      6  C   UNL     1       1.489   3.254  20.547  0.00  0.00    +0.000 A 
ATOM      7 CL   UNL     1       1.333   2.382  22.022  0.00  0.00    +0.000 Cl
ATOM      8  C   UNL     1       2.124   4.500  20.542  0.00  0.00    +0.000 A 
ENDBRANCH   1   2
BRANCH   1   9
ATOM      9  C   UNL     1       2.020   7.734  19.604  0.00  0.00    +0.000 A 
ATOM     10  C   UNL     1       1.418   7.827  20.870  0.00  0.00    +0.000 A 
ATOM     11  C   UNL     1       0.533   8.867  21.166  0.00  0.00    +0.000 A 
ATOM     12  C   UNL     1       0.232   9.829  20.203  0.00  0.00    +0.000 A 
ATOM     13  C   UNL     1       0.817   9.735  18.946  0.00  0.00    +0.000 A 
ATOM     14  C   UNL     1       1.698   8.703  18.641  0.00  0.00    +0.000 A 
BRANCH  13  15
ATOM     15  O   UNL     1       0.558  10.652  17.969  0.00  0.00    +0.000 OA
ATOM     16  H   UNL     1       1.360  11.179  17.824  0.00  0.00    +0.000 HD
ENDBRANCH  13  15
ENDBRANCH   1   9
BRANCH   1  17
ATOM     17  C   UNL     1       3.752   6.791  17.971  0.00  0.00    +0.000 C 
BRANCH  17  20
ATOM     18  N   UNL     1       5.580   6.031  16.490  0.00  0.00    +0.000 N 
ATOM     19  C   UNL     1       5.008   6.816  15.403  0.00  0.00    +0.000 C 
ATOM     20  C   UNL     1       4.965   5.892  17.736  0.00  0.00    +0.000 C 
ATOM     21  O   UNL     1       5.360   5.076  18.568  0.00  0.00    +0.000 OA
BRANCH  18  22
ATOM     22  C   UNL     1       6.860   5.364  16.231  0.00  0.00    +0.000 C 
BRANCH  22  27
ATOM     23  C   UNL     1       5.854   2.951  12.025  0.00  0.00    +0.000 C 
ATOM     24  C   UNL     1       6.565   3.847  12.967  0.00  0.00    +0.000 A 
ATOM     25  C   UNL     1       7.540   4.789  12.699  0.00  0.00    +0.000 A 
ATOM     26  N   UNL     1       7.781   5.403  13.899  0.00  0.00    +0.000 N 
ATOM     27  C   UNL     1       6.977   4.823  14.845  0.00  0.00    +0.000 A 
ATOM     28  N   UNL     1       6.253   3.860  14.308  0.00  0.00    +0.000 NA
ATOM     29  H   UNL     1       8.394   6.195  14.063  0.00  0.00    +0.000 HD
ENDBRANCH  22  27
ENDBRANCH  18  22
ENDBRANCH  17  20
ENDBRANCH   1  17
TORSDOF 7
ENDMDL
MODEL 7
REMARK VINA RESULT:      -8.9      0.832      1.223
REMARK  Name = 
REMARK  9 active torsions:
REMARK  status: ('A' for Active; 'I' for Inactive)
REMARK    1  A    between atoms: C_1  and  C_2
REMARK    2  A    between atoms: C_5  and  C_6
REMARK    3  A    between atoms: C_6  and  N_7
REMARK    4  A    between atoms: N_7  and  C_8
REMARK    5  A    between atoms: C_9  and  C_11
REMARK    6  A    between atoms: C_11  and  C_12
REMARK    7  A    between atoms: C_12  and  C_13
REMARK    8  A    between atoms: C_12  and  C_20
REMARK    9  A    between atoms: C_17  and  O_18
REMARK                            x       y       z     vdW  Elec       q    Type
REMARK                         _______ _______ _______ _____ _____    ______ ____
ROOT
ATOM      1  C   UNL     1       2.798   6.117  18.316  0.00  0.00    +0.000 C 
ENDROOT
BRANCH   1   2
ATOM      2  C   UNL     1       2.180   7.445  18.794  0.00  0.00    +0.000 A 
ATOM      3  C   UNL     1       1.919   8.466  17.861  0.00  0.00    +0.000 A 
ATOM      4  C   UNL     1       1.323   9.668  18.262  0.00  0.00    +0.000 A 
ATOM      5  C   UNL     1       0.976   9.873  19.594  0.00  0.00    +0.000 A 
ATOM      6  C   UNL     1       1.219   8.869  20.527  0.00  0.00    +0.000 A 
ATOM      7 CL   UNL     1       0.781   9.105  22.174  0.00  0.00    +0.000 Cl
ATOM      8  C   UNL     1       1.810   7.665  20.133  0.00  0.00    +0.000 A 
ENDBRANCH   1   2
BRANCH   1   9
ATOM      9  C   UNL     1       2.205   4.940  19.088  0.00  0.00    +0.000 A 
ATOM     10  C   UNL     1       2.377   4.854  20.480  0.00  0.00    +0.000 A 
ATOM     11  C   UNL     1       1.835   3.786  21.202  0.00  0.00    +0.000 A 
ATOM     12  C   UNL     1       1.118   2.787  20.547  0.00  0.00    +0.000 A 
ATOM     13  C   UNL     1       0.955   2.862  19.169  0.00  0.00    +0.000 A 
ATOM     14  C   UNL     1       1.491   3.920  18.441  0.00  0.00    +0.000 A 
BRANCH  13  15
ATOM     15  O   UNL     1       0.259   1.912  18.481  0.00  0.00    +0.000 OA
ATOM     16  H   UNL     1      -0.173   2.337  17.723  0.00  0.00    +0.000 HD
ENDBRANCH  13  15
ENDBRANCH   1   9
BRANCH   1  17
ATOM     17  C   UNL     1       4.342   6.149  18.363  0.00  0.00    +0.000 C 
BRANCH  17  20
ATOM     18  N   UNL     1       6.455   5.436  17.295  0.00  0.00    +0.000 N 
ATOM     19  C   UNL     1       7.138   6.558  17.927  0.00  0.00    +0.000 C 
ATOM     20  C   UNL     1       5.076   5.235  17.382  0.00  0.00    +0.000 C 
ATOM     21  O   UNL     1       4.497   4.400  16.689  0.00  0.00    +0.000 OA
BRANCH  18  22
ATOM     22  C   UNL     1       7.282   4.492  16.537  0.00  0.00    +0.000 C 
BRANCH  22  27
ATOM     23  C   UNL     1       7.794   5.601  11.738  0.00  0.00    +0.000 C 
ATOM     24  C   UNL     1       7.260   4.946  12.954  0.00  0.00    +0.000 A 
ATOM     25  C   UNL     1       6.447   3.831  13.053  0.00  0.00    +0.000 A 
ATOM     26  N   UNL     1       6.335   3.592  14.396  0.00  0.00    +0.000 N 
ATOM     27  C   UNL     1       7.050   4.551  15.064  0.00  0.00    +0.000 A 
ATOM     28  N   UNL     1       7.595   5.397  14.211  0.00  0.00    +0.000 NA
ATOM     29  H   UNL     1       5.864   2.807  14.836  0.00  0.00    +0.000 HD
ENDBRANCH  22  27
ENDBRANCH  18  22
ENDBRANCH  17  20
ENDBRANCH   1  17
TORSDOF 7
ENDMDL
MODEL 8
REMARK VINA RESULT:      -8.9      3.817      7.481
REMARK  Name = 
REMARK  9 active torsions:
REMARK  status: ('A' for Active; 'I' for Inactive)
REMARK    1  A    between atoms: C_1  and  C_2
REMARK    2  A    between atoms: C_5  and  C_6
REMARK    3  A    between atoms: C_6  and  N_7
REMARK    4  A    between atoms: N_7  and  C_8
REMARK    5  A    between atoms: C_9  and  C_11
REMARK    6  A    between atoms: C_11  and  C_12
REMARK    7  A    between atoms: C_12  and  C_13
REMARK    8  A    between atoms: C_12  and  C_20
REMARK    9  A    between atoms: C_17  and  O_18
REMARK                            x       y       z     vdW  Elec       q    Type
REMARK                         _______ _______ _______ _____ _____    ______ ____
ROOT
ATOM      1  C   UNL     1       2.755   6.200  17.965  0.00  0.00    +0.000 C 
ENDROOT
BRANCH   1   2
ATOM      2  C   UNL     1       2.175   4.929  18.616  0.00  0.00    +0.000 A 
ATOM      3  C   UNL     1       1.438   4.022  17.833  0.00  0.00    +0.000 A 
ATOM      4  C   UNL     1       0.931   2.840  18.390  0.00  0.00    +0.000 A 
ATOM      5  C   UNL     1       1.151   2.544  19.733  0.00  0.00    +0.000 A 
ATOM      6  C   UNL     1       1.885   3.427  20.518  0.00  0.00    +0.000 A 
ATOM      7 CL   UNL     1       2.174   3.064  22.174  0.00  0.00    +0.000 Cl
ATOM      8  C   UNL     1       2.397   4.606  19.966  0.00  0.00    +0.000 A 
ENDBRANCH   1   2
BRANCH   1   9
ATOM      9  C   UNL     1       4.159   5.933  17.425  0.00  0.00    +0.000 A 
ATOM     10  C   UNL     1       5.138   6.937  17.486  0.00  0.00    +0.000 A 
ATOM     11  C   UNL     1       6.430   6.707  17.002  0.00  0.00    +0.000 A 
ATOM     12  C   UNL     1       6.762   5.472  16.447  0.00  0.00    +0.000 A 
ATOM     13  C   UNL     1       5.793   4.479  16.374  0.00  0.00    +0.000 A 
ATOM     14  C   UNL     1       4.505   4.699  16.852  0.00  0.00    +0.000 A 
BRANCH  13  15
ATOM     15  O   UNL     1       6.067   3.254  15.842  0.00  0.00    +0.000 OA
ATOM     16  H   UNL     1       6.566   3.382  15.019  0.00  0.00    +0.000 HD
ENDBRANCH  13  15
ENDBRANCH   1   9
BRANCH   1  17
ATOM     17  C   UNL     1       2.699   7.414  18.918  0.00  0.00    +0.000 C 
BRANCH  17  20
ATOM     18  N   UNL     1       1.228   9.355  19.344  0.00  0.00    +0.000 N 
ATOM     19  C   UNL     1       0.957   8.840  20.680  0.00  0.00    +0.000 C 
ATOM     20  C   UNL     1       1.985   8.661  18.398  0.00  0.00    +0.000 C 
ATOM     21  O   UNL     1       2.041   9.019  17.222  0.00  0.00    +0.000 OA
BRANCH  18  22
ATOM     22  C   UNL     1       0.663  10.665  19.005  0.00  0.00    +0.000 C 
BRANCH  22  27
ATOM     23  C   UNL     1      -4.152  11.610  18.332  0.00  0.00    +0.000 C 
ATOM     24  C   UNL     1      -2.821  10.999  18.110  0.00  0.00    +0.000 A 
ATOM     25  C   UNL     1      -2.370  10.272  17.024  0.00  0.00    +0.000 A 
ATOM     26  N   UNL     1      -1.047  10.032  17.282  0.00  0.00    +0.000 N 
ATOM     27  C   UNL     1      -0.738  10.592  18.494  0.00  0.00    +0.000 A 
ATOM     28  N   UNL     1      -1.805  11.158  19.025  0.00  0.00    +0.000 NA
ATOM     29  H   UNL     1      -0.380   9.580  16.664  0.00  0.00    +0.000 HD
ENDBRANCH  22  27
ENDBRANCH  18  22
ENDBRANCH  17  20
ENDBRANCH   1  17
TORSDOF 7
ENDMDL
MODEL 9
REMARK VINA RESULT:      -8.9      1.245      1.792
REMARK  Name = 
REMARK  9 active torsions:
REMARK  status: ('A' for Active; 'I' for Inactive)
REMARK    1  A    between atoms: C_1  and  C_2
REMARK    2  A    between atoms: C_5  and  C_6
REMARK    3  A    between atoms: C_6  and  N_7
REMARK    4  A    between atoms: N_7  and  C_8
REMARK    5  A    between atoms: C_9  and  C_11
REMARK    6  A    between atoms: C_11  and  C_12
REMARK    7  A    between atoms: C_12  and  C_13
REMARK    8  A    between atoms: C_12  and  C_20
REMARK    9  A    between atoms: C_17  and  O_18
REMARK                            x       y       z     vdW  Elec       q    Type
REMARK                         _______ _______ _______ _____ _____    ______ ____
ROOT
ATOM      1  C   UNL     1       2.775   6.169  18.246  0.00  0.00    +0.000 C 
ENDROOT
BRANCH   1   2
ATOM      2  C   UNL     1       2.151   7.470  18.784  0.00  0.00    +0.000 A 
ATOM      3  C   UNL     1       1.830   8.508  17.890  0.00  0.00    +0.000 A 
ATOM      4  C   UNL     1       1.227   9.688  18.346  0.00  0.00    +0.000 A 
ATOM      5  C   UNL     1       0.932   9.851  19.697  0.00  0.00    +0.000 A 
ATOM      6  C   UNL     1       1.234   8.829  20.592  0.00  0.00    +0.000 A 
ATOM      7 CL   UNL     1       0.862   9.015  22.262  0.00  0.00    +0.000 Cl
ATOM      8  C   UNL     1       1.833   7.648  20.142  0.00  0.00    +0.000 A 
ENDBRANCH   1   2
BRANCH   1   9
ATOM      9  C   UNL     1       2.191   4.955  18.967  0.00  0.00    +0.000 A 
ATOM     10  C   UNL     1       1.345   4.069  18.279  0.00  0.00    +0.000 A 
ATOM     11  C   UNL     1       0.807   2.950  18.921  0.00  0.00    +0.000 A 
ATOM     12  C   UNL     1       1.101   2.700  20.261  0.00  0.00    +0.000 A 
ATOM     13  C   UNL     1       1.928   3.580  20.948  0.00  0.00    +0.000 A 
ATOM     14  C   UNL     1       2.468   4.697  20.318  0.00  0.00    +0.000 A 
BRANCH  13  15
ATOM     15  O   UNL     1       2.249   3.380  22.259  0.00  0.00    +0.000 OA
ATOM     16  H   UNL     1       1.882   4.113  22.780  0.00  0.00    +0.000 HD
ENDBRANCH  13  15
ENDBRANCH   1   9
BRANCH   1  17
ATOM     17  C   UNL     1       4.319   6.207  18.291  0.00  0.00    +0.000 C 
BRANCH  17  20
ATOM     18  N   UNL     1       6.444   5.432  17.294  0.00  0.00    +0.000 N 
ATOM     19  C   UNL     1       7.145   6.509  17.983  0.00  0.00    +0.000 C 
ATOM     20  C   UNL     1       5.056   5.288  17.318  0.00  0.00    +0.000 C 
ATOM     21  O   UNL     1       4.473   4.495  16.579  0.00  0.00    +0.000 OA
BRANCH  18  22
ATOM     22  C   UNL     1       7.263   4.474  16.546  0.00  0.00    +0.000 C 
BRANCH  22  27
ATOM     23  C   UNL     1       7.852   5.633  11.767  0.00  0.00    +0.000 C 
ATOM     24  C   UNL     1       7.302   4.960  12.967  0.00  0.00    +0.000 A 
ATOM     25  C   UNL     1       6.501   3.836  13.041  0.00  0.00    +0.000 A 
ATOM     26  N   UNL     1       6.366   3.583  14.379  0.00  0.00    +0.000 N 
ATOM     27  C   UNL     1       7.058   4.544  15.069  0.00  0.00    +0.000 A 
ATOM     28  N   UNL     1       7.609   5.403  14.234  0.00  0.00    +0.000 NA
ATOM     29  H   UNL     1       5.896   2.789  14.803  0.00  0.00    +0.000 HD
ENDBRANCH  22  27
ENDBRANCH  18  22
ENDBRANCH  17  20
ENDBRANCH   1  17
TORSDOF 7
ENDMDL
