MODEL 1
REMARK VINA RESULT:      -7.3      0.000      0.000
REMARK  Name = 
REMARK  7 active torsions:
REMARK  status: ('A' for Active; 'I' for Inactive)
REMARK    1  A    between atoms: C_1  and  C_2
REMARK    2  A    between atoms: C_3  and  N_4
REMARK    3  A    between atoms: N_6  and  C_7
REMARK    4  A    between atoms: C_14  and  C_15
REMARK    5  A    between atoms: C_15  and  O_17
REMARK    6  A    between atoms: N_19  and  C_20
REMARK    7  A    between atoms: C_20  and  C_21
REMARK                            x       y       z     vdW  Elec       q    Type
REMARK                         _______ _______ _______ _____ _____    ______ ____
ROOT
ATOM      1  C   UNL     1       4.632   5.683  17.445  0.00  0.00    +0.000 A 
ATOM      2  C   UNL     1       4.324   6.981  17.013  0.00  0.00    +0.000 A 
ATOM      3  F   UNL     1       4.913   7.510  15.929  0.00  0.00    +0.000 F 
ATOM      4  C   UNL     1       3.392   7.775  17.659  0.00  0.00    +0.000 A 
ATOM      5  C   UNL     1       2.738   7.299  18.800  0.00  0.00    +0.000 A 
ATOM      6  C   UNL     1       1.770   8.231  19.432  0.00  0.00    +0.000 A 
ATOM      7  O   UNL     1       1.532   9.343  18.961  0.00  0.00    +0.000 OA
ATOM      8  C   UNL     1       1.089   7.803  20.656  0.00  0.00    +0.000 A 
ATOM      9  C   UNL     1       1.383   6.576  21.095  0.00  0.00    +0.000 A 
ATOM     10  N   UNL     1       2.272   5.657  20.543  0.00  0.00    +0.000 N 
ATOM     11  C   UNL     1       2.991   6.008  19.343  0.00  0.00    +0.000 A 
ATOM     12  C   UNL     1       3.957   5.209  18.624  0.00  0.00    +0.000 A 
ATOM     13 CL   UNL     1       4.441   3.628  19.189  0.00  0.00    +0.000 Cl
ENDROOT
BRANCH   1  18
ATOM     14  C   UNL     1       7.800   4.409  17.637  0.00  0.00    +0.000 C 
ATOM     15  C   UNL     1       7.009   5.088  16.527  0.00  0.00    +0.000 C 
ATOM     16  C   UNL     1       6.884   4.261  15.230  0.00  0.00    +0.000 C 
ATOM     17  C   UNL     1       5.457   3.935  15.686  0.00  0.00    +0.000 C 
ATOM     18  N   UNL     1       5.592   4.915  16.725  0.00  0.00    +0.000 N 
BRANCH  16  19
ATOM     19  N   UNL     1       6.831   5.160  14.061  0.00  0.00    +0.000 NA
ATOM     20  H   UNL     1       7.529   4.930  13.350  0.00  0.00    +0.000 HD
ATOM     21  H   UNL     1       6.994   6.139  14.296  0.00  0.00    +0.000 HD
ENDBRANCH  16  19
ENDBRANCH   1  18
BRANCH   8  22
ATOM     22  C   UNL     1       0.126   8.634  21.413  0.00  0.00    +0.000 C 
ATOM     23  O   UNL     1      -0.922   8.202  21.870  0.00  0.00    +0.000 OA
BRANCH  22  24
ATOM     24  O   UNL     1       0.505   9.921  21.578  0.00  0.00    +0.000 OA
ATOM     25  H   UNL     1      -0.129  10.577  21.199  0.00  0.00    +0.000 HD
ENDBRANCH  22  24
ENDBRANCH   8  22
BRANCH  10  26
ATOM     26  C   UNL     1       2.461   4.313  21.158  0.00  0.00    +0.000 C 
BRANCH  26  27
ATOM     27  C   UNL     1       1.379   3.258  20.938  0.00  0.00    +0.000 C 
ATOM     28  F   UNL     1       1.113   2.612  22.104  0.00  0.00    +0.000 F 
ENDBRANCH  26  27
ENDBRANCH  10  26
TORSDOF 6
ENDMDL
MODEL 2
REMARK VINA RESULT:      -6.9      3.830      6.859
REMARK  Name = 
REMARK  7 active torsions:
REMARK  status: ('A' for Active; 'I' for Inactive)
REMARK    1  A    between atoms: C_1  and  C_2
REMARK    2  A    between atoms: C_3  and  N_4
REMARK    3  A    between atoms: N_6  and  C_7
REMARK    4  A    between atoms: C_14  and  C_15
REMARK    5  A    between atoms: C_15  and  O_17
REMARK    6  A    between atoms: N_19  and  C_20
REMARK    7  A    between atoms: C_20  and  C_21
REMARK                            x       y       z     vdW  Elec       q    Type
REMARK                         _______ _______ _______ _____ _____    ______ ____
ROOT
ATOM      1  C   UNL     1       1.486   8.308  19.691  0.00  0.00    +0.000 A 
ATOM      2  C   UNL     1       1.065   7.531  20.781  0.00  0.00    +0.000 A 
ATOM      3  F   UNL     1       0.200   8.016  21.685  0.00  0.00    +0.000 F 
ATOM      4  C   UNL     1       1.495   6.229  20.972  0.00  0.00    +0.000 A 
ATOM      5  C   UNL     1       2.402   5.654  20.077  0.00  0.00    +0.000 A 
ATOM      6  C   UNL     1       2.818   4.259  20.378  0.00  0.00    +0.000 A 
ATOM      7  O   UNL     1       2.366   3.637  21.338  0.00  0.00    +0.000 OA
ATOM      8  C   UNL     1       3.800   3.621  19.499  0.00  0.00    +0.000 A 
ATOM      9  C   UNL     1       4.229   4.352  18.466  0.00  0.00    +0.000 A 
ATOM     10  N   UNL     1       3.871   5.655  18.129  0.00  0.00    +0.000 N 
ATOM     11  C   UNL     1       2.917   6.357  18.952  0.00  0.00    +0.000 A 
ATOM     12  C   UNL     1       2.424   7.705  18.783  0.00  0.00    +0.000 A 
ATOM     13 CL   UNL     1       3.002   8.737  17.497  0.00  0.00    +0.000 Cl
ENDROOT
BRANCH   1  18
ATOM     14  C   UNL     1      -1.252  10.106  18.710  0.00  0.00    +0.000 C 
ATOM     15  C   UNL     1       0.246  10.277  18.494  0.00  0.00    +0.000 C 
ATOM     16  C   UNL     1       0.814  11.629  18.974  0.00  0.00    +0.000 C 
ATOM     17  C   UNL     1       1.343  10.868  20.195  0.00  0.00    +0.000 C 
ATOM     18  N   UNL     1       0.993   9.636  19.548  0.00  0.00    +0.000 N 
BRANCH  16  19
ATOM     19  N   UNL     1       1.946  12.033  18.118  0.00  0.00    +0.000 NA
ATOM     20  H   UNL     1       1.725  12.827  17.514  0.00  0.00    +0.000 HD
ATOM     21  H   UNL     1       2.264  11.294  17.493  0.00  0.00    +0.000 HD
ENDBRANCH  16  19
ENDBRANCH   1  18
BRANCH   8  22
ATOM     22  C   UNL     1       4.332   2.253  19.692  0.00  0.00    +0.000 C 
ATOM     23  O   UNL     1       5.030   1.931  20.642  0.00  0.00    +0.000 OA
BRANCH  22  24
ATOM     24  O   UNL     1       3.971   1.371  18.733  0.00  0.00    +0.000 OA
ATOM     25  H   UNL     1       3.484   0.583  19.077  0.00  0.00    +0.000 HD
ENDBRANCH  22  24
ENDBRANCH   8  22
BRANCH  10  26
ATOM     26  C   UNL     1       4.435   6.313  16.917  0.00  0.00    +0.000 C 
BRANCH  26  27
ATOM     27  C   UNL     1       5.954   6.389  16.775  0.00  0.00    +0.000 C 
ATOM     28  F   UNL     1       6.423   7.516  17.373  0.00  0.00    +0.000 F 
ENDBRANCH  26  27
ENDBRANCH  10  26
TORSDOF 6
ENDMDL
MODEL 3
REMARK VINA RESULT:      -6.8      4.411      7.488
REMARK  Name = 
REMARK  7 active torsions:
REMARK  status: ('A' for Active; 'I' for Inactive)
REMARK    1  A    between atoms: C_1  and  C_2
REMARK    2  A    between atoms: C_3  and  N_4
REMARK    3  A    between atoms: N_6  and  C_7
REMARK    4  A    between atoms: C_14  and  C_15
REMARK    5  A    between atoms: C_15  and  O_17
REMARK    6  A    between atoms: N_19  and  C_20
REMARK    7  A    between atoms: C_20  and  C_21
REMARK                            x       y       z     vdW  Elec       q    Type
REMARK                         _______ _______ _______ _____ _____    ______ ____
ROOT
ATOM      1  C   UNL     1       3.808   3.988  18.322  0.00  0.00    +0.000 A 
ATOM      2  C   UNL     1       3.309   3.401  17.150  0.00  0.00    +0.000 A 
ATOM      3  F   UNL     1       2.172   2.689  17.160  0.00  0.00    +0.000 F 
ATOM      4  C   UNL     1       3.941   3.538  15.926  0.00  0.00    +0.000 A 
ATOM      5  C   UNL     1       5.135   4.261  15.833  0.00  0.00    +0.000 A 
ATOM      6  C   UNL     1       5.746   4.336  14.481  0.00  0.00    +0.000 A 
ATOM      7  O   UNL     1       5.217   3.822  13.496  0.00  0.00    +0.000 OA
ATOM      8  C   UNL     1       7.021   5.042  14.332  0.00  0.00    +0.000 A 
ATOM      9  C   UNL     1       7.523   5.591  15.441  0.00  0.00    +0.000 A 
ATOM     10  N   UNL     1       6.994   5.562  16.729  0.00  0.00    +0.000 N 
ATOM     11  C   UNL     1       5.746   4.876  16.961  0.00  0.00    +0.000 A 
ATOM     12  C   UNL     1       5.040   4.722  18.212  0.00  0.00    +0.000 A 
ATOM     13 CL   UNL     1       5.682   5.351  19.711  0.00  0.00    +0.000 Cl
ENDROOT
BRANCH   1  18
ATOM     14  C   UNL     1       3.776   2.176  21.223  0.00  0.00    +0.000 C 
ATOM     15  C   UNL     1       2.686   2.636  20.263  0.00  0.00    +0.000 C 
ATOM     16  C   UNL     1       1.569   3.478  20.916  0.00  0.00    +0.000 C 
ATOM     17  C   UNL     1       2.261   4.702  20.303  0.00  0.00    +0.000 C 
ATOM     18  N   UNL     1       3.099   3.818  19.546  0.00  0.00    +0.000 N 
BRANCH  16  19
ATOM     19  N   UNL     1       0.288   3.240  20.223  0.00  0.00    +0.000 NA
ATOM     20  H   UNL     1       0.377   2.601  19.431  0.00  0.00    +0.000 HD
ATOM     21  H   UNL     1      -0.130   4.089  19.844  0.00  0.00    +0.000 HD
ENDBRANCH  16  19
ENDBRANCH   1  18
BRANCH   8  22
ATOM     22  C   UNL     1       7.763   5.170  13.058  0.00  0.00    +0.000 C 
ATOM     23  O   UNL     1       8.691   5.950  12.895  0.00  0.00    +0.000 OA
BRANCH  22  24
ATOM     24  O   UNL     1       7.344   4.338  12.078  0.00  0.00    +0.000 OA
ATOM     25  H   UNL     1       6.366   4.201  12.060  0.00  0.00    +0.000 HD
ENDBRANCH  22  24
ENDBRANCH   8  22
BRANCH  10  26
ATOM     26  C   UNL     1       7.683   6.255  17.854  0.00  0.00    +0.000 C 
BRANCH  26  27
ATOM     27  C   UNL     1       7.818   7.775  17.794  0.00  0.00    +0.000 C 
ATOM     28  F   UNL     1       8.678   8.206  18.754  0.00  0.00    +0.000 F 
ENDBRANCH  26  27
ENDBRANCH  10  26
TORSDOF 6
ENDMDL
MODEL 4
REMARK VINA RESULT:      -6.7      3.420      6.571
REMARK  Name = 
REMARK  7 active torsions:
REMARK  status: ('A' for Active; 'I' for Inactive)
REMARK    1  A    between atoms: C_1  and  C_2
REMARK    2  A    between atoms: C_3  and  N_4
REMARK    3  A    between atoms: N_6  and  C_7
REMARK    4  A    between atoms: C_14  and  C_15
REMARK    5  A    between atoms: C_15  and  O_17
REMARK    6  A    between atoms: N_19  and  C_20
REMARK    7  A    between atoms: C_20  and  C_21
REMARK                            x       y       z     vdW  Elec       q    Type
REMARK                         _______ _______ _______ _____ _____    ______ ____
ROOT
ATOM      1  C   UNL     1       1.957   8.148  19.107  0.00  0.00    +0.000 A 
ATOM      2  C   UNL     1       2.562   8.752  17.995  0.00  0.00    +0.000 A 
ATOM      3  F   UNL     1       2.214   9.987  17.601  0.00  0.00    +0.000 F 
ATOM      4  C   UNL     1       3.556   8.127  17.262  0.00  0.00    +0.000 A 
ATOM      5  C   UNL     1       3.971   6.836  17.605  0.00  0.00    +0.000 A 
ATOM      6  C   UNL     1       5.028   6.242  16.747  0.00  0.00    +0.000 A 
ATOM      7  O   UNL     1       5.533   6.862  15.811  0.00  0.00    +0.000 OA
ATOM      8  C   UNL     1       5.471   4.875  17.032  0.00  0.00    +0.000 A 
ATOM      9  C   UNL     1       4.892   4.275  18.076  0.00  0.00    +0.000 A 
ATOM     10  N   UNL     1       3.905   4.781  18.919  0.00  0.00    +0.000 N 
ATOM     11  C   UNL     1       3.408   6.117  18.697  0.00  0.00    +0.000 A 
ATOM     12  C   UNL     1       2.389   6.818  19.444  0.00  0.00    +0.000 A 
ATOM     13 CL   UNL     1       1.541   6.061  20.771  0.00  0.00    +0.000 Cl
ENDROOT
BRANCH   1  18
ATOM     14  C   UNL     1      -0.949   9.906  18.706  0.00  0.00    +0.000 C 
ATOM     15  C   UNL     1       0.288  10.110  19.570  0.00  0.00    +0.000 C 
ATOM     16  C   UNL     1       0.003  10.216  21.084  0.00  0.00    +0.000 C 
ATOM     17  C   UNL     1       0.495   8.767  21.183  0.00  0.00    +0.000 C 
ATOM     18  N   UNL     1       0.950   8.855  19.825  0.00  0.00    +0.000 N 
BRANCH  16  19
ATOM     19  N   UNL     1       0.987  11.113  21.721  0.00  0.00    +0.000 NA
ATOM     20  H   UNL     1       1.023  11.005  22.737  0.00  0.00    +0.000 HD
ATOM     21  H   UNL     1       0.798  12.101  21.558  0.00  0.00    +0.000 HD
ENDBRANCH  16  19
ENDBRANCH   1  18
BRANCH   8  22
ATOM     22  C   UNL     1       6.488   4.143  16.246  0.00  0.00    +0.000 C 
ATOM     23  O   UNL     1       7.669   4.458  16.216  0.00  0.00    +0.000 OA
BRANCH  22  24
ATOM     24  O   UNL     1       6.011   3.076  15.566  0.00  0.00    +0.000 OA
ATOM     25  H   UNL     1       5.926   2.258  16.113  0.00  0.00    +0.000 HD
ENDBRANCH  22  24
ENDBRANCH   8  22
BRANCH  10  26
ATOM     26  C   UNL     1       3.386   3.974  20.059  0.00  0.00    +0.000 C 
BRANCH  26  27
ATOM     27  C   UNL     1       2.536   2.744  19.748  0.00  0.00    +0.000 C 
ATOM     28  F   UNL     1       2.017   2.232  20.895  0.00  0.00    +0.000 F 
ENDBRANCH  26  27
ENDBRANCH  10  26
TORSDOF 6
ENDMDL
MODEL 5
REMARK VINA RESULT:      -6.7      3.468      6.610
REMARK  Name = 
REMARK  7 active torsions:
REMARK  status: ('A' for Active; 'I' for Inactive)
REMARK    1  A    between atoms: C_1  and  C_2
REMARK    2  A    between atoms: C_3  and  N_4
REMARK    3  A    between atoms: N_6  and  C_7
REMARK    4  A    between atoms: C_14  and  C_15
REMARK    5  A    between atoms: C_15  and  O_17
REMARK    6  A    between atoms: N_19  and  C_20
REMARK    7  A    between atoms: C_20  and  C_21
REMARK                            x       y       z     vdW  Elec       q    Type
REMARK                         _______ _______ _______ _____ _____    ______ ____
ROOT
ATOM      1  C   UNL     1       2.116   7.722  19.288  0.00  0.00    +0.000 A 
ATOM      2  C   UNL     1       2.594   8.469  18.201  0.00  0.00    +0.000 A 
ATOM      3  F   UNL     1       2.176   9.726  17.986  0.00  0.00    +0.000 F 
ATOM      4  C   UNL     1       3.528   7.966  17.312  0.00  0.00    +0.000 A 
ATOM      5  C   UNL     1       4.008   6.662  17.464  0.00  0.00    +0.000 A 
ATOM      6  C   UNL     1       4.993   6.208  16.448  0.00  0.00    +0.000 A 
ATOM      7  O   UNL     1       5.388   6.947  15.547  0.00  0.00    +0.000 OA
ATOM      8  C   UNL     1       5.497   4.836  16.532  0.00  0.00    +0.000 A 
ATOM      9  C   UNL     1       5.039   4.101  17.549  0.00  0.00    +0.000 A 
ATOM     10  N   UNL     1       4.125   4.472  18.533  0.00  0.00    +0.000 N 
ATOM     11  C   UNL     1       3.574   5.805  18.513  0.00  0.00    +0.000 A 
ATOM     12  C   UNL     1       2.614   6.380  19.428  0.00  0.00    +0.000 A 
ATOM     13 CL   UNL     1       1.919   5.447  20.733  0.00  0.00    +0.000 Cl
ENDROOT
BRANCH   1  18
ATOM     14  C   UNL     1      -0.422  10.009  19.437  0.00  0.00    +0.000 C 
ATOM     15  C   UNL     1       0.738   9.669  20.364  0.00  0.00    +0.000 C 
ATOM     16  C   UNL     1       0.321   9.291  21.801  0.00  0.00    +0.000 C 
ATOM     17  C   UNL     1       0.567   7.834  21.390  0.00  0.00    +0.000 C 
ATOM     18  N   UNL     1       1.165   8.305  20.174  0.00  0.00    +0.000 N 
BRANCH  16  19
ATOM     19  N   UNL     1       1.364   9.714  22.757  0.00  0.00    +0.000 NA
ATOM     20  H   UNL     1       2.283   9.816  22.322  0.00  0.00    +0.000 HD
ATOM     21  H   UNL     1       1.497   9.058  23.526  0.00  0.00    +0.000 HD
ENDBRANCH  16  19
ENDBRANCH   1  18
BRANCH   8  22
ATOM     22  C   UNL     1       6.453   4.235  15.575  0.00  0.00    +0.000 C 
ATOM     23  O   UNL     1       6.109   3.615  14.579  0.00  0.00    +0.000 OA
BRANCH  22  24
ATOM     24  O   UNL     1       7.755   4.438  15.880  0.00  0.00    +0.000 OA
ATOM     25  H   UNL     1       8.384   4.095  15.200  0.00  0.00    +0.000 HD
ENDBRANCH  22  24
ENDBRANCH   8  22
BRANCH  10  26
ATOM     26  C   UNL     1       3.742   3.523  19.616  0.00  0.00    +0.000 C 
BRANCH  26  27
ATOM     27  C   UNL     1       2.942   2.279  19.239  0.00  0.00    +0.000 C 
ATOM     28  F   UNL     1       3.782   1.284  18.849  0.00  0.00    +0.000 F 
ENDBRANCH  26  27
ENDBRANCH  10  26
TORSDOF 6
ENDMDL
MODEL 6
REMARK VINA RESULT:      -6.7      3.526      6.578
REMARK  Name = 
REMARK  7 active torsions:
REMARK  status: ('A' for Active; 'I' for Inactive)
REMARK    1  A    between atoms: C_1  and  C_2
REMARK    2  A    between atoms: C_3  and  N_4
REMARK    3  A    between atoms: N_6  and  C_7
REMARK    4  A    between atoms: C_14  and  C_15
REMARK    5  A    between atoms: C_15  and  O_17
REMARK    6  A    between atoms: N_19  and  C_20
REMARK    7  A    between atoms: C_20  and  C_21
REMARK                            x       y       z     vdW  Elec       q    Type
REMARK                         _______ _______ _______ _____ _____    ______ ____
ROOT
ATOM      1  C   UNL     1       1.480   9.202  19.365  0.00  0.00    +0.000 A 
ATOM      2  C   UNL     1       2.143   9.419  18.148  0.00  0.00    +0.000 A 
ATOM      3  F   UNL     1       2.046  10.592  17.504  0.00  0.00    +0.000 F 
ATOM      4  C   UNL     1       2.943   8.454  17.559  0.00  0.00    +0.000 A 
ATOM      5  C   UNL     1       3.091   7.203  18.165  0.00  0.00    +0.000 A 
ATOM      6  C   UNL     1       3.954   6.230  17.447  0.00  0.00    +0.000 A 
ATOM      7  O   UNL     1       4.531   6.519  16.400  0.00  0.00    +0.000 OA
ATOM      8  C   UNL     1       4.109   4.887  18.012  0.00  0.00    +0.000 A 
ATOM      9  C   UNL     1       3.469   4.655  19.162  0.00  0.00    +0.000 A 
ATOM     10  N   UNL     1       2.656   5.526  19.883  0.00  0.00    +0.000 N 
ATOM     11  C   UNL     1       2.444   6.863  19.386  0.00  0.00    +0.000 A 
ATOM     12  C   UNL     1       1.635   7.908  19.973  0.00  0.00    +0.000 A 
ATOM     13 CL   UNL     1       0.714   7.642  21.434  0.00  0.00    +0.000 Cl
ENDROOT
BRANCH   1  18
ATOM     14  C   UNL     1       1.534  12.513  20.221  0.00  0.00    +0.000 C 
ATOM     15  C   UNL     1       0.979  11.265  20.896  0.00  0.00    +0.000 C 
ATOM     16  C   UNL     1      -0.529  11.328  21.221  0.00  0.00    +0.000 C 
ATOM     17  C   UNL     1      -0.736  10.437  19.991  0.00  0.00    +0.000 C 
ATOM     18  N   UNL     1       0.683  10.243  19.922  0.00  0.00    +0.000 N 
BRANCH  16  19
ATOM     19  N   UNL     1      -0.814  10.553  22.443  0.00  0.00    +0.000 NA
ATOM     20  H   UNL     1      -0.602  11.069  23.300  0.00  0.00    +0.000 HD
ATOM     21  H   UNL     1      -0.280   9.687  22.507  0.00  0.00    +0.000 HD
ENDBRANCH  16  19
ENDBRANCH   1  18
BRANCH   8  22
ATOM     22  C   UNL     1       4.908   3.806  17.394  0.00  0.00    +0.000 C 
ATOM     23  O   UNL     1       4.438   2.725  17.068  0.00  0.00    +0.000 OA
BRANCH  22  24
ATOM     24  O   UNL     1       6.210   4.111  17.199  0.00  0.00    +0.000 OA
ATOM     25  H   UNL     1       6.361   4.789  16.497  0.00  0.00    +0.000 HD
ENDBRANCH  22  24
ENDBRANCH   8  22
BRANCH  10  26
ATOM     26  C   UNL     1       2.035   5.102  21.170  0.00  0.00    +0.000 C 
BRANCH  26  27
ATOM     27  C   UNL     1       1.972   3.610  21.487  0.00  0.00    +0.000 C 
ATOM     28  F   UNL     1       0.876   3.054  20.905  0.00  0.00    +0.000 F 
ENDBRANCH  26  27
ENDBRANCH  10  26
TORSDOF 6
ENDMDL
MODEL 7
REMARK VINA RESULT:      -6.6      3.360      6.565
REMARK  Name = 
REMARK  7 active torsions:
REMARK  status: ('A' for Active; 'I' for Inactive)
REMARK    1  A    between atoms: C_1  and  C_2
REMARK    2  A    between atoms: C_3  and  N_4
REMARK    3  A    between atoms: N_6  and  C_7
REMARK    4  A    between atoms: C_14  and  C_15
REMARK    5  A    between atoms: C_15  and  O_17
REMARK    6  A    between atoms: N_19  and  C_20
REMARK    7  A    between atoms: C_20  and  C_21
REMARK                            x       y       z     vdW  Elec       q    Type
REMARK                         _______ _______ _______ _____ _____    ______ ____
ROOT
ATOM      1  C   UNL     1       1.698   8.643  19.347  0.00  0.00    +0.000 A 
ATOM      2  C   UNL     1       2.273   9.142  18.168  0.00  0.00    +0.000 A 
ATOM      3  F   UNL     1       1.978  10.372  17.719  0.00  0.00    +0.000 F 
ATOM      4  C   UNL     1       3.183   8.413  17.422  0.00  0.00    +0.000 A 
ATOM      5  C   UNL     1       3.539   7.121  17.821  0.00  0.00    +0.000 A 
ATOM      6  C   UNL     1       4.507   6.413  16.945  0.00  0.00    +0.000 A 
ATOM      7  O   UNL     1       4.993   6.943  15.947  0.00  0.00    +0.000 OA
ATOM      8  C   UNL     1       4.882   5.039  17.289  0.00  0.00    +0.000 A 
ATOM      9  C   UNL     1       4.330   4.538  18.397  0.00  0.00    +0.000 A 
ATOM     10  N   UNL     1       3.426   5.154  19.260  0.00  0.00    +0.000 N 
ATOM     11  C   UNL     1       2.998   6.504  18.983  0.00  0.00    +0.000 A 
ATOM     12  C   UNL     1       2.068   7.310  19.740  0.00  0.00    +0.000 A 
ATOM     13 CL   UNL     1       1.255   6.686  21.156  0.00  0.00    +0.000 Cl
ENDROOT
BRANCH   1  18
ATOM     14  C   UNL     1       1.269  11.774  20.656  0.00  0.00    +0.000 C 
ATOM     15  C   UNL     1       0.964  10.372  21.169  0.00  0.00    +0.000 C 
ATOM     16  C   UNL     1      -0.512  10.137  21.556  0.00  0.00    +0.000 C 
ATOM     17  C   UNL     1      -0.646   9.394  20.222  0.00  0.00    +0.000 C 
ATOM     18  N   UNL     1       0.779   9.453  20.074  0.00  0.00    +0.000 N 
BRANCH  16  19
ATOM     19  N   UNL     1      -0.595   9.170  22.667  0.00  0.00    +0.000 NA
ATOM     20  H   UNL     1      -1.257   8.414  22.487  0.00  0.00    +0.000 HD
ATOM     21  H   UNL     1      -0.892   9.590  23.547  0.00  0.00    +0.000 HD
ENDBRANCH  16  19
ENDBRANCH   1  18
BRANCH   8  22
ATOM     22  C   UNL     1       5.807   4.200  16.495  0.00  0.00    +0.000 C 
ATOM     23  O   UNL     1       5.481   3.630  15.463  0.00  0.00    +0.000 OA
BRANCH  22  24
ATOM     24  O   UNL     1       7.061   4.120  16.994  0.00  0.00    +0.000 OA
ATOM     25  H   UNL     1       7.095   3.925  17.961  0.00  0.00    +0.000 HD
ENDBRANCH  22  24
ENDBRANCH   8  22
BRANCH  10  26
ATOM     26  C   UNL     1       2.926   4.448  20.474  0.00  0.00    +0.000 C 
BRANCH  26  27
ATOM     27  C   UNL     1       2.021   3.234  20.284  0.00  0.00    +0.000 C 
ATOM     28  F   UNL     1       0.749   3.536  20.659  0.00  0.00    +0.000 F 
ENDBRANCH  26  27
ENDBRANCH  10  26
TORSDOF 6
ENDMDL
MODEL 8
REMARK VINA RESULT:      -6.5      3.242      4.310
REMARK  Name = 
REMARK  7 active torsions:
REMARK  status: ('A' for Active; 'I' for Inactive)
REMARK    1  A    between atoms: C_1  and  C_2
REMARK    2  A    between atoms: C_3  and  N_4
REMARK    3  A    between atoms: N_6  and  C_7
REMARK    4  A    between atoms: C_14  and  C_15
REMARK    5  A    between atoms: C_15  and  O_17
REMARK    6  A    between atoms: N_19  and  C_20
REMARK    7  A    between atoms: C_20  and  C_21
REMARK                            x       y       z     vdW  Elec       q    Type
REMARK                         _______ _______ _______ _____ _____    ______ ____
ROOT
ATOM      1  C   UNL     1       2.926   6.162  18.777  0.00  0.00    +0.000 A 
ATOM      2  C   UNL     1       3.420   6.939  17.718  0.00  0.00    +0.000 A 
ATOM      3  F   UNL     1       4.238   6.413  16.794  0.00  0.00    +0.000 F 
ATOM      4  C   UNL     1       3.079   8.271  17.556  0.00  0.00    +0.000 A 
ATOM      5  C   UNL     1       2.235   8.895  18.480  0.00  0.00    +0.000 A 
ATOM      6  C   UNL     1       1.943  10.330  18.230  0.00  0.00    +0.000 A 
ATOM      7  O   UNL     1       2.389  10.925  17.250  0.00  0.00    +0.000 OA
ATOM      8  C   UNL     1       1.101  11.047  19.190  0.00  0.00    +0.000 A 
ATOM      9  C   UNL     1       0.637  10.329  20.217  0.00  0.00    +0.000 A 
ATOM     10  N   UNL     1       0.868   8.985  20.499  0.00  0.00    +0.000 N 
ATOM     11  C   UNL     1       1.698   8.212  19.607  0.00  0.00    +0.000 A 
ATOM     12  C   UNL     1       2.066   6.819  19.724  0.00  0.00    +0.000 A 
ATOM     13 CL   UNL     1       1.554   5.847  21.082  0.00  0.00    +0.000 Cl
ENDROOT
BRANCH   1  18
ATOM     14  C   UNL     1       2.636   3.133  17.216  0.00  0.00    +0.000 C 
ATOM     15  C   UNL     1       2.569   3.572  18.673  0.00  0.00    +0.000 C 
ATOM     16  C   UNL     1       3.575   2.862  19.604  0.00  0.00    +0.000 C 
ATOM     17  C   UNL     1       4.409   4.146  19.529  0.00  0.00    +0.000 C 
ATOM     18  N   UNL     1       3.308   4.794  18.876  0.00  0.00    +0.000 N 
BRANCH  16  19
ATOM     19  N   UNL     1       3.002   2.727  20.958  0.00  0.00    +0.000 NA
ATOM     20  H   UNL     1       2.464   3.547  21.245  0.00  0.00    +0.000 HD
ATOM     21  H   UNL     1       3.706   2.594  21.683  0.00  0.00    +0.000 HD
ENDBRANCH  16  19
ENDBRANCH   1  18
BRANCH   8  22
ATOM     22  C   UNL     1       0.752  12.482  19.091  0.00  0.00    +0.000 C 
ATOM     23  O   UNL     1       1.020  13.301  19.958  0.00  0.00    +0.000 OA
BRANCH  22  24
ATOM     24  O   UNL     1       0.121  12.827  17.947  0.00  0.00    +0.000 OA
ATOM     25  H   UNL     1       0.230  12.172  17.215  0.00  0.00    +0.000 HD
ENDBRANCH  22  24
ENDBRANCH   8  22
BRANCH  10  26
ATOM     26  C   UNL     1       0.246   8.335  21.687  0.00  0.00    +0.000 C 
BRANCH  26  27
ATOM     27  C   UNL     1      -0.501   9.216  22.686  0.00  0.00    +0.000 C 
ATOM     28  F   UNL     1       0.179   9.266  23.863  0.00  0.00    +0.000 F 
ENDBRANCH  26  27
ENDBRANCH  10  26
TORSDOF 6
ENDMDL
MODEL 9
REMARK VINA RESULT:      -6.4      3.826      7.288
REMARK  Name = 
REMARK  7 active torsions:
REMARK  status: ('A' for Active; 'I' for Inactive)
REMARK    1  A    between atoms: C_1  and  C_2
REMARK    2  A    between atoms: C_3  and  N_4
REMARK    3  A    between atoms: N_6  and  C_7
REMARK    4  A    between atoms: C_14  and  C_15
REMARK    5  A    between atoms: C_15  and  O_17
REMARK    6  A    between atoms: N_19  and  C_20
REMARK    7  A    between atoms: C_20  and  C_21
REMARK                            x       y       z     vdW  Elec       q    Type
REMARK                         _______ _______ _______ _____ _____    ______ ____
ROOT
ATOM      1  C   UNL     1       0.982   9.040  20.070  0.00  0.00    +0.000 A 
ATOM      2  C   UNL     1       0.658   8.191  21.140  0.00  0.00    +0.000 A 
ATOM      3  F   UNL     1      -0.160   8.595  22.123  0.00  0.00    +0.000 F 
ATOM      4  C   UNL     1       1.142   6.897  21.230  0.00  0.00    +0.000 A 
ATOM      5  C   UNL     1       2.006   6.403  20.248  0.00  0.00    +0.000 A 
ATOM      6  C   UNL     1       2.486   5.011  20.444  0.00  0.00    +0.000 A 
ATOM      7  O   UNL     1       2.119   4.322  21.395  0.00  0.00    +0.000 OA
ATOM      8  C   UNL     1       3.429   4.456  19.470  0.00  0.00    +0.000 A 
ATOM      9  C   UNL     1       3.765   5.256  18.454  0.00  0.00    +0.000 A 
ATOM     10  N   UNL     1       3.344   6.561  18.213  0.00  0.00    +0.000 N 
ATOM     11  C   UNL     1       2.423   7.184  19.134  0.00  0.00    +0.000 A 
ATOM     12  C   UNL     1       1.877   8.520  19.072  0.00  0.00    +0.000 A 
ATOM     13 CL   UNL     1       2.336   9.640  17.811  0.00  0.00    +0.000 Cl
ENDROOT
BRANCH   1  18
ATOM     14  C   UNL     1       1.851  12.347  20.032  0.00  0.00    +0.000 C 
ATOM     15  C   UNL     1       0.771  11.556  20.758  0.00  0.00    +0.000 C 
ATOM     16  C   UNL     1      -0.669  12.054  20.507  0.00  0.00    +0.000 C 
ATOM     17  C   UNL     1      -0.812  10.866  19.548  0.00  0.00    +0.000 C 
ATOM     18  N   UNL     1       0.437  10.355  20.032  0.00  0.00    +0.000 N 
BRANCH  16  19
ATOM     19  N   UNL     1      -1.500  11.821  21.704  0.00  0.00    +0.000 NA
ATOM     20  H   UNL     1      -1.105  11.116  22.330  0.00  0.00    +0.000 HD
ATOM     21  H   UNL     1      -2.441  11.497  21.486  0.00  0.00    +0.000 HD
ENDBRANCH  16  19
ENDBRANCH   1  18
BRANCH   8  22
ATOM     22  C   UNL     1       4.017   3.100  19.552  0.00  0.00    +0.000 C 
ATOM     23  O   UNL     1       3.351   2.075  19.525  0.00  0.00    +0.000 OA
BRANCH  22  24
ATOM     24  O   UNL     1       5.365   3.078  19.644  0.00  0.00    +0.000 OA
ATOM     25  H   UNL     1       5.827   3.090  18.771  0.00  0.00    +0.000 HD
ENDBRANCH  22  24
ENDBRANCH   8  22
BRANCH  10  26
ATOM     26  C   UNL     1       3.806   7.303  17.007  0.00  0.00    +0.000 C 
BRANCH  26  27
ATOM     27  C   UNL     1       5.034   6.784  16.263  0.00  0.00    +0.000 C 
ATOM     28  F   UNL     1       4.843   6.881  14.920  0.00  0.00    +0.000 F 
ENDBRANCH  26  27
ENDBRANCH  10  26
TORSDOF 6
ENDMDL
