MODEL 1
REMARK VINA RESULT:      -5.6      0.000      0.000
REMARK  Name = 
REMARK  10 active torsions:
REMARK  status: ('A' for Active; 'I' for Inactive)
REMARK    1  A    between atoms: C_1  and  C_2
REMARK    2  A    between atoms: C_2  and  N_3
REMARK    3  A    between atoms: N_3  and  C_4
REMARK    4  A    between atoms: C_4  and  C_5
REMARK    5  A    between atoms: C_7  and  C_9
REMARK    6  A    between atoms: C_9  and  N_10
REMARK    7  A    between atoms: C_9  and  C_11
REMARK    8  A    between atoms: C_11  and  C_12
REMARK    9  A    between atoms: C_11  and  C_13
REMARK   10  A    between atoms: C_11  and  C_14
REMARK                            x       y       z     vdW  Elec       q    Type
REMARK                         _______ _______ _______ _____ _____    ______ ____
ROOT
ATOM      1  N   UNL     1       6.478   4.962  17.529  0.00  0.00    +0.000 N 
ATOM      2  C   UNL     1       5.761   4.616  18.675  0.00  0.00    +0.000 C 
ATOM      3  O   UNL     1       6.100   5.046  19.783  0.00  0.00    +0.000 OA
ENDROOT
BRANCH   1   5
ATOM      4  C   UNL     1       7.106   7.361  17.466  0.00  0.00    +0.000 C 
ATOM      5  C   UNL     1       7.572   5.931  17.697  0.00  0.00    +0.000 C 
ENDBRANCH   1   5
BRANCH   1   6
ATOM      6  C   UNL     1       6.170   4.424  16.190  0.00  0.00    +0.000 C 
BRANCH   6   7
ATOM      7  C   UNL     1       6.977   4.902  15.046  0.00  0.00    +0.000 C 
ATOM      8  N   UNL     1       7.603   5.301  14.155  0.00  0.00    +0.000 NA
ENDBRANCH   6   7
ENDBRANCH   1   6
BRANCH   2   9
ATOM      9  C   UNL     1       4.557   3.619  18.577  0.00  0.00    +0.000 C 
BRANCH   9  10
ATOM     10  C   UNL     1       3.162   4.313  18.760  0.00  0.00    +0.000 C 
ATOM     11  C   UNL     1       3.187   5.718  18.126  0.00  0.00    +0.000 C 
ATOM     12  C   UNL     1       2.071   3.485  18.040  0.00  0.00    +0.000 C 
ATOM     13  C   UNL     1       2.733   4.456  20.237  0.00  0.00    +0.000 C 
ENDBRANCH   9  10
BRANCH   9  14
ATOM     14  N   UNL     1       4.765   2.558  19.590  0.00  0.00    +0.000 NA
ATOM     15  H   UNL     1       5.721   2.653  19.945  0.00  0.00    +0.000 HD
ATOM     16  H   UNL     1       4.747   1.642  19.144  0.00  0.00    +0.000 HD
ENDBRANCH   9  14
ENDBRANCH   2   9
TORSDOF 6
ENDMDL
MODEL 2
REMARK VINA RESULT:      -5.5      0.806      1.362
REMARK  Name = 
REMARK  10 active torsions:
REMARK  status: ('A' for Active; 'I' for Inactive)
REMARK    1  A    between atoms: C_1  and  C_2
REMARK    2  A    between atoms: C_2  and  N_3
REMARK    3  A    between atoms: N_3  and  C_4
REMARK    4  A    between atoms: C_4  and  C_5
REMARK    5  A    between atoms: C_7  and  C_9
REMARK    6  A    between atoms: C_9  and  N_10
REMARK    7  A    between atoms: C_9  and  C_11
REMARK    8  A    between atoms: C_11  and  C_12
REMARK    9  A    between atoms: C_11  and  C_13
REMARK   10  A    between atoms: C_11  and  C_14
REMARK                            x       y       z     vdW  Elec       q    Type
REMARK                         _______ _______ _______ _____ _____    ______ ____
ROOT
ATOM      1  N   UNL     1       6.193   4.459  17.394  0.00  0.00    +0.000 N 
ATOM      2  C   UNL     1       5.313   4.087  18.412  0.00  0.00    +0.000 C 
ATOM      3  O   UNL     1       5.684   4.074  19.591  0.00  0.00    +0.000 OA
ENDROOT
BRANCH   1   5
ATOM      4  C   UNL     1       7.527   6.412  18.141  0.00  0.00    +0.000 C 
ATOM      5  C   UNL     1       7.525   4.928  17.805  0.00  0.00    +0.000 C 
ENDBRANCH   1   5
BRANCH   1   6
ATOM      6  C   UNL     1       5.834   4.423  15.963  0.00  0.00    +0.000 C 
BRANCH   6   7
ATOM      7  C   UNL     1       6.818   4.940  14.986  0.00  0.00    +0.000 C 
ATOM      8  N   UNL     1       7.603   5.324  14.224  0.00  0.00    +0.000 NA
ENDBRANCH   6   7
ENDBRANCH   1   6
BRANCH   2   9
ATOM      9  C   UNL     1       3.863   3.612  18.061  0.00  0.00    +0.000 C 
BRANCH   9  10
ATOM     10  C   UNL     1       2.764   4.683  18.388  0.00  0.00    +0.000 C 
ATOM     11  C   UNL     1       1.464   4.349  17.630  0.00  0.00    +0.000 C 
ATOM     12  C   UNL     1       2.450   4.659  19.903  0.00  0.00    +0.000 C 
ATOM     13  C   UNL     1       3.180   6.125  18.026  0.00  0.00    +0.000 C 
ENDBRANCH   9  10
BRANCH   9  14
ATOM     14  N   UNL     1       3.613   2.347  18.791  0.00  0.00    +0.000 NA
ATOM     15  H   UNL     1       2.741   2.462  19.317  0.00  0.00    +0.000 HD
ATOM     16  H   UNL     1       4.327   2.208  19.504  0.00  0.00    +0.000 HD
ENDBRANCH   9  14
ENDBRANCH   2   9
TORSDOF 6
ENDMDL
MODEL 3
REMARK VINA RESULT:      -5.5      0.161      1.209
REMARK  Name = 
REMARK  10 active torsions:
REMARK  status: ('A' for Active; 'I' for Inactive)
REMARK    1  A    between atoms: C_1  and  C_2
REMARK    2  A    between atoms: C_2  and  N_3
REMARK    3  A    between atoms: N_3  and  C_4
REMARK    4  A    between atoms: C_4  and  C_5
REMARK    5  A    between atoms: C_7  and  C_9
REMARK    6  A    between atoms: C_9  and  N_10
REMARK    7  A    between atoms: C_9  and  C_11
REMARK    8  A    between atoms: C_11  and  C_12
REMARK    9  A    between atoms: C_11  and  C_13
REMARK   10  A    between atoms: C_11  and  C_14
REMARK                            x       y       z     vdW  Elec       q    Type
REMARK                         _______ _______ _______ _____ _____    ______ ____
ROOT
ATOM      1  N   UNL     1       6.463   5.066  17.525  0.00  0.00    +0.000 N 
ATOM      2  C   UNL     1       5.791   4.679  18.685  0.00  0.00    +0.000 C 
ATOM      3  O   UNL     1       6.183   5.055  19.795  0.00  0.00    +0.000 OA
ENDROOT
BRANCH   1   5
ATOM      4  C   UNL     1       7.130   7.455  17.490  0.00  0.00    +0.000 C 
ATOM      5  C   UNL     1       7.576   6.014  17.687  0.00  0.00    +0.000 C 
ENDBRANCH   1   5
BRANCH   1   6
ATOM      6  C   UNL     1       6.090   4.591  16.178  0.00  0.00    +0.000 C 
BRANCH   6   7
ATOM      7  C   UNL     1       6.944   4.992  15.039  0.00  0.00    +0.000 C 
ATOM      8  N   UNL     1       7.629   5.286  14.151  0.00  0.00    +0.000 NA
ENDBRANCH   6   7
ENDBRANCH   1   6
BRANCH   2   9
ATOM      9  C   UNL     1       4.570   3.702  18.596  0.00  0.00    +0.000 C 
BRANCH   9  10
ATOM     10  C   UNL     1       3.187   4.420  18.779  0.00  0.00    +0.000 C 
ATOM     11  C   UNL     1       2.757   4.359  20.258  0.00  0.00    +0.000 C 
ATOM     12  C   UNL     1       3.318   5.910  18.383  0.00  0.00    +0.000 C 
ATOM     13  C   UNL     1       2.057   3.812  17.920  0.00  0.00    +0.000 C 
ENDBRANCH   9  10
BRANCH   9  14
ATOM     14  N   UNL     1       4.763   2.643  19.614  0.00  0.00    +0.000 NA
ATOM     15  H   UNL     1       5.650   2.831  20.092  0.00  0.00    +0.000 HD
ATOM     16  H   UNL     1       4.903   1.742  19.159  0.00  0.00    +0.000 HD
ENDBRANCH   9  14
ENDBRANCH   2   9
TORSDOF 6
ENDMDL
MODEL 4
REMARK VINA RESULT:      -5.5      0.884      1.521
REMARK  Name = 
REMARK  10 active torsions:
REMARK  status: ('A' for Active; 'I' for Inactive)
REMARK    1  A    between atoms: C_1  and  C_2
REMARK    2  A    between atoms: C_2  and  N_3
REMARK    3  A    between atoms: N_3  and  C_4
REMARK    4  A    between atoms: C_4  and  C_5
REMARK    5  A    between atoms: C_7  and  C_9
REMARK    6  A    between atoms: C_9  and  N_10
REMARK    7  A    between atoms: C_9  and  C_11
REMARK    8  A    between atoms: C_11  and  C_12
REMARK    9  A    between atoms: C_11  and  C_13
REMARK   10  A    between atoms: C_11  and  C_14
REMARK                            x       y       z     vdW  Elec       q    Type
REMARK                         _______ _______ _______ _____ _____    ______ ____
ROOT
ATOM      1  N   UNL     1       5.597   5.356  17.306  0.00  0.00    +0.000 N 
ATOM      2  C   UNL     1       4.980   4.873  18.461  0.00  0.00    +0.000 C 
ATOM      3  O   UNL     1       4.969   5.546  19.497  0.00  0.00    +0.000 OA
ENDROOT
BRANCH   1   5
ATOM      4  C   UNL     1       7.555   6.763  17.890  0.00  0.00    +0.000 C 
ATOM      5  C   UNL     1       6.129   6.727  17.361  0.00  0.00    +0.000 C 
ENDBRANCH   1   5
BRANCH   1   6
ATOM      6  C   UNL     1       5.710   4.571  16.061  0.00  0.00    +0.000 C 
BRANCH   6   7
ATOM      7  C   UNL     1       6.744   4.969  15.080  0.00  0.00    +0.000 C 
ATOM      8  N   UNL     1       7.568   5.287  14.330  0.00  0.00    +0.000 NA
ENDBRANCH   6   7
ENDBRANCH   1   6
BRANCH   2   9
ATOM      9  C   UNL     1       4.354   3.438  18.474  0.00  0.00    +0.000 C 
BRANCH   9  10
ATOM     10  C   UNL     1       2.788   3.446  18.567  0.00  0.00    +0.000 C 
ATOM     11  C   UNL     1       2.221   2.138  17.981  0.00  0.00    +0.000 C 
ATOM     12  C   UNL     1       2.355   3.529  20.050  0.00  0.00    +0.000 C 
ATOM     13  C   UNL     1       2.132   4.632  17.828  0.00  0.00    +0.000 C 
ENDBRANCH   9  10
BRANCH   9  14
ATOM     14  N   UNL     1       4.954   2.693  19.607  0.00  0.00    +0.000 NA
ATOM     15  H   UNL     1       5.512   1.930  19.213  0.00  0.00    +0.000 HD
ATOM     16  H   UNL     1       4.224   2.228  20.144  0.00  0.00    +0.000 HD
ENDBRANCH   9  14
ENDBRANCH   2   9
TORSDOF 6
ENDMDL
MODEL 5
REMARK VINA RESULT:      -5.4      0.855      1.418
REMARK  Name = 
REMARK  10 active torsions:
REMARK  status: ('A' for Active; 'I' for Inactive)
REMARK    1  A    between atoms: C_1  and  C_2
REMARK    2  A    between atoms: C_2  and  N_3
REMARK    3  A    between atoms: N_3  and  C_4
REMARK    4  A    between atoms: C_4  and  C_5
REMARK    5  A    between atoms: C_7  and  C_9
REMARK    6  A    between atoms: C_9  and  N_10
REMARK    7  A    between atoms: C_9  and  C_11
REMARK    8  A    between atoms: C_11  and  C_12
REMARK    9  A    between atoms: C_11  and  C_13
REMARK   10  A    between atoms: C_11  and  C_14
REMARK                            x       y       z     vdW  Elec       q    Type
REMARK                         _______ _______ _______ _____ _____    ______ ____
ROOT
ATOM      1  N   UNL     1       5.676   5.308  17.368  0.00  0.00    +0.000 N 
ATOM      2  C   UNL     1       4.990   4.857  18.497  0.00  0.00    +0.000 C 
ATOM      3  O   UNL     1       4.929   5.554  19.516  0.00  0.00    +0.000 OA
ENDROOT
BRANCH   1   5
ATOM      4  C   UNL     1       7.619   6.707  18.016  0.00  0.00    +0.000 C 
ATOM      5  C   UNL     1       6.219   6.674  17.422  0.00  0.00    +0.000 C 
ENDBRANCH   1   5
BRANCH   1   6
ATOM      6  C   UNL     1       5.849   4.493  16.150  0.00  0.00    +0.000 C 
BRANCH   6   7
ATOM      7  C   UNL     1       6.834   4.948  15.143  0.00  0.00    +0.000 C 
ATOM      8  N   UNL     1       7.593   5.327  14.353  0.00  0.00    +0.000 NA
ENDBRANCH   6   7
ENDBRANCH   1   6
BRANCH   2   9
ATOM      9  C   UNL     1       4.350   3.429  18.508  0.00  0.00    +0.000 C 
BRANCH   9  10
ATOM     10  C   UNL     1       2.786   3.452  18.633  0.00  0.00    +0.000 C 
ATOM     11  C   UNL     1       2.380   3.663  20.105  0.00  0.00    +0.000 C 
ATOM     12  C   UNL     1       2.216   4.631  17.808  0.00  0.00    +0.000 C 
ATOM     13  C   UNL     1       2.106   2.162  18.123  0.00  0.00    +0.000 C 
ENDBRANCH   9  10
BRANCH   9  14
ATOM     14  N   UNL     1       4.964   2.665  19.620  0.00  0.00    +0.000 NA
ATOM     15  H   UNL     1       5.981   2.737  19.518  0.00  0.00    +0.000 HD
ATOM     16  H   UNL     1       4.764   1.672  19.514  0.00  0.00    +0.000 HD
ENDBRANCH   9  14
ENDBRANCH   2   9
TORSDOF 6
ENDMDL
MODEL 6
REMARK VINA RESULT:      -5.4      2.443      3.357
REMARK  Name = 
REMARK  10 active torsions:
REMARK  status: ('A' for Active; 'I' for Inactive)
REMARK    1  A    between atoms: C_1  and  C_2
REMARK    2  A    between atoms: C_2  and  N_3
REMARK    3  A    between atoms: N_3  and  C_4
REMARK    4  A    between atoms: C_4  and  C_5
REMARK    5  A    between atoms: C_7  and  C_9
REMARK    6  A    between atoms: C_9  and  N_10
REMARK    7  A    between atoms: C_9  and  C_11
REMARK    8  A    between atoms: C_11  and  C_12
REMARK    9  A    between atoms: C_11  and  C_13
REMARK   10  A    between atoms: C_11  and  C_14
REMARK                            x       y       z     vdW  Elec       q    Type
REMARK                         _______ _______ _______ _____ _____    ______ ____
ROOT
ATOM      1  N   UNL     1       4.570   5.840  18.030  0.00  0.00    +0.000 N 
ATOM      2  C   UNL     1       3.340   6.007  18.669  0.00  0.00    +0.000 C 
ATOM      3  O   UNL     1       2.589   6.938  18.357  0.00  0.00    +0.000 OA
ENDROOT
BRANCH   1   5
ATOM      4  C   UNL     1       5.313   6.002  15.669  0.00  0.00    +0.000 C 
ATOM      5  C   UNL     1       4.867   6.752  16.915  0.00  0.00    +0.000 C 
ENDBRANCH   1   5
BRANCH   1   6
ATOM      6  C   UNL     1       5.542   4.796  18.407  0.00  0.00    +0.000 C 
BRANCH   6   7
ATOM      7  C   UNL     1       6.672   5.182  19.281  0.00  0.00    +0.000 C 
ATOM      8  N   UNL     1       7.544   5.502  19.975  0.00  0.00    +0.000 NA
ENDBRANCH   6   7
ENDBRANCH   1   6
BRANCH   2   9
ATOM      9  C   UNL     1       2.930   5.053  19.841  0.00  0.00    +0.000 C 
BRANCH   9  10
ATOM     10  C   UNL     1       2.060   3.834  19.372  0.00  0.00    +0.000 C 
ATOM     11  C   UNL     1       2.871   2.530  19.504  0.00  0.00    +0.000 C 
ATOM     12  C   UNL     1       0.809   3.709  20.275  0.00  0.00    +0.000 C 
ATOM     13  C   UNL     1       1.567   3.952  17.914  0.00  0.00    +0.000 C 
ENDBRANCH   9  10
BRANCH   9  14
ATOM     14  N   UNL     1       2.213   5.863  20.854  0.00  0.00    +0.000 NA
ATOM     15  H   UNL     1       2.894   6.134  21.571  0.00  0.00    +0.000 HD
ATOM     16  H   UNL     1       1.537   5.285  21.349  0.00  0.00    +0.000 HD
ENDBRANCH   9  14
ENDBRANCH   2   9
TORSDOF 6
ENDMDL
MODEL 7
REMARK VINA RESULT:      -5.4      1.579      1.841
REMARK  Name = 
REMARK  10 active torsions:
REMARK  status: ('A' for Active; 'I' for Inactive)
REMARK    1  A    between atoms: C_1  and  C_2
REMARK    2  A    between atoms: C_2  and  N_3
REMARK    3  A    between atoms: N_3  and  C_4
REMARK    4  A    between atoms: C_4  and  C_5
REMARK    5  A    between atoms: C_7  and  C_9
REMARK    6  A    between atoms: C_9  and  N_10
REMARK    7  A    between atoms: C_9  and  C_11
REMARK    8  A    between atoms: C_11  and  C_12
REMARK    9  A    between atoms: C_11  and  C_13
REMARK   10  A    between atoms: C_11  and  C_14
REMARK                            x       y       z     vdW  Elec       q    Type
REMARK                         _______ _______ _______ _____ _____    ______ ____
ROOT
ATOM      1  N   UNL     1       5.239   5.002  18.461  0.00  0.00    +0.000 N 
ATOM      2  C   UNL     1       4.748   3.745  18.819  0.00  0.00    +0.000 C 
ATOM      3  O   UNL     1       5.282   3.096  19.725  0.00  0.00    +0.000 OA
ENDROOT
BRANCH   1   5
ATOM      4  C   UNL     1       7.683   5.407  18.583  0.00  0.00    +0.000 C 
ATOM      5  C   UNL     1       6.336   5.544  19.277  0.00  0.00    +0.000 C 
ENDBRANCH   1   5
BRANCH   1   6
ATOM      6  C   UNL     1       4.694   5.793  17.340  0.00  0.00    +0.000 C 
BRANCH   6   7
ATOM      7  C   UNL     1       5.396   5.729  16.039  0.00  0.00    +0.000 C 
ATOM      8  N   UNL     1       5.924   5.669  15.009  0.00  0.00    +0.000 NA
ENDBRANCH   6   7
ENDBRANCH   1   6
BRANCH   2   9
ATOM      9  C   UNL     1       3.556   3.113  18.024  0.00  0.00    +0.000 C 
BRANCH   9  10
ATOM     10  C   UNL     1       2.151   3.487  18.615  0.00  0.00    +0.000 C 
ATOM     11  C   UNL     1       1.403   4.416  17.638  0.00  0.00    +0.000 C 
ATOM     12  C   UNL     1       1.305   2.205  18.795  0.00  0.00    +0.000 C 
ATOM     13  C   UNL     1       2.225   4.187  19.989  0.00  0.00    +0.000 C 
ENDBRANCH   9  10
BRANCH   9  14
ATOM     14  N   UNL     1       3.754   1.645  18.003  0.00  0.00    +0.000 NA
ATOM     15  H   UNL     1       4.406   1.410  18.759  0.00  0.00    +0.000 HD
ATOM     16  H   UNL     1       4.240   1.370  17.151  0.00  0.00    +0.000 HD
ENDBRANCH   9  14
ENDBRANCH   2   9
TORSDOF 6
ENDMDL
MODEL 8
REMARK VINA RESULT:      -5.3      2.441      3.240
REMARK  Name = 
REMARK  10 active torsions:
REMARK  status: ('A' for Active; 'I' for Inactive)
REMARK    1  A    between atoms: C_1  and  C_2
REMARK    2  A    between atoms: C_2  and  N_3
REMARK    3  A    between atoms: N_3  and  C_4
REMARK    4  A    between atoms: C_4  and  C_5
REMARK    5  A    between atoms: C_7  and  C_9
REMARK    6  A    between atoms: C_9  and  N_10
REMARK    7  A    between atoms: C_9  and  C_11
REMARK    8  A    between atoms: C_11  and  C_12
REMARK    9  A    between atoms: C_11  and  C_13
REMARK   10  A    between atoms: C_11  and  C_14
REMARK                            x       y       z     vdW  Elec       q    Type
REMARK                         _______ _______ _______ _____ _____    ______ ____
ROOT
ATOM      1  N   UNL     1       4.597   5.878  17.953  0.00  0.00    +0.000 N 
ATOM      2  C   UNL     1       3.370   6.095  18.582  0.00  0.00    +0.000 C 
ATOM      3  O   UNL     1       2.636   7.024  18.227  0.00  0.00    +0.000 OA
ENDROOT
BRANCH   1   5
ATOM      4  C   UNL     1       5.322   5.918  15.581  0.00  0.00    +0.000 C 
ATOM      5  C   UNL     1       4.911   6.733  16.798  0.00  0.00    +0.000 C 
ENDBRANCH   1   5
BRANCH   1   6
ATOM      6  C   UNL     1       5.550   4.835  18.379  0.00  0.00    +0.000 C 
BRANCH   6   7
ATOM      7  C   UNL     1       6.650   5.228  19.286  0.00  0.00    +0.000 C 
ATOM      8  N   UNL     1       7.527   5.517  19.987  0.00  0.00    +0.000 NA
ENDBRANCH   6   7
ENDBRANCH   1   6
BRANCH   2   9
ATOM      9  C   UNL     1       2.941   5.203  19.795  0.00  0.00    +0.000 C 
BRANCH   9  10
ATOM     10  C   UNL     1       2.079   3.961  19.377  0.00  0.00    +0.000 C 
ATOM     11  C   UNL     1       1.653   4.091  17.901  0.00  0.00    +0.000 C 
ATOM     12  C   UNL     1       2.922   2.671  19.517  0.00  0.00    +0.000 C 
ATOM     13  C   UNL     1       0.807   3.776  20.233  0.00  0.00    +0.000 C 
ENDBRANCH   9  10
BRANCH   9  14
ATOM     14  N   UNL     1       2.210   6.064  20.754  0.00  0.00    +0.000 NA
ATOM     15  H   UNL     1       1.299   5.630  20.927  0.00  0.00    +0.000 HD
ATOM     16  H   UNL     1       1.990   6.960  20.321  0.00  0.00    +0.000 HD
ENDBRANCH   9  14
ENDBRANCH   2   9
TORSDOF 6
ENDMDL
MODEL 9
REMARK VINA RESULT:      -5.3      2.323      4.838
REMARK  Name = 
REMARK  10 active torsions:
REMARK  status: ('A' for Active; 'I' for Inactive)
REMARK    1  A    between atoms: C_1  and  C_2
REMARK    2  A    between atoms: C_2  and  N_3
REMARK    3  A    between atoms: N_3  and  C_4
REMARK    4  A    between atoms: C_4  and  C_5
REMARK    5  A    between atoms: C_7  and  C_9
REMARK    6  A    between atoms: C_9  and  N_10
REMARK    7  A    between atoms: C_9  and  C_11
REMARK    8  A    between atoms: C_11  and  C_12
REMARK    9  A    between atoms: C_11  and  C_13
REMARK   10  A    between atoms: C_11  and  C_14
REMARK                            x       y       z     vdW  Elec       q    Type
REMARK                         _______ _______ _______ _____ _____    ______ ____
ROOT
ATOM      1  N   UNL     1       2.960   5.093  18.146  0.00  0.00    +0.000 N 
ATOM      2  C   UNL     1       4.156   4.485  17.759  0.00  0.00    +0.000 C 
ATOM      3  O   UNL     1       4.148   3.381  17.203  0.00  0.00    +0.000 OA
ENDROOT
BRANCH   1   5
ATOM      4  C   UNL     1       1.120   3.625  18.926  0.00  0.00    +0.000 C 
ATOM      5  C   UNL     1       1.714   4.411  17.766  0.00  0.00    +0.000 C 
ENDBRANCH   1   5
BRANCH   1   6
ATOM      6  C   UNL     1       2.906   6.373  18.879  0.00  0.00    +0.000 C 
BRANCH   6   7
ATOM      7  C   UNL     1       2.589   7.599  18.115  0.00  0.00    +0.000 C 
ATOM      8  N   UNL     1       2.359   8.572  17.529  0.00  0.00    +0.000 NA
ENDBRANCH   6   7
ENDBRANCH   1   6
BRANCH   2   9
ATOM      9  C   UNL     1       5.526   5.165  18.091  0.00  0.00    +0.000 C 
BRANCH   9  10
ATOM     10  C   UNL     1       6.222   5.800  16.836  0.00  0.00    +0.000 C 
ATOM     11  C   UNL     1       7.200   6.905  17.282  0.00  0.00    +0.000 C 
ATOM     12  C   UNL     1       7.037   4.717  16.090  0.00  0.00    +0.000 C 
ATOM     13  C   UNL     1       5.231   6.411  15.823  0.00  0.00    +0.000 C 
ENDBRANCH   9  10
BRANCH   9  14
ATOM     14  N   UNL     1       6.394   4.147  18.727  0.00  0.00    +0.000 NA
ATOM     15  H   UNL     1       7.243   4.066  18.158  0.00  0.00    +0.000 HD
ATOM     16  H   UNL     1       5.957   3.229  18.668  0.00  0.00    +0.000 HD
ENDBRANCH   9  14
ENDBRANCH   2   9
TORSDOF 6
ENDMDL
