MODEL 1
REMARK VINA RESULT:      -8.7      0.000      0.000
REMARK  Name = 
REMARK  3 active torsions:
REMARK  status: ('A' for Active; 'I' for Inactive)
REMARK    1  A    between atoms: C_1  and  C_2
REMARK    2  A    between atoms: C_2  and  C_3
REMARK    3  A    between atoms: C_8  and  C_9
REMARK                            x       y       z     vdW  Elec       q    Type
REMARK                         _______ _______ _______ _____ _____    ______ ____
ROOT
ATOM      1  C   UNL     1       4.872   3.795  16.913  0.00  0.00    +0.000 C 
ATOM      2  C   UNL     1       4.253   4.609  18.072  0.00  0.00    +0.000 C 
ATOM      3  C   UNL     1       5.343   4.655  19.152  0.00  0.00    +0.000 C 
ATOM      4  O   UNL     1       4.065   5.946  17.571  0.00  0.00    +0.000 OA
ATOM      5  C   UNL     1       3.093   6.730  18.137  0.00  0.00    +0.000 A 
ATOM      6  C   UNL     1       3.104   8.044  17.686  0.00  0.00    +0.000 A 
ATOM      7  C   UNL     1       2.226   8.980  18.227  0.00  0.00    +0.000 A 
ATOM      8  C   UNL     1       1.305   8.628  19.231  0.00  0.00    +0.000 A 
ATOM      9  C   UNL     1       1.246   7.267  19.608  0.00  0.00    +0.000 A 
ATOM     10  C   UNL     1       2.149   6.313  19.095  0.00  0.00    +0.000 A 
ATOM     11  C   UNL     1       2.262   4.917  19.683  0.00  0.00    +0.000 C 
ATOM     12  C   UNL     1       2.982   5.074  21.023  0.00  0.00    +0.000 C 
ATOM     13  O   UNL     1       2.712   3.853  21.675  0.00  0.00    +0.000 OA
ATOM     14  C   UNL     1       1.495   3.547  21.199  0.00  0.00    +0.000 C 
ATOM     15  N   UNL     1       0.969   2.515  21.892  0.00  0.00    +0.000 N 
ATOM     16  N   UNL     1       1.044   4.188  20.163  0.00  0.00    +0.000 NA
ATOM     17  C   UNL     1       2.897   4.039  18.560  0.00  0.00    +0.000 C 
ATOM     18  C   UNL     1       2.731   2.480  18.575  0.00  0.00    +0.000 C 
ATOM     19  O   UNL     1       2.287   2.488  17.190  0.00  0.00    +0.000 OA
ATOM     20  C   UNL     1       1.902   3.883  17.342  0.00  0.00    +0.000 C 
ATOM     21  H   UNL     1       1.659   2.116  22.520  0.00  0.00    +0.000 HD
ATOM     22  H   UNL     1       0.575   1.803  21.283  0.00  0.00    +0.000 HD
ENDROOT
BRANCH   8  23
ATOM     23  C   UNL     1       0.503   9.677  19.909  0.00  0.00    +0.000 A 
ATOM     24  C   UNL     1       0.739  10.060  21.237  0.00  0.00    +0.000 A 
ATOM     25  F   UNL     1       1.684   9.450  21.968  0.00  0.00    +0.000 F 
ATOM     26  C   UNL     1       0.002  11.077  21.859  0.00  0.00    +0.000 A 
ATOM     27  C   UNL     1      -1.006  11.738  21.164  0.00  0.00    +0.000 A 
ATOM     28  C   UNL     1      -1.261  11.377  19.851  0.00  0.00    +0.000 A 
ATOM     29  F   UNL     1      -2.231  12.006  19.172  0.00  0.00    +0.000 F 
ATOM     30  C   UNL     1      -0.521  10.367  19.233  0.00  0.00    +0.000 A 
ATOM     31  F   UNL     1      -0.803  10.083  17.950  0.00  0.00    +0.000 F 
ENDBRANCH   8  23
TORSDOF 1
ENDMDL
MODEL 2
REMARK VINA RESULT:      -8.5      0.624      1.781
REMARK  Name = 
REMARK  3 active torsions:
REMARK  status: ('A' for Active; 'I' for Inactive)
REMARK    1  A    between atoms: C_1  and  C_2
REMARK    2  A    between atoms: C_2  and  C_3
REMARK    3  A    between atoms: C_8  and  C_9
REMARK                            x       y       z     vdW  Elec       q    Type
REMARK                         _______ _______ _______ _____ _____    ______ ____
ROOT
ATOM      1  C   UNL     1       4.743   3.791  16.885  0.00  0.00    +0.000 C 
ATOM      2  C   UNL     1       4.156   4.581  18.077  0.00  0.00    +0.000 C 
ATOM      3  C   UNL     1       5.276   4.604  19.127  0.00  0.00    +0.000 C 
ATOM      4  O   UNL     1       3.955   5.928  17.609  0.00  0.00    +0.000 OA
ATOM      5  C   UNL     1       3.000   6.700  18.219  0.00  0.00    +0.000 A 
ATOM      6  C   UNL     1       2.998   8.023  17.795  0.00  0.00    +0.000 A 
ATOM      7  C   UNL     1       2.136   8.948  18.380  0.00  0.00    +0.000 A 
ATOM      8  C   UNL     1       1.244   8.574  19.401  0.00  0.00    +0.000 A 
ATOM      9  C   UNL     1       1.194   7.206  19.751  0.00  0.00    +0.000 A 
ATOM     10  C   UNL     1       2.082   6.262  19.193  0.00  0.00    +0.000 A 
ATOM     11  C   UNL     1       2.211   4.855  19.749  0.00  0.00    +0.000 C 
ATOM     12  C   UNL     1       2.968   4.984  21.071  0.00  0.00    +0.000 C 
ATOM     13  O   UNL     1       2.716   3.750  21.706  0.00  0.00    +0.000 OA
ATOM     14  C   UNL     1       1.486   3.454  21.257  0.00  0.00    +0.000 C 
ATOM     15  N   UNL     1       0.979   2.407  21.943  0.00  0.00    +0.000 N 
ATOM     16  N   UNL     1       1.006   4.116  20.248  0.00  0.00    +0.000 NA
ATOM     17  C   UNL     1       2.814   4.000  18.591  0.00  0.00    +0.000 C 
ATOM     18  C   UNL     1       2.648   2.441  18.578  0.00  0.00    +0.000 C 
ATOM     19  O   UNL     1       2.165   2.479  17.206  0.00  0.00    +0.000 OA
ATOM     20  C   UNL     1       1.786   3.870  17.399  0.00  0.00    +0.000 C 
ATOM     21  H   UNL     1       1.686   1.996  22.543  0.00  0.00    +0.000 HD
ATOM     22  H   UNL     1       0.568   1.708  21.330  0.00  0.00    +0.000 HD
ENDROOT
BRANCH   8  23
ATOM     23  C   UNL     1       0.461   9.608  20.123  0.00  0.00    +0.000 A 
ATOM     24  C   UNL     1      -0.292  10.583  19.454  0.00  0.00    +0.000 A 
ATOM     25  F   UNL     1      -0.296  10.645  18.114  0.00  0.00    +0.000 F 
ATOM     26  C   UNL     1      -1.058  11.533  20.143  0.00  0.00    +0.000 A 
ATOM     27  C   UNL     1      -1.084  11.538  21.534  0.00  0.00    +0.000 A 
ATOM     28  C   UNL     1      -0.347  10.587  22.221  0.00  0.00    +0.000 A 
ATOM     29  F   UNL     1      -0.362  10.584  23.561  0.00  0.00    +0.000 F 
ATOM     30  C   UNL     1       0.411   9.639  21.530  0.00  0.00    +0.000 A 
ATOM     31  F   UNL     1       1.084   8.730  22.257  0.00  0.00    +0.000 F 
ENDBRANCH   8  23
TORSDOF 1
ENDMDL
MODEL 3
REMARK VINA RESULT:      -7.9      3.661      7.148
REMARK  Name = 
REMARK  3 active torsions:
REMARK  status: ('A' for Active; 'I' for Inactive)
REMARK    1  A    between atoms: C_1  and  C_2
REMARK    2  A    between atoms: C_2  and  C_3
REMARK    3  A    between atoms: C_8  and  C_9
REMARK                            x       y       z     vdW  Elec       q    Type
REMARK                         _______ _______ _______ _____ _____    ______ ____
ROOT
ATOM      1  C   UNL     1      -0.337  12.571  18.679  0.00  0.00    +0.000 C 
ATOM      2  C   UNL     1      -0.192  11.105  19.145  0.00  0.00    +0.000 C 
ATOM      3  C   UNL     1      -1.617  10.535  19.113  0.00  0.00    +0.000 C 
ATOM      4  O   UNL     1       0.581  10.434  18.133  0.00  0.00    +0.000 OA
ATOM      5  C   UNL     1       1.305   9.324  18.486  0.00  0.00    +0.000 A 
ATOM      6  C   UNL     1       1.884   8.670  17.406  0.00  0.00    +0.000 A 
ATOM      7  C   UNL     1       2.585   7.482  17.598  0.00  0.00    +0.000 A 
ATOM      8  C   UNL     1       2.737   6.918  18.878  0.00  0.00    +0.000 A 
ATOM      9  C   UNL     1       2.223   7.648  19.973  0.00  0.00    +0.000 A 
ATOM     10  C   UNL     1       1.481   8.835  19.794  0.00  0.00    +0.000 A 
ATOM     11  C   UNL     1       0.710   9.479  20.933  0.00  0.00    +0.000 C 
ATOM     12  C   UNL     1      -0.513   8.593  21.177  0.00  0.00    +0.000 C 
ATOM     13  O   UNL     1      -0.955   9.004  22.452  0.00  0.00    +0.000 OA
ATOM     14  C   UNL     1       0.198   9.341  23.050  0.00  0.00    +0.000 C 
ATOM     15  N   UNL     1      -0.003   9.545  24.370  0.00  0.00    +0.000 N 
ATOM     16  N   UNL     1       1.266   9.488  22.325  0.00  0.00    +0.000 NA
ATOM     17  C   UNL     1       0.516  10.971  20.518  0.00  0.00    +0.000 C 
ATOM     18  C   UNL     1       0.218  12.069  21.597  0.00  0.00    +0.000 C 
ATOM     19  O   UNL     1       1.283  12.909  21.072  0.00  0.00    +0.000 OA
ATOM     20  C   UNL     1       1.902  11.728  20.491  0.00  0.00    +0.000 C 
ATOM     21  H   UNL     1      -0.995   9.531  24.587  0.00  0.00    +0.000 HD
ATOM     22  H   UNL     1       0.432  10.402  24.698  0.00  0.00    +0.000 HD
ENDROOT
BRANCH   8  23
ATOM     23  C   UNL     1       3.338   5.570  19.033  0.00  0.00    +0.000 A 
ATOM     24  C   UNL     1       4.699   5.324  18.801  0.00  0.00    +0.000 A 
ATOM     25  F   UNL     1       5.510   6.305  18.378  0.00  0.00    +0.000 F 
ATOM     26  C   UNL     1       5.267   4.056  18.986  0.00  0.00    +0.000 A 
ATOM     27  C   UNL     1       4.479   2.988  19.404  0.00  0.00    +0.000 A 
ATOM     28  C   UNL     1       3.130   3.204  19.639  0.00  0.00    +0.000 A 
ATOM     29  F   UNL     1       2.361   2.182  20.040  0.00  0.00    +0.000 F 
ATOM     30  C   UNL     1       2.569   4.470  19.459  0.00  0.00    +0.000 A 
ATOM     31  F   UNL     1       1.260   4.616  19.727  0.00  0.00    +0.000 F 
ENDBRANCH   8  23
TORSDOF 1
ENDMDL
MODEL 4
REMARK VINA RESULT:      -7.8      1.215      1.240
REMARK  Name = 
REMARK  3 active torsions:
REMARK  status: ('A' for Active; 'I' for Inactive)
REMARK    1  A    between atoms: C_1  and  C_2
REMARK    2  A    between atoms: C_2  and  C_3
REMARK    3  A    between atoms: C_8  and  C_9
REMARK                            x       y       z     vdW  Elec       q    Type
REMARK                         _______ _______ _______ _____ _____    ______ ____
ROOT
ATOM      1  C   UNL     1       4.361   3.894  16.668  0.00  0.00    +0.000 C 
ATOM      2  C   UNL     1       3.925   4.646  17.946  0.00  0.00    +0.000 C 
ATOM      3  C   UNL     1       5.141   4.580  18.881  0.00  0.00    +0.000 C 
ATOM      4  O   UNL     1       3.733   6.020  17.560  0.00  0.00    +0.000 OA
ATOM      5  C   UNL     1       2.873   6.796  18.295  0.00  0.00    +0.000 A 
ATOM      6  C   UNL     1       2.884   8.136  17.931  0.00  0.00    +0.000 A 
ATOM      7  C   UNL     1       2.120   9.062  18.639  0.00  0.00    +0.000 A 
ATOM      8  C   UNL     1       1.316   8.672  19.726  0.00  0.00    +0.000 A 
ATOM      9  C   UNL     1       1.246   7.292  20.019  0.00  0.00    +0.000 A 
ATOM     10  C   UNL     1       2.038   6.345  19.335  0.00  0.00    +0.000 A 
ATOM     11  C   UNL     1       2.164   4.908  19.812  0.00  0.00    +0.000 C 
ATOM     12  C   UNL     1       3.050   4.948  21.058  0.00  0.00    +0.000 C 
ATOM     13  O   UNL     1       2.811   3.694  21.659  0.00  0.00    +0.000 OA
ATOM     14  C   UNL     1       1.533   3.463  21.321  0.00  0.00    +0.000 C 
ATOM     15  N   UNL     1       1.053   2.403  22.007  0.00  0.00    +0.000 N 
ATOM     16  N   UNL     1       0.984   4.190  20.395  0.00  0.00    +0.000 NA
ATOM     17  C   UNL     1       2.616   4.089  18.564  0.00  0.00    +0.000 C 
ATOM     18  C   UNL     1       2.388   2.540  18.498  0.00  0.00    +0.000 C 
ATOM     19  O   UNL     1       1.777   2.660  17.184  0.00  0.00    +0.000 OA
ATOM     20  C   UNL     1       1.473   4.053  17.474  0.00  0.00    +0.000 C 
ATOM     21  H   UNL     1       1.799   1.939  22.516  0.00  0.00    +0.000 HD
ATOM     22  H   UNL     1       0.557   1.750  21.407  0.00  0.00    +0.000 HD
ENDROOT
BRANCH   8  23
ATOM     23  C   UNL     1       0.650   9.698  20.567  0.00  0.00    +0.000 A 
ATOM     24  C   UNL     1      -0.200   9.360  21.630  0.00  0.00    +0.000 A 
ATOM     25  F   UNL     1      -0.482   8.077  21.900  0.00  0.00    +0.000 F 
ATOM     26  C   UNL     1      -0.797  10.333  22.443  0.00  0.00    +0.000 A 
ATOM     27  C   UNL     1      -0.563  11.685  22.206  0.00  0.00    +0.000 A 
ATOM     28  C   UNL     1       0.272  12.046  21.160  0.00  0.00    +0.000 A 
ATOM     29  F   UNL     1       0.502  13.345  20.921  0.00  0.00    +0.000 F 
ATOM     30  C   UNL     1       0.868  11.073  20.356  0.00  0.00    +0.000 A 
ATOM     31  F   UNL     1       1.685  11.491  19.374  0.00  0.00    +0.000 F 
ENDBRANCH   8  23
TORSDOF 1
ENDMDL
MODEL 5
REMARK VINA RESULT:      -7.7      3.674      7.246
REMARK  Name = 
REMARK  3 active torsions:
REMARK  status: ('A' for Active; 'I' for Inactive)
REMARK    1  A    between atoms: C_1  and  C_2
REMARK    2  A    between atoms: C_2  and  C_3
REMARK    3  A    between atoms: C_8  and  C_9
REMARK                            x       y       z     vdW  Elec       q    Type
REMARK                         _______ _______ _______ _____ _____    ______ ____
ROOT
ATOM      1  C   UNL     1      -0.451  12.631  18.706  0.00  0.00    +0.000 C 
ATOM      2  C   UNL     1      -0.260  11.163  19.149  0.00  0.00    +0.000 C 
ATOM      3  C   UNL     1      -1.668  10.551  19.113  0.00  0.00    +0.000 C 
ATOM      4  O   UNL     1       0.528  10.530  18.123  0.00  0.00    +0.000 OA
ATOM      5  C   UNL     1       1.286   9.438  18.456  0.00  0.00    +0.000 A 
ATOM      6  C   UNL     1       1.879   8.817  17.364  0.00  0.00    +0.000 A 
ATOM      7  C   UNL     1       2.616   7.648  17.535  0.00  0.00    +0.000 A 
ATOM      8  C   UNL     1       2.790   7.069  18.805  0.00  0.00    +0.000 A 
ATOM      9  C   UNL     1       2.259   7.767  19.914  0.00  0.00    +0.000 A 
ATOM     10  C   UNL     1       1.482   8.933  19.756  0.00  0.00    +0.000 A 
ATOM     11  C   UNL     1       0.697   9.537  20.908  0.00  0.00    +0.000 C 
ATOM     12  C   UNL     1      -0.498   8.612  21.142  0.00  0.00    +0.000 C 
ATOM     13  O   UNL     1      -0.947   8.989  22.425  0.00  0.00    +0.000 OA
ATOM     14  C   UNL     1       0.198   9.351  23.025  0.00  0.00    +0.000 C 
ATOM     15  N   UNL     1      -0.003   9.528  24.348  0.00  0.00    +0.000 N 
ATOM     16  N   UNL     1       1.258   9.541  22.298  0.00  0.00    +0.000 NA
ATOM     17  C   UNL     1       0.457  11.028  20.517  0.00  0.00    +0.000 C 
ATOM     18  C   UNL     1       0.131  12.100  21.614  0.00  0.00    +0.000 C 
ATOM     19  O   UNL     1       1.168  12.980  21.098  0.00  0.00    +0.000 OA
ATOM     20  C   UNL     1       1.820  11.827  20.497  0.00  0.00    +0.000 C 
ATOM     21  H   UNL     1      -0.993   9.482  24.569  0.00  0.00    +0.000 HD
ATOM     22  H   UNL     1       0.408  10.393  24.687  0.00  0.00    +0.000 HD
ENDROOT
BRANCH   8  23
ATOM     23  C   UNL     1       3.432   5.737  18.937  0.00  0.00    +0.000 A 
ATOM     24  C   UNL     1       2.749   4.622  19.444  0.00  0.00    +0.000 A 
ATOM     25  F   UNL     1       1.484   4.732  19.877  0.00  0.00    +0.000 F 
ATOM     26  C   UNL     1       3.350   3.359  19.531  0.00  0.00    +0.000 A 
ATOM     27  C   UNL     1       4.666   3.179  19.117  0.00  0.00    +0.000 A 
ATOM     28  C   UNL     1       5.364   4.265  18.614  0.00  0.00    +0.000 A 
ATOM     29  F   UNL     1       6.634   4.103  18.214  0.00  0.00    +0.000 F 
ATOM     30  C   UNL     1       4.760   5.520  18.524  0.00  0.00    +0.000 A 
ATOM     31  F   UNL     1       5.486   6.526  18.005  0.00  0.00    +0.000 F 
ENDBRANCH   8  23
TORSDOF 1
ENDMDL
MODEL 6
REMARK VINA RESULT:      -7.4      7.775     11.236
REMARK  Name = 
REMARK  3 active torsions:
REMARK  status: ('A' for Active; 'I' for Inactive)
REMARK    1  A    between atoms: C_1  and  C_2
REMARK    2  A    between atoms: C_2  and  C_3
REMARK    3  A    between atoms: C_8  and  C_9
REMARK                            x       y       z     vdW  Elec       q    Type
REMARK                         _______ _______ _______ _____ _____    ______ ____
ROOT
ATOM      1  C   UNL     1      -7.825  13.764  24.361  0.00  0.00    +0.000 C 
ATOM      2  C   UNL     1      -6.592  13.269  23.571  0.00  0.00    +0.000 C 
ATOM      3  C   UNL     1      -5.844  12.343  24.541  0.00  0.00    +0.000 C 
ATOM      4  O   UNL     1      -7.100  12.466  22.490  0.00  0.00    +0.000 OA
ATOM      5  C   UNL     1      -6.342  12.334  21.355  0.00  0.00    +0.000 A 
ATOM      6  C   UNL     1      -6.854  11.417  20.446  0.00  0.00    +0.000 A 
ATOM      7  C   UNL     1      -6.153  11.117  19.280  0.00  0.00    +0.000 A 
ATOM      8  C   UNL     1      -4.923  11.732  18.985  0.00  0.00    +0.000 A 
ATOM      9  C   UNL     1      -4.467  12.731  19.875  0.00  0.00    +0.000 A 
ATOM     10  C   UNL     1      -5.146  13.023  21.076  0.00  0.00    +0.000 A 
ATOM     11  C   UNL     1      -4.530  13.899  22.154  0.00  0.00    +0.000 C 
ATOM     12  C   UNL     1      -3.441  13.056  22.819  0.00  0.00    +0.000 C 
ATOM     13  O   UNL     1      -2.671  14.017  23.509  0.00  0.00    +0.000 OA
ATOM     14  C   UNL     1      -2.790  15.091  22.712  0.00  0.00    +0.000 C 
ATOM     15  N   UNL     1      -1.924  16.054  23.096  0.00  0.00    +0.000 N 
ATOM     16  N   UNL     1      -3.703  15.094  21.789  0.00  0.00    +0.000 NA
ATOM     17  C   UNL     1      -5.729  14.425  23.002  0.00  0.00    +0.000 C 
ATOM     18  C   UNL     1      -5.583  15.717  23.879  0.00  0.00    +0.000 C 
ATOM     19  O   UNL     1      -6.798  16.274  23.307  0.00  0.00    +0.000 OA
ATOM     20  C   UNL     1      -6.628  15.407  22.151  0.00  0.00    +0.000 C 
ATOM     21  H   UNL     1      -1.480  15.806  23.975  0.00  0.00    +0.000 HD
ATOM     22  H   UNL     1      -2.365  16.967  23.153  0.00  0.00    +0.000 HD
ENDROOT
BRANCH   8  23
ATOM     23  C   UNL     1      -4.117  11.271  17.827  0.00  0.00    +0.000 A 
ATOM     24  C   UNL     1      -4.527  11.468  16.501  0.00  0.00    +0.000 A 
ATOM     25  F   UNL     1      -5.705  12.049  16.228  0.00  0.00    +0.000 F 
ATOM     26  C   UNL     1      -3.743  11.063  15.412  0.00  0.00    +0.000 A 
ATOM     27  C   UNL     1      -2.518  10.436  15.624  0.00  0.00    +0.000 A 
ATOM     28  C   UNL     1      -2.090  10.228  16.925  0.00  0.00    +0.000 A 
ATOM     29  F   UNL     1      -0.914   9.623  17.141  0.00  0.00    +0.000 F 
ATOM     30  C   UNL     1      -2.872  10.638  18.007  0.00  0.00    +0.000 A 
ATOM     31  F   UNL     1      -2.387  10.427  19.243  0.00  0.00    +0.000 F 
ENDBRANCH   8  23
TORSDOF 1
ENDMDL
MODEL 7
REMARK VINA RESULT:      -7.3      6.335     10.553
REMARK  Name = 
REMARK  3 active torsions:
REMARK  status: ('A' for Active; 'I' for Inactive)
REMARK    1  A    between atoms: C_1  and  C_2
REMARK    2  A    between atoms: C_2  and  C_3
REMARK    3  A    between atoms: C_8  and  C_9
REMARK                            x       y       z     vdW  Elec       q    Type
REMARK                         _______ _______ _______ _____ _____    ______ ____
ROOT
ATOM      1  C   UNL     1      -5.780  16.306  24.045  0.00  0.00    +0.000 C 
ATOM      2  C   UNL     1      -5.098  15.398  22.997  0.00  0.00    +0.000 C 
ATOM      3  C   UNL     1      -5.003  16.258  21.729  0.00  0.00    +0.000 C 
ATOM      4  O   UNL     1      -3.762  15.159  23.477  0.00  0.00    +0.000 OA
ATOM      5  C   UNL     1      -3.113  14.019  23.077  0.00  0.00    +0.000 A 
ATOM      6  C   UNL     1      -1.782  13.969  23.471  0.00  0.00    +0.000 A 
ATOM      7  C   UNL     1      -0.971  12.908  23.073  0.00  0.00    +0.000 A 
ATOM      8  C   UNL     1      -1.470  11.862  22.275  0.00  0.00    +0.000 A 
ATOM      9  C   UNL     1      -2.849  11.884  21.965  0.00  0.00    +0.000 A 
ATOM     10  C   UNL     1      -3.677  12.966  22.332  0.00  0.00    +0.000 A 
ATOM     11  C   UNL     1      -5.085  13.122  21.783  0.00  0.00    +0.000 C 
ATOM     12  C   UNL     1      -4.930  13.560  20.326  0.00  0.00    +0.000 C 
ATOM     13  O   UNL     1      -6.207  13.311  19.780  0.00  0.00    +0.000 OA
ATOM     14  C   UNL     1      -6.607  12.243  20.489  0.00  0.00    +0.000 C 
ATOM     15  N   UNL     1      -7.725  11.715  19.946  0.00  0.00    +0.000 N 
ATOM     16  N   UNL     1      -5.959  11.923  21.568  0.00  0.00    +0.000 NA
ATOM     17  C   UNL     1      -5.830  14.045  22.795  0.00  0.00    +0.000 C 
ATOM     18  C   UNL     1      -7.396  14.052  22.868  0.00  0.00    +0.000 C 
ATOM     19  O   UNL     1      -7.356  13.874  24.311  0.00  0.00    +0.000 OA
ATOM     20  C   UNL     1      -6.018  13.316  24.184  0.00  0.00    +0.000 C 
ATOM     21  H   UNL     1      -8.085  12.317  19.212  0.00  0.00    +0.000 HD
ATOM     22  H   UNL     1      -8.438  11.521  20.644  0.00  0.00    +0.000 HD
ENDROOT
BRANCH   8  23
ATOM     23  C   UNL     1      -0.548  10.838  21.724  0.00  0.00    +0.000 A 
ATOM     24  C   UNL     1      -0.035   9.792  22.504  0.00  0.00    +0.000 A 
ATOM     25  F   UNL     1      -0.330   9.704  23.810  0.00  0.00    +0.000 F 
ATOM     26  C   UNL     1       0.805   8.807  21.968  0.00  0.00    +0.000 A 
ATOM     27  C   UNL     1       1.166   8.849  20.625  0.00  0.00    +0.000 A 
ATOM     28  C   UNL     1       0.675   9.874  19.831  0.00  0.00    +0.000 A 
ATOM     29  F   UNL     1       1.019   9.925  18.537  0.00  0.00    +0.000 F 
ATOM     30  C   UNL     1      -0.167  10.850  20.369  0.00  0.00    +0.000 A 
ATOM     31  F   UNL     1      -0.626  11.803  19.539  0.00  0.00    +0.000 F 
ENDBRANCH   8  23
TORSDOF 1
ENDMDL
MODEL 8
REMARK VINA RESULT:      -7.2      7.510     11.038
REMARK  Name = 
REMARK  3 active torsions:
REMARK  status: ('A' for Active; 'I' for Inactive)
REMARK    1  A    between atoms: C_1  and  C_2
REMARK    2  A    between atoms: C_2  and  C_3
REMARK    3  A    between atoms: C_8  and  C_9
REMARK                            x       y       z     vdW  Elec       q    Type
REMARK                         _______ _______ _______ _____ _____    ______ ____
ROOT
ATOM      1  C   UNL     1      -7.913  13.947  24.017  0.00  0.00    +0.000 C 
ATOM      2  C   UNL     1      -6.664  13.337  23.342  0.00  0.00    +0.000 C 
ATOM      3  C   UNL     1      -6.094  12.355  24.375  0.00  0.00    +0.000 C 
ATOM      4  O   UNL     1      -7.143  12.576  22.218  0.00  0.00    +0.000 OA
ATOM      5  C   UNL     1      -6.300  12.368  21.156  0.00  0.00    +0.000 A 
ATOM      6  C   UNL     1      -6.809  11.495  20.203  0.00  0.00    +0.000 A 
ATOM      7  C   UNL     1      -6.035  11.124  19.105  0.00  0.00    +0.000 A 
ATOM      8  C   UNL     1      -4.732  11.624  18.924  0.00  0.00    +0.000 A 
ATOM      9  C   UNL     1      -4.270  12.583  19.853  0.00  0.00    +0.000 A 
ATOM     10  C   UNL     1      -5.026  12.944  20.988  0.00  0.00    +0.000 A 
ATOM     11  C   UNL     1      -4.434  13.768  22.119  0.00  0.00    +0.000 C 
ATOM     12  C   UNL     1      -3.490  12.835  22.879  0.00  0.00    +0.000 C 
ATOM     13  O   UNL     1      -2.702  13.727  23.637  0.00  0.00    +0.000 OA
ATOM     14  C   UNL     1      -2.650  14.802  22.834  0.00  0.00    +0.000 C 
ATOM     15  N   UNL     1      -1.739  15.685  23.296  0.00  0.00    +0.000 N 
ATOM     16  N   UNL     1      -3.472  14.881  21.832  0.00  0.00    +0.000 NA
ATOM     17  C   UNL     1      -5.652  14.407  22.855  0.00  0.00    +0.000 C 
ATOM     18  C   UNL     1      -5.468  15.686  23.743  0.00  0.00    +0.000 C 
ATOM     19  O   UNL     1      -6.572  16.347  23.063  0.00  0.00    +0.000 OA
ATOM     20  C   UNL     1      -6.377  15.459  21.927  0.00  0.00    +0.000 C 
ATOM     21  H   UNL     1      -1.400  15.404  24.211  0.00  0.00    +0.000 HD
ATOM     22  H   UNL     1      -2.099  16.635  23.314  0.00  0.00    +0.000 HD
ENDROOT
BRANCH   8  23
ATOM     23  C   UNL     1      -3.870  11.083  17.844  0.00  0.00    +0.000 A 
ATOM     24  C   UNL     1      -2.637  10.468  18.104  0.00  0.00    +0.000 A 
ATOM     25  F   UNL     1      -2.164  10.386  19.357  0.00  0.00    +0.000 F 
ATOM     26  C   UNL     1      -1.845   9.927  17.082  0.00  0.00    +0.000 A 
ATOM     27  C   UNL     1      -2.267   9.996  15.758  0.00  0.00    +0.000 A 
ATOM     28  C   UNL     1      -3.480  10.600  15.472  0.00  0.00    +0.000 A 
ATOM     29  F   UNL     1      -3.895  10.674  14.200  0.00  0.00    +0.000 F 
ATOM     30  C   UNL     1      -4.269  11.133  16.494  0.00  0.00    +0.000 A 
ATOM     31  F   UNL     1      -5.446  11.685  16.151  0.00  0.00    +0.000 F 
ENDBRANCH   8  23
TORSDOF 1
ENDMDL
MODEL 9
REMARK VINA RESULT:      -7.0      5.733      9.327
REMARK  Name = 
REMARK  3 active torsions:
REMARK  status: ('A' for Active; 'I' for Inactive)
REMARK    1  A    between atoms: C_1  and  C_2
REMARK    2  A    between atoms: C_2  and  C_3
REMARK    3  A    between atoms: C_8  and  C_9
REMARK                            x       y       z     vdW  Elec       q    Type
REMARK                         _______ _______ _______ _____ _____    ______ ____
ROOT
ATOM      1  C   UNL     1      -0.599  17.394  18.524  0.00  0.00    +0.000 C 
ATOM      2  C   UNL     1      -0.247  16.160  19.385  0.00  0.00    +0.000 C 
ATOM      3  C   UNL     1      -1.122  16.288  20.640  0.00  0.00    +0.000 C 
ATOM      4  O   UNL     1      -0.694  15.009  18.644  0.00  0.00    +0.000 OA
ATOM      5  C   UNL     1      -0.081  13.803  18.867  0.00  0.00    +0.000 A 
ATOM      6  C   UNL     1      -0.693  12.739  18.218  0.00  0.00    +0.000 A 
ATOM      7  C   UNL     1      -0.231  11.438  18.411  0.00  0.00    +0.000 A 
ATOM      8  C   UNL     1       0.863  11.166  19.253  0.00  0.00    +0.000 A 
ATOM      9  C   UNL     1       1.530  12.272  19.828  0.00  0.00    +0.000 A 
ATOM     10  C   UNL     1       1.056  13.591  19.670  0.00  0.00    +0.000 A 
ATOM     11  C   UNL     1       1.606  14.745  20.490  0.00  0.00    +0.000 C 
ATOM     12  C   UNL     1       1.048  14.571  21.903  0.00  0.00    +0.000 C 
ATOM     13  O   UNL     1       1.878  15.407  22.679  0.00  0.00    +0.000 OA
ATOM     14  C   UNL     1       3.047  15.323  22.024  0.00  0.00    +0.000 C 
ATOM     15  N   UNL     1       4.033  15.882  22.757  0.00  0.00    +0.000 N 
ATOM     16  N   UNL     1       3.065  14.817  20.828  0.00  0.00    +0.000 NA
ATOM     17  C   UNL     1       1.271  16.034  19.677  0.00  0.00    +0.000 C 
ATOM     18  C   UNL     1       2.074  17.360  19.914  0.00  0.00    +0.000 C 
ATOM     19  O   UNL     1       2.309  17.503  18.485  0.00  0.00    +0.000 OA
ATOM     20  C   UNL     1       2.090  16.073  18.327  0.00  0.00    +0.000 C 
ATOM     21  H   UNL     1       3.651  16.358  23.568  0.00  0.00    +0.000 HD
ATOM     22  H   UNL     1       4.615  16.507  22.206  0.00  0.00    +0.000 HD
ENDROOT
BRANCH   8  23
ATOM     23  C   UNL     1       1.226   9.764  19.575  0.00  0.00    +0.000 A 
ATOM     24  C   UNL     1       0.946   9.182  20.819  0.00  0.00    +0.000 A 
ATOM     25  F   UNL     1       0.370   9.900  21.795  0.00  0.00    +0.000 F 
ATOM     26  C   UNL     1       1.258   7.846  21.103  0.00  0.00    +0.000 A 
ATOM     27  C   UNL     1       1.874   7.050  20.142  0.00  0.00    +0.000 A 
ATOM     28  C   UNL     1       2.164   7.600  18.904  0.00  0.00    +0.000 A 
ATOM     29  F   UNL     1       2.759   6.844  17.971  0.00  0.00    +0.000 F 
ATOM     30  C   UNL     1       1.846   8.931  18.623  0.00  0.00    +0.000 A 
ATOM     31  F   UNL     1       2.134   9.395  17.395  0.00  0.00    +0.000 F 
ENDBRANCH   8  23
TORSDOF 1
ENDMDL
