MODEL 1
REMARK VINA RESULT:      -7.2      0.000      0.000
REMARK  Name = 
REMARK  1 active torsions:
REMARK  status: ('A' for Active; 'I' for Inactive)
REMARK    1  A    between atoms: C_2  and  C_3
REMARK                            x       y       z     vdW  Elec       q    Type
REMARK                         _______ _______ _______ _____ _____    ______ ____
ROOT
ATOM      1  O   UNL     1       8.055   4.206  16.901  0.00  0.00    +0.000 OA
ATOM      2  C   UNL     1       7.152   4.832  16.337  0.00  0.00    +0.000 C 
ATOM      3  N   UNL     1       6.241   5.621  17.039  0.00  0.00    +0.000 N 
ATOM      4  C   UNL     1       6.475   5.995  18.442  0.00  0.00    +0.000 C 
ATOM      5  C   UNL     1       5.700   5.123  19.432  0.00  0.00    +0.000 C 
ATOM      6  C   UNL     1       4.221   5.022  19.029  0.00  0.00    +0.000 C 
ATOM      7  C   UNL     1       4.066   4.564  17.553  0.00  0.00    +0.000 C 
ATOM      8  C   UNL     1       4.594   3.109  17.379  0.00  0.00    +0.000 C 
ATOM      9  C   UNL     1       3.660   2.099  18.047  0.00  0.00    +0.000 C 
ATOM     10  C   UNL     1       2.230   2.268  17.543  0.00  0.00    +0.000 C 
ATOM     11  N   UNL     1       1.736   3.635  17.728  0.00  0.00    +0.000 NA
ATOM     12  C   UNL     1       2.601   4.604  17.065  0.00  0.00    +0.000 C 
ATOM     13  C   UNL     1       4.833   5.584  16.677  0.00  0.00    +0.000 C 
ATOM     14  H   UNL     1       1.688   3.846  18.724  0.00  0.00    +0.000 HD
ENDROOT
BRANCH   2  15
ATOM     15  C   UNL     1       7.026   4.677  14.867  0.00  0.00    +0.000 A 
ATOM     16  C   UNL     1       7.878   5.429  14.047  0.00  0.00    +0.000 A 
ATOM     17  C   UNL     1       7.822   5.300  12.660  0.00  0.00    +0.000 A 
ATOM     18  C   UNL     1       6.908   4.420  12.083  0.00  0.00    +0.000 A 
ATOM     19  C   UNL     1       6.033   3.697  12.897  0.00  0.00    +0.000 A 
ATOM     20 CL   UNL     1       4.910   2.609  12.177  0.00  0.00    +0.000 Cl
ATOM     21  C   UNL     1       6.071   3.835  14.285  0.00  0.00    +0.000 A 
ENDBRANCH   2  15
TORSDOF 1
ENDMDL
MODEL 2
REMARK VINA RESULT:      -7.0      1.124      1.551
REMARK  Name = 
REMARK  1 active torsions:
REMARK  status: ('A' for Active; 'I' for Inactive)
REMARK    1  A    between atoms: C_2  and  C_3
REMARK                            x       y       z     vdW  Elec       q    Type
REMARK                         _______ _______ _______ _____ _____    ______ ____
ROOT
ATOM      1  O   UNL     1       8.021   4.149  16.990  0.00  0.00    +0.000 OA
ATOM      2  C   UNL     1       7.118   4.786  16.439  0.00  0.00    +0.000 C 
ATOM      3  N   UNL     1       6.255   5.623  17.146  0.00  0.00    +0.000 N 
ATOM      4  C   UNL     1       6.549   6.030  18.528  0.00  0.00    +0.000 C 
ATOM      5  C   UNL     1       5.784   5.212  19.570  0.00  0.00    +0.000 C 
ATOM      6  C   UNL     1       4.289   5.145  19.221  0.00  0.00    +0.000 C 
ATOM      7  C   UNL     1       4.069   4.648  17.766  0.00  0.00    +0.000 C 
ATOM      8  C   UNL     1       4.547   3.173  17.618  0.00  0.00    +0.000 C 
ATOM      9  C   UNL     1       3.609   2.213  18.348  0.00  0.00    +0.000 C 
ATOM     10  C   UNL     1       2.167   2.410  17.888  0.00  0.00    +0.000 C 
ATOM     11  N   UNL     1       1.720   3.796  18.047  0.00  0.00    +0.000 NA
ATOM     12  C   UNL     1       2.591   4.719  17.326  0.00  0.00    +0.000 C 
ATOM     13  C   UNL     1       4.835   5.618  16.833  0.00  0.00    +0.000 C 
ATOM     14  H   UNL     1       1.713   4.039  19.037  0.00  0.00    +0.000 HD
ENDROOT
BRANCH   2  15
ATOM     15  C   UNL     1       6.937   4.591  14.978  0.00  0.00    +0.000 A 
ATOM     16  C   UNL     1       6.112   3.542  14.550  0.00  0.00    +0.000 A 
ATOM     17  C   UNL     1       5.884   3.332  13.190  0.00  0.00    +0.000 A 
ATOM     18  C   UNL     1       6.484   4.167  12.250  0.00  0.00    +0.000 A 
ATOM     19  C   UNL     1       7.335   5.190  12.675  0.00  0.00    +0.000 A 
ATOM     20 CL   UNL     1       8.068   6.221  11.507  0.00  0.00    +0.000 Cl
ATOM     21  C   UNL     1       7.583   5.395  14.032  0.00  0.00    +0.000 A 
ENDBRANCH   2  15
TORSDOF 1
ENDMDL
MODEL 3
REMARK VINA RESULT:      -6.9      3.042      6.241
REMARK  Name = 
REMARK  1 active torsions:
REMARK  status: ('A' for Active; 'I' for Inactive)
REMARK    1  A    between atoms: C_2  and  C_3
REMARK                            x       y       z     vdW  Elec       q    Type
REMARK                         _______ _______ _______ _____ _____    ______ ____
ROOT
ATOM      1  O   UNL     1       4.165   2.327  17.643  0.00  0.00    +0.000 OA
ATOM      2  C   UNL     1       3.796   3.498  17.518  0.00  0.00    +0.000 C 
ATOM      3  N   UNL     1       4.244   4.315  16.480  0.00  0.00    +0.000 N 
ATOM      4  C   UNL     1       4.939   3.754  15.312  0.00  0.00    +0.000 C 
ATOM      5  C   UNL     1       6.460   3.897  15.394  0.00  0.00    +0.000 C 
ATOM      6  C   UNL     1       6.854   5.339  15.748  0.00  0.00    +0.000 C 
ATOM      7  C   UNL     1       6.120   5.829  17.027  0.00  0.00    +0.000 C 
ATOM      8  C   UNL     1       6.583   5.006  18.266  0.00  0.00    +0.000 C 
ATOM      9  C   UNL     1       8.017   5.359  18.659  0.00  0.00    +0.000 C 
ATOM     10  C   UNL     1       8.169   6.864  18.864  0.00  0.00    +0.000 C 
ATOM     11  N   UNL     1       7.749   7.628  17.687  0.00  0.00    +0.000 NA
ATOM     12  C   UNL     1       6.369   7.324  17.324  0.00  0.00    +0.000 C 
ATOM     13  C   UNL     1       4.601   5.697  16.758  0.00  0.00    +0.000 C 
ATOM     14  H   UNL     1       8.363   7.409  16.903  0.00  0.00    +0.000 HD
ENDROOT
BRANCH   2  15
ATOM     15  C   UNL     1       2.885   4.043  18.555  0.00  0.00    +0.000 A 
ATOM     16  C   UNL     1       2.012   3.157  19.201  0.00  0.00    +0.000 A 
ATOM     17  C   UNL     1       1.155   3.611  20.203  0.00  0.00    +0.000 A 
ATOM     18  C   UNL     1       1.163   4.957  20.563  0.00  0.00    +0.000 A 
ATOM     19  C   UNL     1       2.007   5.848  19.896  0.00  0.00    +0.000 A 
ATOM     20 CL   UNL     1       2.013   7.508  20.350  0.00  0.00    +0.000 Cl
ATOM     21  C   UNL     1       2.853   5.405  18.879  0.00  0.00    +0.000 A 
ENDBRANCH   2  15
TORSDOF 1
ENDMDL
MODEL 4
REMARK VINA RESULT:      -6.9      3.266      5.895
REMARK  Name = 
REMARK  1 active torsions:
REMARK  status: ('A' for Active; 'I' for Inactive)
REMARK    1  A    between atoms: C_2  and  C_3
REMARK                            x       y       z     vdW  Elec       q    Type
REMARK                         _______ _______ _______ _____ _____    ______ ____
ROOT
ATOM      1  O   UNL     1       4.023   6.773  19.462  0.00  0.00    +0.000 OA
ATOM      2  C   UNL     1       4.218   5.558  19.354  0.00  0.00    +0.000 C 
ATOM      3  N   UNL     1       5.486   5.022  19.128  0.00  0.00    +0.000 N 
ATOM      4  C   UNL     1       6.700   5.834  19.303  0.00  0.00    +0.000 C 
ATOM      5  C   UNL     1       7.255   6.372  17.983  0.00  0.00    +0.000 C 
ATOM      6  C   UNL     1       7.373   5.249  16.941  0.00  0.00    +0.000 C 
ATOM      7  C   UNL     1       6.031   4.485  16.777  0.00  0.00    +0.000 C 
ATOM      8  C   UNL     1       4.941   5.425  16.182  0.00  0.00    +0.000 C 
ATOM      9  C   UNL     1       5.224   5.738  14.713  0.00  0.00    +0.000 C 
ATOM     10  C   UNL     1       5.392   4.452  13.908  0.00  0.00    +0.000 C 
ATOM     11  N   UNL     1       6.432   3.583  14.465  0.00  0.00    +0.000 NA
ATOM     12  C   UNL     1       6.153   3.251  15.858  0.00  0.00    +0.000 C 
ATOM     13  C   UNL     1       5.646   3.938  18.174  0.00  0.00    +0.000 C 
ATOM     14  H   UNL     1       7.335   4.050  14.401  0.00  0.00    +0.000 HD
ENDROOT
BRANCH   2  15
ATOM     15  C   UNL     1       3.032   4.667  19.418  0.00  0.00    +0.000 A 
ATOM     16  C   UNL     1       2.270   4.499  18.254  0.00  0.00    +0.000 A 
ATOM     17  C   UNL     1       1.162   3.650  18.251  0.00  0.00    +0.000 A 
ATOM     18  C   UNL     1       0.809   2.969  19.414  0.00  0.00    +0.000 A 
ATOM     19  C   UNL     1       1.547   3.164  20.584  0.00  0.00    +0.000 A 
ATOM     20 CL   UNL     1       1.107   2.315  22.014  0.00  0.00    +0.000 Cl
ATOM     21  C   UNL     1       2.645   4.026  20.600  0.00  0.00    +0.000 A 
ENDBRANCH   2  15
TORSDOF 1
ENDMDL
MODEL 5
REMARK VINA RESULT:      -6.8      4.090      6.474
REMARK  Name = 
REMARK  1 active torsions:
REMARK  status: ('A' for Active; 'I' for Inactive)
REMARK    1  A    between atoms: C_2  and  C_3
REMARK                            x       y       z     vdW  Elec       q    Type
REMARK                         _______ _______ _______ _____ _____    ______ ____
ROOT
ATOM      1  O   UNL     1       2.437   5.315  21.180  0.00  0.00    +0.000 OA
ATOM      2  C   UNL     1       2.192   5.500  19.984  0.00  0.00    +0.000 C 
ATOM      3  N   UNL     1       2.136   4.453  19.063  0.00  0.00    +0.000 N 
ATOM      4  C   UNL     1       2.067   3.052  19.503  0.00  0.00    +0.000 C 
ATOM      5  C   UNL     1       3.420   2.341  19.453  0.00  0.00    +0.000 C 
ATOM      6  C   UNL     1       4.102   2.558  18.093  0.00  0.00    +0.000 C 
ATOM      7  C   UNL     1       4.186   4.067  17.737  0.00  0.00    +0.000 C 
ATOM      8  C   UNL     1       5.120   4.810  18.738  0.00  0.00    +0.000 C 
ATOM      9  C   UNL     1       6.583   4.425  18.518  0.00  0.00    +0.000 C 
ATOM     10  C   UNL     1       6.988   4.647  17.064  0.00  0.00    +0.000 C 
ATOM     11  N   UNL     1       6.116   3.931  16.130  0.00  0.00    +0.000 NA
ATOM     12  C   UNL     1       4.720   4.316  16.309  0.00  0.00    +0.000 C 
ATOM     13  C   UNL     1       2.740   4.620  17.751  0.00  0.00    +0.000 C 
ATOM     14  H   UNL     1       6.213   2.927  16.277  0.00  0.00    +0.000 HD
ENDROOT
BRANCH   2  15
ATOM     15  C   UNL     1       2.008   6.901  19.531  0.00  0.00    +0.000 A 
ATOM     16  C   UNL     1       2.417   7.235  18.233  0.00  0.00    +0.000 A 
ATOM     17  C   UNL     1       2.241   8.531  17.748  0.00  0.00    +0.000 A 
ATOM     18  C   UNL     1       1.660   9.502  18.561  0.00  0.00    +0.000 A 
ATOM     19  C   UNL     1       1.286   9.179  19.867  0.00  0.00    +0.000 A 
ATOM     20 CL   UNL     1       0.564  10.384  20.863  0.00  0.00    +0.000 Cl
ATOM     21  C   UNL     1       1.475   7.890  20.367  0.00  0.00    +0.000 A 
ENDBRANCH   2  15
TORSDOF 1
ENDMDL
MODEL 6
REMARK VINA RESULT:      -6.8      3.717      6.708
REMARK  Name = 
REMARK  1 active torsions:
REMARK  status: ('A' for Active; 'I' for Inactive)
REMARK    1  A    between atoms: C_2  and  C_3
REMARK                            x       y       z     vdW  Elec       q    Type
REMARK                         _______ _______ _______ _____ _____    ______ ____
ROOT
ATOM      1  O   UNL     1       2.392   4.382  19.932  0.00  0.00    +0.000 OA
ATOM      2  C   UNL     1       2.458   5.282  19.090  0.00  0.00    +0.000 C 
ATOM      3  N   UNL     1       2.971   5.070  17.809  0.00  0.00    +0.000 N 
ATOM      4  C   UNL     1       3.182   3.711  17.288  0.00  0.00    +0.000 C 
ATOM      5  C   UNL     1       4.637   3.250  17.389  0.00  0.00    +0.000 C 
ATOM      6  C   UNL     1       5.589   4.315  16.822  0.00  0.00    +0.000 C 
ATOM      7  C   UNL     1       5.337   5.703  17.472  0.00  0.00    +0.000 C 
ATOM      8  C   UNL     1       5.690   5.664  18.988  0.00  0.00    +0.000 C 
ATOM      9  C   UNL     1       7.201   5.567  19.201  0.00  0.00    +0.000 C 
ATOM     10  C   UNL     1       7.926   6.686  18.458  0.00  0.00    +0.000 C 
ATOM     11  N   UNL     1       7.601   6.703  17.030  0.00  0.00    +0.000 NA
ATOM     12  C   UNL     1       6.163   6.830  16.815  0.00  0.00    +0.000 C 
ATOM     13  C   UNL     1       3.852   6.062  17.217  0.00  0.00    +0.000 C 
ATOM     14  H   UNL     1       7.935   5.844  16.595  0.00  0.00    +0.000 HD
ENDROOT
BRANCH   2  15
ATOM     15  C   UNL     1       2.020   6.639  19.501  0.00  0.00    +0.000 A 
ATOM     16  C   UNL     1       1.524   6.807  20.801  0.00  0.00    +0.000 A 
ATOM     17  C   UNL     1       1.125   8.067  21.249  0.00  0.00    +0.000 A 
ATOM     18  C   UNL     1       1.216   9.166  20.396  0.00  0.00    +0.000 A 
ATOM     19  C   UNL     1       1.676   8.992  19.089  0.00  0.00    +0.000 A 
ATOM     20 CL   UNL     1       1.789  10.355  18.044  0.00  0.00    +0.000 Cl
ATOM     21  C   UNL     1       2.059   7.732  18.628  0.00  0.00    +0.000 A 
ENDBRANCH   2  15
TORSDOF 1
ENDMDL
MODEL 7
REMARK VINA RESULT:      -6.7      3.810      6.774
REMARK  Name = 
REMARK  1 active torsions:
REMARK  status: ('A' for Active; 'I' for Inactive)
REMARK    1  A    between atoms: C_2  and  C_3
REMARK                            x       y       z     vdW  Elec       q    Type
REMARK                         _______ _______ _______ _____ _____    ______ ____
ROOT
ATOM      1  O   UNL     1       2.515   4.868  21.104  0.00  0.00    +0.000 OA
ATOM      2  C   UNL     1       2.258   5.419  20.029  0.00  0.00    +0.000 C 
ATOM      3  N   UNL     1       2.398   4.768  18.803  0.00  0.00    +0.000 N 
ATOM      4  C   UNL     1       2.570   3.309  18.729  0.00  0.00    +0.000 C 
ATOM      5  C   UNL     1       4.028   2.887  18.539  0.00  0.00    +0.000 C 
ATOM      6  C   UNL     1       4.679   3.673  17.390  0.00  0.00    +0.000 C 
ATOM      7  C   UNL     1       4.502   5.205  17.581  0.00  0.00    +0.000 C 
ATOM      8  C   UNL     1       5.278   5.688  18.842  0.00  0.00    +0.000 C 
ATOM      9  C   UNL     1       6.788   5.644  18.612  0.00  0.00    +0.000 C 
ATOM     10  C   UNL     1       7.168   6.424  17.356  0.00  0.00    +0.000 C 
ATOM     11  N   UNL     1       6.447   5.951  16.172  0.00  0.00    +0.000 NA
ATOM     12  C   UNL     1       5.003   6.020  16.369  0.00  0.00    +0.000 C 
ATOM     13  C   UNL     1       2.981   5.478  17.677  0.00  0.00    +0.000 C 
ATOM     14  H   UNL     1       6.717   4.989  15.972  0.00  0.00    +0.000 HD
ENDROOT
BRANCH   2  15
ATOM     15  C   UNL     1       1.837   6.842  20.073  0.00  0.00    +0.000 A 
ATOM     16  C   UNL     1       1.160   7.296  21.213  0.00  0.00    +0.000 A 
ATOM     17  C   UNL     1       0.767   8.630  21.319  0.00  0.00    +0.000 A 
ATOM     18  C   UNL     1       1.047   9.518  20.282  0.00  0.00    +0.000 A 
ATOM     19  C   UNL     1       1.690   9.059  19.130  0.00  0.00    +0.000 A 
ATOM     20 CL   UNL     1       2.036  10.163  17.856  0.00  0.00    +0.000 Cl
ATOM     21  C   UNL     1       2.069   7.721  19.009  0.00  0.00    +0.000 A 
ENDBRANCH   2  15
TORSDOF 1
ENDMDL
MODEL 8
REMARK VINA RESULT:      -6.7      4.276      6.945
REMARK  Name = 
REMARK  1 active torsions:
REMARK  status: ('A' for Active; 'I' for Inactive)
REMARK    1  A    between atoms: C_2  and  C_3
REMARK                            x       y       z     vdW  Elec       q    Type
REMARK                         _______ _______ _______ _____ _____    ______ ____
ROOT
ATOM      1  O   UNL     1       2.515   4.929  20.933  0.00  0.00    +0.000 OA
ATOM      2  C   UNL     1       2.317   5.508  19.860  0.00  0.00    +0.000 C 
ATOM      3  N   UNL     1       2.514   4.884  18.628  0.00  0.00    +0.000 N 
ATOM      4  C   UNL     1       2.678   3.426  18.528  0.00  0.00    +0.000 C 
ATOM      5  C   UNL     1       4.140   2.995  18.402  0.00  0.00    +0.000 C 
ATOM      6  C   UNL     1       4.855   3.801  17.307  0.00  0.00    +0.000 C 
ATOM      7  C   UNL     1       4.682   5.329  17.525  0.00  0.00    +0.000 C 
ATOM      8  C   UNL     1       5.396   5.775  18.835  0.00  0.00    +0.000 C 
ATOM      9  C   UNL     1       6.916   5.722  18.681  0.00  0.00    +0.000 C 
ATOM     10  C   UNL     1       7.365   6.528  17.465  0.00  0.00    +0.000 C 
ATOM     11  N   UNL     1       6.702   6.090  16.235  0.00  0.00    +0.000 NA
ATOM     12  C   UNL     1       5.250   6.168  16.360  0.00  0.00    +0.000 C 
ATOM     13  C   UNL     1       3.160   5.615  17.550  0.00  0.00    +0.000 C 
ATOM     14  H   UNL     1       6.974   5.130  16.026  0.00  0.00    +0.000 HD
ENDROOT
BRANCH   2  15
ATOM     15  C   UNL     1       1.907   6.933  19.917  0.00  0.00    +0.000 A 
ATOM     16  C   UNL     1       2.081   7.717  18.769  0.00  0.00    +0.000 A 
ATOM     17  C   UNL     1       1.686   9.055  18.758  0.00  0.00    +0.000 A 
ATOM     18  C   UNL     1       1.119   9.618  19.899  0.00  0.00    +0.000 A 
ATOM     19  C   UNL     1       0.977   8.847  21.056  0.00  0.00    +0.000 A 
ATOM     20 CL   UNL     1       0.270   9.549  22.459  0.00  0.00    +0.000 Cl
ATOM     21  C   UNL     1       1.387   7.514  21.080  0.00  0.00    +0.000 A 
ENDBRANCH   2  15
TORSDOF 1
ENDMDL
MODEL 9
REMARK VINA RESULT:      -6.7      4.434      6.207
REMARK  Name = 
REMARK  1 active torsions:
REMARK  status: ('A' for Active; 'I' for Inactive)
REMARK    1  A    between atoms: C_2  and  C_3
REMARK                            x       y       z     vdW  Elec       q    Type
REMARK                         _______ _______ _______ _____ _____    ______ ____
ROOT
ATOM      1  O   UNL     1       3.866   7.070  16.928  0.00  0.00    +0.000 OA
ATOM      2  C   UNL     1       3.576   7.053  18.128  0.00  0.00    +0.000 C 
ATOM      3  N   UNL     1       4.188   6.184  19.032  0.00  0.00    +0.000 N 
ATOM      4  C   UNL     1       5.413   5.452  18.677  0.00  0.00    +0.000 C 
ATOM      5  C   UNL     1       5.146   4.006  18.256  0.00  0.00    +0.000 C 
ATOM      6  C   UNL     1       4.243   3.297  19.277  0.00  0.00    +0.000 C 
ATOM      7  C   UNL     1       2.946   4.109  19.546  0.00  0.00    +0.000 C 
ATOM      8  C   UNL     1       2.069   4.170  18.260  0.00  0.00    +0.000 C 
ATOM      9  C   UNL     1       1.444   2.810  17.952  0.00  0.00    +0.000 C 
ATOM     10  C   UNL     1       0.678   2.279  19.160  0.00  0.00    +0.000 C 
ATOM     11  N   UNL     1       1.516   2.207  20.360  0.00  0.00    +0.000 NA
ATOM     12  C   UNL     1       2.090   3.509  20.683  0.00  0.00    +0.000 C 
ATOM     13  C   UNL     1       3.381   5.511  20.037  0.00  0.00    +0.000 C 
ATOM     14  H   UNL     1       2.265   1.533  20.210  0.00  0.00    +0.000 HD
ENDROOT
BRANCH   2  15
ATOM     15  C   UNL     1       2.497   7.965  18.585  0.00  0.00    +0.000 A 
ATOM     16  C   UNL     1       1.956   8.864  17.657  0.00  0.00    +0.000 A 
ATOM     17  C   UNL     1       0.920   9.723  18.025  0.00  0.00    +0.000 A 
ATOM     18  C   UNL     1       0.423   9.690  19.327  0.00  0.00    +0.000 A 
ATOM     19  C   UNL     1       0.987   8.819  20.262  0.00  0.00    +0.000 A 
ATOM     20 CL   UNL     1       0.364   8.782  21.866  0.00  0.00    +0.000 Cl
ATOM     21  C   UNL     1       2.036   7.970  19.907  0.00  0.00    +0.000 A 
ENDBRANCH   2  15
TORSDOF 1
ENDMDL
