MODEL 1
REMARK VINA RESULT:      -7.2      0.000      0.000
REMARK  Name = 
REMARK  13 active torsions:
REMARK  status: ('A' for Active; 'I' for Inactive)
REMARK    1  A    between atoms: C_1  and  C_2
REMARK    2  A    between atoms: C_4  and  C_5
REMARK    3  A    between atoms: C_6  and  O_7
REMARK    4  A    between atoms: O_7  and  C_8
REMARK    5  A    between atoms: C_8  and  C_9
REMARK    6  A    between atoms: C_9  and  O_10
REMARK    7  A    between atoms: O_10  and  C_11
REMARK    8  A    between atoms: C_11  and  C_12
REMARK    9  A    between atoms: C_12  and  N_13
REMARK   10  A    between atoms: N_16  and  C_17
REMARK   11  A    between atoms: C_17  and  C_18
REMARK   12  A    between atoms: C_18  and  C_19
REMARK   13  A    between atoms: C_27  and  C_28
REMARK                            x       y       z     vdW  Elec       q    Type
REMARK                         _______ _______ _______ _____ _____    ______ ____
ROOT
ATOM      1  C   UNL     1       5.357   4.990  19.087  0.00  0.00    +0.000 C 
ENDROOT
BRANCH   1   2
ATOM      2  N   UNL     1       5.995   4.369  17.909  0.00  0.00    +0.000 NA
ATOM      3  C   UNL     1       5.129   4.168  16.727  0.00  0.00    +0.000 C 
ATOM      4  C   UNL     1       5.112   5.361  15.778  0.00  0.00    +0.000 C 
ATOM      5  N   UNL     1       6.487   5.703  15.358  0.00  0.00    +0.000 NA
ATOM      6  C   UNL     1       7.246   6.083  16.566  0.00  0.00    +0.000 C 
ATOM      7  C   UNL     1       7.329   4.920  17.576  0.00  0.00    +0.000 C 
BRANCH   5   8
ATOM      8  C   UNL     1       7.201   4.654  14.567  0.00  0.00    +0.000 C 
BRANCH   8   9
ATOM      9  C   UNL     1       7.225   4.924  13.051  0.00  0.00    +0.000 C 
BRANCH   9  10
ATOM     10  C   UNL     1       6.690   3.747  12.295  0.00  0.00    +0.000 A 
ATOM     11  C   UNL     1       5.301   3.543  12.213  0.00  0.00    +0.000 A 
ATOM     12  C   UNL     1       4.792   2.436  11.536  0.00  0.00    +0.000 A 
ATOM     13  C   UNL     1       5.663   1.526  10.929  0.00  0.00    +0.000 A 
ATOM     14  C   UNL     1       7.046   1.728  10.996  0.00  0.00    +0.000 A 
ATOM     15  C   UNL     1       7.559   2.836  11.673  0.00  0.00    +0.000 A 
ENDBRANCH   9  10
ENDBRANCH   8   9
ENDBRANCH   5   8
ENDBRANCH   1   2
BRANCH   1  16
ATOM     16  C   UNL     1       4.016   4.304  19.399  0.00  0.00    +0.000 C 
BRANCH  16  17
ATOM     17  O   UNL     1       3.321   5.108  20.334  0.00  0.00    +0.000 OA
BRANCH  17  18
ATOM     18  C   UNL     1       2.364   5.947  19.718  0.00  0.00    +0.000 C 
BRANCH  18  19
ATOM     19  C   UNL     1       1.440   6.670  20.711  0.00  0.00    +0.000 C 
BRANCH  19  20
ATOM     20  O   UNL     1       1.735   8.013  20.804  0.00  0.00    +0.000 OA
BRANCH  20  26
ATOM     21  C   UNL     1      -1.661  12.356  19.304  0.00  0.00    +0.000 C 
ATOM     22  C   UNL     1      -0.731  11.243  19.700  0.00  0.00    +0.000 A 
ATOM     23  C   UNL     1      -0.652  10.792  21.016  0.00  0.00    +0.000 A 
ATOM     24  C   UNL     1       0.219   9.745  21.363  0.00  0.00    +0.000 A 
ATOM     25  C   UNL     1       0.310   9.357  22.814  0.00  0.00    +0.000 C 
ATOM     26  C   UNL     1       1.000   9.094  20.375  0.00  0.00    +0.000 A 
ATOM     27  C   UNL     1       0.944   9.594  19.026  0.00  0.00    +0.000 A 
ATOM     28  C   UNL     1       1.733   9.125  17.825  0.00  0.00    +0.000 C 
ATOM     29  C   UNL     1       0.081  10.665  18.729  0.00  0.00    +0.000 A 
ENDBRANCH  20  26
ENDBRANCH  19  20
ENDBRANCH  18  19
ENDBRANCH  17  18
ENDBRANCH  16  17
ENDBRANCH   1  16
TORSDOF 10
ENDMDL
MODEL 2
REMARK VINA RESULT:      -7.1      2.780      4.643
REMARK  Name = 
REMARK  13 active torsions:
REMARK  status: ('A' for Active; 'I' for Inactive)
REMARK    1  A    between atoms: C_1  and  C_2
REMARK    2  A    between atoms: C_4  and  C_5
REMARK    3  A    between atoms: C_6  and  O_7
REMARK    4  A    between atoms: O_7  and  C_8
REMARK    5  A    between atoms: C_8  and  C_9
REMARK    6  A    between atoms: C_9  and  O_10
REMARK    7  A    between atoms: O_10  and  C_11
REMARK    8  A    between atoms: C_11  and  C_12
REMARK    9  A    between atoms: C_12  and  N_13
REMARK   10  A    between atoms: N_16  and  C_17
REMARK   11  A    between atoms: C_17  and  C_18
REMARK   12  A    between atoms: C_18  and  C_19
REMARK   13  A    between atoms: C_27  and  C_28
REMARK                            x       y       z     vdW  Elec       q    Type
REMARK                         _______ _______ _______ _____ _____    ______ ____
ROOT
ATOM      1  C   UNL     1       1.130   2.173  19.083  0.00  0.00    +0.000 C 
ENDROOT
BRANCH   1   2
ATOM      2  N   UNL     1       2.128   2.286  18.002  0.00  0.00    +0.000 NA
ATOM      3  C   UNL     1       2.181   3.585  17.296  0.00  0.00    +0.000 C 
ATOM      4  C   UNL     1       3.133   4.586  17.940  0.00  0.00    +0.000 C 
ATOM      5  N   UNL     1       4.487   4.006  18.056  0.00  0.00    +0.000 NA
ATOM      6  C   UNL     1       4.397   2.822  18.934  0.00  0.00    +0.000 C 
ATOM      7  C   UNL     1       3.463   1.745  18.344  0.00  0.00    +0.000 C 
BRANCH   5   8
ATOM      8  C   UNL     1       5.165   3.683  16.764  0.00  0.00    +0.000 C 
BRANCH   8   9
ATOM      9  C   UNL     1       5.732   4.912  16.031  0.00  0.00    +0.000 C 
BRANCH   9  10
ATOM     10  C   UNL     1       6.613   5.712  16.940  0.00  0.00    +0.000 A 
ATOM     11  C   UNL     1       7.250   5.083  18.024  0.00  0.00    +0.000 A 
ATOM     12  C   UNL     1       8.050   5.822  18.894  0.00  0.00    +0.000 A 
ATOM     13  C   UNL     1       8.226   7.194  18.688  0.00  0.00    +0.000 A 
ATOM     14  C   UNL     1       7.604   7.825  17.606  0.00  0.00    +0.000 A 
ATOM     15  C   UNL     1       6.802   7.088  16.732  0.00  0.00    +0.000 A 
ENDBRANCH   9  10
ENDBRANCH   8   9
ENDBRANCH   5   8
ENDBRANCH   1   2
BRANCH   1  16
ATOM     16  C   UNL     1       0.754   3.563  19.620  0.00  0.00    +0.000 C 
BRANCH  16  17
ATOM     17  O   UNL     1       1.399   3.740  20.869  0.00  0.00    +0.000 OA
BRANCH  17  18
ATOM     18  C   UNL     1       2.138   4.943  20.929  0.00  0.00    +0.000 C 
BRANCH  18  19
ATOM     19  C   UNL     1       1.266   6.208  20.942  0.00  0.00    +0.000 C 
BRANCH  19  20
ATOM     20  O   UNL     1       1.963   7.318  20.513  0.00  0.00    +0.000 OA
BRANCH  20  26
ATOM     21  C   UNL     1       0.375  12.518  18.759  0.00  0.00    +0.000 C 
ATOM     22  C   UNL     1       0.749  11.135  19.212  0.00  0.00    +0.000 A 
ATOM     23  C   UNL     1       1.417  10.247  18.372  0.00  0.00    +0.000 A 
ATOM     24  C   UNL     1       1.765   8.960  18.819  0.00  0.00    +0.000 A 
ATOM     25  C   UNL     1       2.418   8.027  17.836  0.00  0.00    +0.000 C 
ATOM     26  C   UNL     1       1.485   8.555  20.148  0.00  0.00    +0.000 A 
ATOM     27  C   UNL     1       0.758   9.462  20.997  0.00  0.00    +0.000 A 
ATOM     28  C   UNL     1       0.277   9.231  22.411  0.00  0.00    +0.000 C 
ATOM     29  C   UNL     1       0.402  10.729  20.498  0.00  0.00    +0.000 A 
ENDBRANCH  20  26
ENDBRANCH  19  20
ENDBRANCH  18  19
ENDBRANCH  17  18
ENDBRANCH  16  17
ENDBRANCH   1  16
TORSDOF 10
ENDMDL
MODEL 3
REMARK VINA RESULT:      -7.1      0.367      1.899
REMARK  Name = 
REMARK  13 active torsions:
REMARK  status: ('A' for Active; 'I' for Inactive)
REMARK    1  A    between atoms: C_1  and  C_2
REMARK    2  A    between atoms: C_4  and  C_5
REMARK    3  A    between atoms: C_6  and  O_7
REMARK    4  A    between atoms: O_7  and  C_8
REMARK    5  A    between atoms: C_8  and  C_9
REMARK    6  A    between atoms: C_9  and  O_10
REMARK    7  A    between atoms: O_10  and  C_11
REMARK    8  A    between atoms: C_11  and  C_12
REMARK    9  A    between atoms: C_12  and  N_13
REMARK   10  A    between atoms: N_16  and  C_17
REMARK   11  A    between atoms: C_17  and  C_18
REMARK   12  A    between atoms: C_18  and  C_19
REMARK   13  A    between atoms: C_27  and  C_28
REMARK                            x       y       z     vdW  Elec       q    Type
REMARK                         _______ _______ _______ _____ _____    ______ ____
ROOT
ATOM      1  C   UNL     1       4.862   5.039  19.080  0.00  0.00    +0.000 C 
ENDROOT
BRANCH   1   2
ATOM      2  N   UNL     1       5.563   4.406  17.946  0.00  0.00    +0.000 NA
ATOM      3  C   UNL     1       4.841   4.398  16.655  0.00  0.00    +0.000 C 
ATOM      4  C   UNL     1       5.106   5.635  15.805  0.00  0.00    +0.000 C 
ATOM      5  N   UNL     1       6.557   5.806  15.584  0.00  0.00    +0.000 NA
ATOM      6  C   UNL     1       7.194   6.004  16.902  0.00  0.00    +0.000 C 
ATOM      7  C   UNL     1       6.990   4.783  17.822  0.00  0.00    +0.000 C 
BRANCH   5   8
ATOM      8  C   UNL     1       7.225   4.716  14.808  0.00  0.00    +0.000 C 
BRANCH   8   9
ATOM      9  C   UNL     1       7.297   4.982  13.293  0.00  0.00    +0.000 C 
BRANCH   9  10
ATOM     10  C   UNL     1       6.608   3.892  12.531  0.00  0.00    +0.000 A 
ATOM     11  C   UNL     1       7.372   2.915  11.867  0.00  0.00    +0.000 A 
ATOM     12  C   UNL     1       6.744   1.913  11.131  0.00  0.00    +0.000 A 
ATOM     13  C   UNL     1       5.348   1.871  11.054  0.00  0.00    +0.000 A 
ATOM     14  C   UNL     1       4.581   2.833  11.720  0.00  0.00    +0.000 A 
ATOM     15  C   UNL     1       5.207   3.839  12.459  0.00  0.00    +0.000 A 
ENDBRANCH   9  10
ENDBRANCH   8   9
ENDBRANCH   5   8
ENDBRANCH   1   2
BRANCH   1  16
ATOM     16  C   UNL     1       3.713   4.145  19.573  0.00  0.00    +0.000 C 
BRANCH  16  17
ATOM     17  O   UNL     1       2.995   4.859  20.562  0.00  0.00    +0.000 OA
BRANCH  17  18
ATOM     18  C   UNL     1       1.921   5.601  20.019  0.00  0.00    +0.000 C 
BRANCH  18  19
ATOM     19  C   UNL     1       1.383   6.694  20.957  0.00  0.00    +0.000 C 
BRANCH  19  20
ATOM     20  O   UNL     1       1.760   7.955  20.547  0.00  0.00    +0.000 OA
BRANCH  20  26
ATOM     21  C   UNL     1      -1.155  12.699  19.268  0.00  0.00    +0.000 C 
ATOM     22  C   UNL     1      -0.427  11.426  19.600  0.00  0.00    +0.000 A 
ATOM     23  C   UNL     1       0.320  10.742  18.644  0.00  0.00    +0.000 A 
ATOM     24  C   UNL     1       0.998   9.557  18.978  0.00  0.00    +0.000 A 
ATOM     25  C   UNL     1       1.724   8.828  17.880  0.00  0.00    +0.000 C 
ATOM     26  C   UNL     1       0.976   9.059  20.305  0.00  0.00    +0.000 A 
ATOM     27  C   UNL     1       0.168   9.748  21.277  0.00  0.00    +0.000 A 
ATOM     28  C   UNL     1      -0.078   9.371  22.720  0.00  0.00    +0.000 C 
ATOM     29  C   UNL     1      -0.520  10.913  20.891  0.00  0.00    +0.000 A 
ENDBRANCH  20  26
ENDBRANCH  19  20
ENDBRANCH  18  19
ENDBRANCH  17  18
ENDBRANCH  16  17
ENDBRANCH   1  16
TORSDOF 10
ENDMDL
MODEL 4
REMARK VINA RESULT:      -7.0      2.578      4.140
REMARK  Name = 
REMARK  13 active torsions:
REMARK  status: ('A' for Active; 'I' for Inactive)
REMARK    1  A    between atoms: C_1  and  C_2
REMARK    2  A    between atoms: C_4  and  C_5
REMARK    3  A    between atoms: C_6  and  O_7
REMARK    4  A    between atoms: O_7  and  C_8
REMARK    5  A    between atoms: C_8  and  C_9
REMARK    6  A    between atoms: C_9  and  O_10
REMARK    7  A    between atoms: O_10  and  C_11
REMARK    8  A    between atoms: C_11  and  C_12
REMARK    9  A    between atoms: C_12  and  N_13
REMARK   10  A    between atoms: N_16  and  C_17
REMARK   11  A    between atoms: C_17  and  C_18
REMARK   12  A    between atoms: C_18  and  C_19
REMARK   13  A    between atoms: C_27  and  C_28
REMARK                            x       y       z     vdW  Elec       q    Type
REMARK                         _______ _______ _______ _____ _____    ______ ____
ROOT
ATOM      1  C   UNL     1       1.789   2.476  20.094  0.00  0.00    +0.000 C 
ENDROOT
BRANCH   1   2
ATOM      2  N   UNL     1       2.905   2.237  19.157  0.00  0.00    +0.000 NA
ATOM      3  C   UNL     1       2.579   2.328  17.717  0.00  0.00    +0.000 C 
ATOM      4  C   UNL     1       2.731   3.734  17.149  0.00  0.00    +0.000 C 
ATOM      5  N   UNL     1       4.094   4.246  17.402  0.00  0.00    +0.000 NA
ATOM      6  C   UNL     1       4.285   4.315  18.865  0.00  0.00    +0.000 C 
ATOM      7  C   UNL     1       4.166   2.923  19.521  0.00  0.00    +0.000 C 
BRANCH   5   8
ATOM      8  C   UNL     1       5.201   3.493  16.738  0.00  0.00    +0.000 C 
BRANCH   8   9
ATOM      9  C   UNL     1       6.204   4.389  15.989  0.00  0.00    +0.000 C 
BRANCH   9  10
ATOM     10  C   UNL     1       6.864   5.349  16.931  0.00  0.00    +0.000 A 
ATOM     11  C   UNL     1       6.872   6.723  16.635  0.00  0.00    +0.000 A 
ATOM     12  C   UNL     1       7.507   7.623  17.489  0.00  0.00    +0.000 A 
ATOM     13  C   UNL     1       8.136   7.160  18.650  0.00  0.00    +0.000 A 
ATOM     14  C   UNL     1       8.123   5.796  18.957  0.00  0.00    +0.000 A 
ATOM     15  C   UNL     1       7.487   4.892  18.104  0.00  0.00    +0.000 A 
ENDBRANCH   9  10
ENDBRANCH   8   9
ENDBRANCH   5   8
ENDBRANCH   1   2
BRANCH   1  16
ATOM     16  C   UNL     1       0.992   3.723  19.679  0.00  0.00    +0.000 C 
BRANCH  16  17
ATOM     17  O   UNL     1       0.999   4.630  20.766  0.00  0.00    +0.000 OA
BRANCH  17  18
ATOM     18  C   UNL     1       1.667   5.837  20.458  0.00  0.00    +0.000 C 
BRANCH  18  19
ATOM     19  C   UNL     1       1.270   7.015  21.362  0.00  0.00    +0.000 C 
BRANCH  19  20
ATOM     20  O   UNL     1       1.690   8.223  20.847  0.00  0.00    +0.000 OA
BRANCH  20  26
ATOM     21  C   UNL     1      -1.595  11.936  18.006  0.00  0.00    +0.000 C 
ATOM     22  C   UNL     1      -0.695  10.989  18.750  0.00  0.00    +0.000 A 
ATOM     23  C   UNL     1      -0.735  10.884  20.138  0.00  0.00    +0.000 A 
ATOM     24  C   UNL     1       0.110   9.987  20.814  0.00  0.00    +0.000 A 
ATOM     25  C   UNL     1       0.069   9.979  22.319  0.00  0.00    +0.000 C 
ATOM     26  C   UNL     1       0.987   9.137  20.096  0.00  0.00    +0.000 A 
ATOM     27  C   UNL     1       1.053   9.280  18.665  0.00  0.00    +0.000 A 
ATOM     28  C   UNL     1       1.956   8.552  17.695  0.00  0.00    +0.000 C 
ATOM     29  C   UNL     1       0.211  10.213  18.032  0.00  0.00    +0.000 A 
ENDBRANCH  20  26
ENDBRANCH  19  20
ENDBRANCH  18  19
ENDBRANCH  17  18
ENDBRANCH  16  17
ENDBRANCH   1  16
TORSDOF 10
ENDMDL
MODEL 5
REMARK VINA RESULT:      -7.0      0.737      1.507
REMARK  Name = 
REMARK  13 active torsions:
REMARK  status: ('A' for Active; 'I' for Inactive)
REMARK    1  A    between atoms: C_1  and  C_2
REMARK    2  A    between atoms: C_4  and  C_5
REMARK    3  A    between atoms: C_6  and  O_7
REMARK    4  A    between atoms: O_7  and  C_8
REMARK    5  A    between atoms: C_8  and  C_9
REMARK    6  A    between atoms: C_9  and  O_10
REMARK    7  A    between atoms: O_10  and  C_11
REMARK    8  A    between atoms: C_11  and  C_12
REMARK    9  A    between atoms: C_12  and  N_13
REMARK   10  A    between atoms: N_16  and  C_17
REMARK   11  A    between atoms: C_17  and  C_18
REMARK   12  A    between atoms: C_18  and  C_19
REMARK   13  A    between atoms: C_27  and  C_28
REMARK                            x       y       z     vdW  Elec       q    Type
REMARK                         _______ _______ _______ _____ _____    ______ ____
ROOT
ATOM      1  C   UNL     1       4.958   5.113  19.346  0.00  0.00    +0.000 C 
ENDROOT
BRANCH   1   2
ATOM      2  N   UNL     1       5.216   5.630  17.988  0.00  0.00    +0.000 NA
ATOM      3  C   UNL     1       6.636   5.825  17.622  0.00  0.00    +0.000 C 
ATOM      4  C   UNL     1       7.278   4.589  17.003  0.00  0.00    +0.000 C 
ATOM      5  N   UNL     1       6.500   4.139  15.830  0.00  0.00    +0.000 NA
ATOM      6  C   UNL     1       5.148   3.774  16.298  0.00  0.00    +0.000 C 
ATOM      7  C   UNL     1       4.417   4.980  16.924  0.00  0.00    +0.000 C 
BRANCH   5   8
ATOM      8  C   UNL     1       6.445   5.098  14.684  0.00  0.00    +0.000 C 
BRANCH   8   9
ATOM      9  C   UNL     1       7.226   4.632  13.442  0.00  0.00    +0.000 C 
BRANCH   9  10
ATOM     10  C   UNL     1       6.387   3.722  12.600  0.00  0.00    +0.000 A 
ATOM     11  C   UNL     1       6.965   2.578  12.020  0.00  0.00    +0.000 A 
ATOM     12  C   UNL     1       6.202   1.738  11.211  0.00  0.00    +0.000 A 
ATOM     13  C   UNL     1       4.854   2.028  10.977  0.00  0.00    +0.000 A 
ATOM     14  C   UNL     1       4.269   3.157  11.558  0.00  0.00    +0.000 A 
ATOM     15  C   UNL     1       5.030   4.001  12.370  0.00  0.00    +0.000 A 
ENDBRANCH   9  10
ENDBRANCH   8   9
ENDBRANCH   5   8
ENDBRANCH   1   2
BRANCH   1  16
ATOM     16  C   UNL     1       3.849   4.048  19.318  0.00  0.00    +0.000 C 
BRANCH  16  17
ATOM     17  O   UNL     1       2.771   4.518  20.105  0.00  0.00    +0.000 OA
BRANCH  17  18
ATOM     18  C   UNL     1       2.361   5.820  19.737  0.00  0.00    +0.000 C 
BRANCH  18  19
ATOM     19  C   UNL     1       1.560   6.551  20.827  0.00  0.00    +0.000 C 
BRANCH  19  20
ATOM     20  O   UNL     1       1.831   7.903  20.845  0.00  0.00    +0.000 OA
BRANCH  20  26
ATOM     21  C   UNL     1      -1.466  12.054  18.712  0.00  0.00    +0.000 C 
ATOM     22  C   UNL     1      -0.563  10.992  19.277  0.00  0.00    +0.000 A 
ATOM     23  C   UNL     1      -0.627  10.618  20.617  0.00  0.00    +0.000 A 
ATOM     24  C   UNL     1       0.221   9.617  21.123  0.00  0.00    +0.000 A 
ATOM     25  C   UNL     1       0.151   9.314  22.596  0.00  0.00    +0.000 C 
ATOM     26  C   UNL     1       1.126   8.936  20.271  0.00  0.00    +0.000 A 
ATOM     27  C   UNL     1       1.215   9.357  18.898  0.00  0.00    +0.000 A 
ATOM     28  C   UNL     1       2.150   8.845  17.825  0.00  0.00    +0.000 C 
ATOM     29  C   UNL     1       0.369  10.384  18.441  0.00  0.00    +0.000 A 
ENDBRANCH  20  26
ENDBRANCH  19  20
ENDBRANCH  18  19
ENDBRANCH  17  18
ENDBRANCH  16  17
ENDBRANCH   1  16
TORSDOF 10
ENDMDL
MODEL 6
REMARK VINA RESULT:      -6.9      5.912      8.421
REMARK  Name = 
REMARK  13 active torsions:
REMARK  status: ('A' for Active; 'I' for Inactive)
REMARK    1  A    between atoms: C_1  and  C_2
REMARK    2  A    between atoms: C_4  and  C_5
REMARK    3  A    between atoms: C_6  and  O_7
REMARK    4  A    between atoms: O_7  and  C_8
REMARK    5  A    between atoms: C_8  and  C_9
REMARK    6  A    between atoms: C_9  and  O_10
REMARK    7  A    between atoms: O_10  and  C_11
REMARK    8  A    between atoms: C_11  and  C_12
REMARK    9  A    between atoms: C_12  and  N_13
REMARK   10  A    between atoms: N_16  and  C_17
REMARK   11  A    between atoms: C_17  and  C_18
REMARK   12  A    between atoms: C_18  and  C_19
REMARK   13  A    between atoms: C_27  and  C_28
REMARK                            x       y       z     vdW  Elec       q    Type
REMARK                         _______ _______ _______ _____ _____    ______ ____
ROOT
ATOM      1  C   UNL     1       7.772   7.304  17.196  0.00  0.00    +0.000 C 
ENDROOT
BRANCH   1   2
ATOM      2  N   UNL     1       6.889   6.261  17.754  0.00  0.00    +0.000 NA
ATOM      3  C   UNL     1       5.435   6.474  17.576  0.00  0.00    +0.000 C 
ATOM      4  C   UNL     1       4.892   5.888  16.279  0.00  0.00    +0.000 C 
ATOM      5  N   UNL     1       5.218   4.449  16.188  0.00  0.00    +0.000 NA
ATOM      6  C   UNL     1       6.689   4.320  16.174  0.00  0.00    +0.000 C 
ATOM      7  C   UNL     1       7.321   4.875  17.467  0.00  0.00    +0.000 C 
BRANCH   5   8
ATOM      8  C   UNL     1       4.599   3.579  17.235  0.00  0.00    +0.000 C 
BRANCH   8   9
ATOM      9  C   UNL     1       3.068   3.466  17.127  0.00  0.00    +0.000 C 
BRANCH   9  10
ATOM     10  C   UNL     1       2.431   3.582  18.478  0.00  0.00    +0.000 A 
ATOM     11  C   UNL     1       1.920   2.434  19.109  0.00  0.00    +0.000 A 
ATOM     12  C   UNL     1       1.301   2.533  20.354  0.00  0.00    +0.000 A 
ATOM     13  C   UNL     1       1.190   3.777  20.983  0.00  0.00    +0.000 A 
ATOM     14  C   UNL     1       1.705   4.922  20.367  0.00  0.00    +0.000 A 
ATOM     15  C   UNL     1       2.327   4.826  19.120  0.00  0.00    +0.000 A 
ENDBRANCH   9  10
ENDBRANCH   8   9
ENDBRANCH   5   8
ENDBRANCH   1   2
BRANCH   1  16
ATOM     16  C   UNL     1       8.133   8.340  18.272  0.00  0.00    +0.000 C 
BRANCH  16  17
ATOM     17  O   UNL     1       7.828   9.626  17.762  0.00  0.00    +0.000 OA
BRANCH  17  18
ATOM     18  C   UNL     1       8.670  10.630  18.291  0.00  0.00    +0.000 C 
BRANCH  18  19
ATOM     19  C   UNL     1       9.498  10.172  19.503  0.00  0.00    +0.000 C 
BRANCH  19  20
ATOM     20  O   UNL     1      10.327  11.171  19.966  0.00  0.00    +0.000 OA
BRANCH  20  26
ATOM     21  C   UNL     1      10.224  16.853  19.378  0.00  0.00    +0.000 C 
ATOM     22  C   UNL     1      10.211  15.356  19.509  0.00  0.00    +0.000 A 
ATOM     23  C   UNL     1      10.965  14.543  18.666  0.00  0.00    +0.000 A 
ATOM     24  C   UNL     1      10.943  13.145  18.811  0.00  0.00    +0.000 A 
ATOM     25  C   UNL     1      11.722  12.323  17.819  0.00  0.00    +0.000 C 
ATOM     26  C   UNL     1      10.192  12.535  19.847  0.00  0.00    +0.000 A 
ATOM     27  C   UNL     1       9.384  13.379  20.687  0.00  0.00    +0.000 A 
ATOM     28  C   UNL     1       8.444  12.963  21.797  0.00  0.00    +0.000 C 
ATOM     29  C   UNL     1       9.411  14.771  20.487  0.00  0.00    +0.000 A 
ENDBRANCH  20  26
ENDBRANCH  19  20
ENDBRANCH  18  19
ENDBRANCH  17  18
ENDBRANCH  16  17
ENDBRANCH   1  16
TORSDOF 10
ENDMDL
MODEL 7
REMARK VINA RESULT:      -6.9      1.279      2.077
REMARK  Name = 
REMARK  13 active torsions:
REMARK  status: ('A' for Active; 'I' for Inactive)
REMARK    1  A    between atoms: C_1  and  C_2
REMARK    2  A    between atoms: C_4  and  C_5
REMARK    3  A    between atoms: C_6  and  O_7
REMARK    4  A    between atoms: O_7  and  C_8
REMARK    5  A    between atoms: C_8  and  C_9
REMARK    6  A    between atoms: C_9  and  O_10
REMARK    7  A    between atoms: O_10  and  C_11
REMARK    8  A    between atoms: C_11  and  C_12
REMARK    9  A    between atoms: C_12  and  N_13
REMARK   10  A    between atoms: N_16  and  C_17
REMARK   11  A    between atoms: C_17  and  C_18
REMARK   12  A    between atoms: C_18  and  C_19
REMARK   13  A    between atoms: C_27  and  C_28
REMARK                            x       y       z     vdW  Elec       q    Type
REMARK                         _______ _______ _______ _____ _____    ______ ____
ROOT
ATOM      1  C   UNL     1       2.586   3.190  19.117  0.00  0.00    +0.000 C 
ENDROOT
BRANCH   1   2
ATOM      2  N   UNL     1       3.121   3.766  17.868  0.00  0.00    +0.000 NA
ATOM      3  C   UNL     1       2.882   5.211  17.660  0.00  0.00    +0.000 C 
ATOM      4  C   UNL     1       3.977   6.096  18.244  0.00  0.00    +0.000 C 
ATOM      5  N   UNL     1       5.296   5.708  17.702  0.00  0.00    +0.000 NA
ATOM      6  C   UNL     1       5.560   4.314  18.112  0.00  0.00    +0.000 C 
ATOM      7  C   UNL     1       4.503   3.344  17.544  0.00  0.00    +0.000 C 
BRANCH   5   8
ATOM      8  C   UNL     1       5.467   5.890  16.228  0.00  0.00    +0.000 C 
BRANCH   8   9
ATOM      9  C   UNL     1       6.834   5.422  15.696  0.00  0.00    +0.000 C 
BRANCH   9  10
ATOM     10  C   UNL     1       6.692   4.803  14.340  0.00  0.00    +0.000 A 
ATOM     11  C   UNL     1       5.615   3.939  14.076  0.00  0.00    +0.000 A 
ATOM     12  C   UNL     1       5.487   3.335  12.827  0.00  0.00    +0.000 A 
ATOM     13  C   UNL     1       6.430   3.591  11.827  0.00  0.00    +0.000 A 
ATOM     14  C   UNL     1       7.499   4.458  12.076  0.00  0.00    +0.000 A 
ATOM     15  C   UNL     1       7.629   5.066  13.327  0.00  0.00    +0.000 A 
ENDBRANCH   9  10
ENDBRANCH   8   9
ENDBRANCH   5   8
ENDBRANCH   1   2
BRANCH   1  16
ATOM     16  C   UNL     1       1.281   3.896  19.522  0.00  0.00    +0.000 C 
BRANCH  16  17
ATOM     17  O   UNL     1       1.403   4.300  20.873  0.00  0.00    +0.000 OA
BRANCH  17  18
ATOM     18  C   UNL     1       1.906   5.616  20.999  0.00  0.00    +0.000 C 
BRANCH  18  19
ATOM     19  C   UNL     1       0.820   6.703  20.951  0.00  0.00    +0.000 C 
BRANCH  19  20
ATOM     20  O   UNL     1       1.359   7.970  21.011  0.00  0.00    +0.000 OA
BRANCH  20  26
ATOM     21  C   UNL     1      -1.135  12.802  19.257  0.00  0.00    +0.000 C 
ATOM     22  C   UNL     1      -0.438  11.554  19.722  0.00  0.00    +0.000 A 
ATOM     23  C   UNL     1      -0.520  11.122  21.044  0.00  0.00    +0.000 A 
ATOM     24  C   UNL     1       0.133   9.948  21.456  0.00  0.00    +0.000 A 
ATOM     25  C   UNL     1       0.066   9.579  22.913  0.00  0.00    +0.000 C 
ATOM     26  C   UNL     1       0.850   9.153  20.526  0.00  0.00    +0.000 A 
ATOM     27  C   UNL     1       0.964   9.628  19.172  0.00  0.00    +0.000 A 
ATOM     28  C   UNL     1       1.733   9.006  18.028  0.00  0.00    +0.000 C 
ATOM     29  C   UNL     1       0.320  10.825  18.810  0.00  0.00    +0.000 A 
ENDBRANCH  20  26
ENDBRANCH  19  20
ENDBRANCH  18  19
ENDBRANCH  17  18
ENDBRANCH  16  17
ENDBRANCH   1  16
TORSDOF 10
ENDMDL
MODEL 8
REMARK VINA RESULT:      -6.9      3.055      5.958
REMARK  Name = 
REMARK  13 active torsions:
REMARK  status: ('A' for Active; 'I' for Inactive)
REMARK    1  A    between atoms: C_1  and  C_2
REMARK    2  A    between atoms: C_4  and  C_5
REMARK    3  A    between atoms: C_6  and  O_7
REMARK    4  A    between atoms: O_7  and  C_8
REMARK    5  A    between atoms: C_8  and  C_9
REMARK    6  A    between atoms: C_9  and  O_10
REMARK    7  A    between atoms: O_10  and  C_11
REMARK    8  A    between atoms: C_11  and  C_12
REMARK    9  A    between atoms: C_12  and  N_13
REMARK   10  A    between atoms: N_16  and  C_17
REMARK   11  A    between atoms: C_17  and  C_18
REMARK   12  A    between atoms: C_18  and  C_19
REMARK   13  A    between atoms: C_27  and  C_28
REMARK                            x       y       z     vdW  Elec       q    Type
REMARK                         _______ _______ _______ _____ _____    ______ ____
ROOT
ATOM      1  C   UNL     1       4.446   4.281  17.949  0.00  0.00    +0.000 C 
ENDROOT
BRANCH   1   2
ATOM      2  N   UNL     1       4.993   5.625  18.220  0.00  0.00    +0.000 NA
ATOM      3  C   UNL     1       6.284   5.671  18.940  0.00  0.00    +0.000 C 
ATOM      4  C   UNL     1       7.496   5.637  18.016  0.00  0.00    +0.000 C 
ATOM      5  N   UNL     1       7.418   6.731  17.026  0.00  0.00    +0.000 NA
ATOM      6  C   UNL     1       6.206   6.516  16.210  0.00  0.00    +0.000 C 
ATOM      7  C   UNL     1       4.926   6.555  17.070  0.00  0.00    +0.000 C 
BRANCH   5   8
ATOM      8  C   UNL     1       7.464   8.116  17.588  0.00  0.00    +0.000 C 
BRANCH   8   9
ATOM      9  C   UNL     1       8.659   8.370  18.525  0.00  0.00    +0.000 C 
BRANCH   9  10
ATOM     10  C   UNL     1       8.875   9.839  18.722  0.00  0.00    +0.000 A 
ATOM     11  C   UNL     1       8.587  10.733  17.676  0.00  0.00    +0.000 A 
ATOM     12  C   UNL     1       8.810  12.099  17.837  0.00  0.00    +0.000 A 
ATOM     13  C   UNL     1       9.319  12.587  19.045  0.00  0.00    +0.000 A 
ATOM     14  C   UNL     1       9.598  11.705  20.094  0.00  0.00    +0.000 A 
ATOM     15  C   UNL     1       9.375  10.336  19.936  0.00  0.00    +0.000 A 
ENDBRANCH   9  10
ENDBRANCH   8   9
ENDBRANCH   5   8
ENDBRANCH   1   2
BRANCH   1  16
ATOM     16  C   UNL     1       3.542   3.822  19.105  0.00  0.00    +0.000 C 
BRANCH  16  17
ATOM     17  O   UNL     1       2.470   4.740  19.213  0.00  0.00    +0.000 OA
BRANCH  17  18
ATOM     18  C   UNL     1       2.553   5.532  20.381  0.00  0.00    +0.000 C 
BRANCH  18  19
ATOM     19  C   UNL     1       1.361   6.483  20.573  0.00  0.00    +0.000 C 
BRANCH  19  20
ATOM     20  O   UNL     1       1.755   7.804  20.598  0.00  0.00    +0.000 OA
BRANCH  20  26
ATOM     21  C   UNL     1      -0.924  12.651  19.194  0.00  0.00    +0.000 C 
ATOM     22  C   UNL     1      -0.259  11.352  19.555  0.00  0.00    +0.000 A 
ATOM     23  C   UNL     1       0.545  10.666  18.647  0.00  0.00    +0.000 A 
ATOM     24  C   UNL     1       1.163   9.457  19.009  0.00  0.00    +0.000 A 
ATOM     25  C   UNL     1       1.956   8.730  17.956  0.00  0.00    +0.000 C 
ATOM     26  C   UNL     1       1.022   8.933  20.318  0.00  0.00    +0.000 A 
ATOM     27  C   UNL     1       0.157   9.626  21.237  0.00  0.00    +0.000 A 
ATOM     28  C   UNL     1      -0.214   9.228  22.648  0.00  0.00    +0.000 C 
ATOM     29  C   UNL     1      -0.467  10.817  20.824  0.00  0.00    +0.000 A 
ENDBRANCH  20  26
ENDBRANCH  19  20
ENDBRANCH  18  19
ENDBRANCH  17  18
ENDBRANCH  16  17
ENDBRANCH   1  16
TORSDOF 10
ENDMDL
MODEL 9
REMARK VINA RESULT:      -6.9      2.484      4.134
REMARK  Name = 
REMARK  13 active torsions:
REMARK  status: ('A' for Active; 'I' for Inactive)
REMARK    1  A    between atoms: C_1  and  C_2
REMARK    2  A    between atoms: C_4  and  C_5
REMARK    3  A    between atoms: C_6  and  O_7
REMARK    4  A    between atoms: O_7  and  C_8
REMARK    5  A    between atoms: C_8  and  C_9
REMARK    6  A    between atoms: C_9  and  O_10
REMARK    7  A    between atoms: O_10  and  C_11
REMARK    8  A    between atoms: C_11  and  C_12
REMARK    9  A    between atoms: C_12  and  N_13
REMARK   10  A    between atoms: N_16  and  C_17
REMARK   11  A    between atoms: C_17  and  C_18
REMARK   12  A    between atoms: C_18  and  C_19
REMARK   13  A    between atoms: C_27  and  C_28
REMARK                            x       y       z     vdW  Elec       q    Type
REMARK                         _______ _______ _______ _____ _____    ______ ____
ROOT
ATOM      1  C   UNL     1       1.152   2.703  19.036  0.00  0.00    +0.000 C 
ENDROOT
BRANCH   1   2
ATOM      2  N   UNL     1       2.047   2.560  17.871  0.00  0.00    +0.000 NA
ATOM      3  C   UNL     1       2.191   3.754  17.009  0.00  0.00    +0.000 C 
ATOM      4  C   UNL     1       3.317   4.684  17.445  0.00  0.00    +0.000 C 
ATOM      5  N   UNL     1       4.594   3.945  17.520  0.00  0.00    +0.000 NA
ATOM      6  C   UNL     1       4.444   2.889  18.542  0.00  0.00    +0.000 C 
ATOM      7  C   UNL     1       3.332   1.887  18.166  0.00  0.00    +0.000 C 
BRANCH   5   8
ATOM      8  C   UNL     1       5.098   3.392  16.226  0.00  0.00    +0.000 C 
BRANCH   8   9
ATOM      9  C   UNL     1       6.381   4.071  15.714  0.00  0.00    +0.000 C 
BRANCH   9  10
ATOM     10  C   UNL     1       6.908   5.040  16.727  0.00  0.00    +0.000 A 
ATOM     11  C   UNL     1       7.584   4.562  17.864  0.00  0.00    +0.000 A 
ATOM     12  C   UNL     1       8.054   5.452  18.828  0.00  0.00    +0.000 A 
ATOM     13  C   UNL     1       7.860   6.827  18.665  0.00  0.00    +0.000 A 
ATOM     14  C   UNL     1       7.199   7.312  17.531  0.00  0.00    +0.000 A 
ATOM     15  C   UNL     1       6.727   6.423  16.563  0.00  0.00    +0.000 A 
ENDBRANCH   9  10
ENDBRANCH   8   9
ENDBRANCH   5   8
ENDBRANCH   1   2
BRANCH   1  16
ATOM     16  C   UNL     1       1.968   2.869  20.328  0.00  0.00    +0.000 C 
BRANCH  16  17
ATOM     17  O   UNL     1       1.420   3.951  21.057  0.00  0.00    +0.000 OA
BRANCH  17  18
ATOM     18  C   UNL     1       2.278   5.074  21.083  0.00  0.00    +0.000 C 
BRANCH  18  19
ATOM     19  C   UNL     1       1.884   6.181  20.092  0.00  0.00    +0.000 C 
BRANCH  19  20
ATOM     20  O   UNL     1       1.537   7.349  20.737  0.00  0.00    +0.000 OA
BRANCH  20  26
ATOM     21  C   UNL     1      -0.097  12.432  18.702  0.00  0.00    +0.000 C 
ATOM     22  C   UNL     1       0.375  11.113  19.248  0.00  0.00    +0.000 A 
ATOM     23  C   UNL     1       0.028  10.687  20.528  0.00  0.00    +0.000 A 
ATOM     24  C   UNL     1       0.474   9.447  21.016  0.00  0.00    +0.000 A 
ATOM     25  C   UNL     1       0.125   9.082  22.434  0.00  0.00    +0.000 C 
ATOM     26  C   UNL     1       1.246   8.582  20.201  0.00  0.00    +0.000 A 
ATOM     27  C   UNL     1       1.635   9.047  18.895  0.00  0.00    +0.000 A 
ATOM     28  C   UNL     1       2.513   8.349  17.881  0.00  0.00    +0.000 C 
ATOM     29  C   UNL     1       1.192  10.309  18.459  0.00  0.00    +0.000 A 
ENDBRANCH  20  26
ENDBRANCH  19  20
ENDBRANCH  18  19
ENDBRANCH  17  18
ENDBRANCH  16  17
ENDBRANCH   1  16
TORSDOF 10
ENDMDL
