MODEL 1
REMARK VINA RESULT:      -9.2      0.000      0.000
REMARK  Name = 
REMARK  4 active torsions:
REMARK  status: ('A' for Active; 'I' for Inactive)
REMARK    1  A    between atoms: C_1  and  O_2
REMARK    2  A    between atoms: O_2  and  C_3
REMARK    3  A    between atoms: C_3  and  C_5
REMARK    4  A    between atoms: N_11  and  N_12
REMARK                            x       y       z     vdW  Elec       q    Type
REMARK                         _______ _______ _______ _____ _____    ______ ____
ROOT
ATOM      1  N   UNL     1       2.673   7.327  19.669  0.00  0.00    +0.000 NA
ATOM      2  C   UNL     1       3.004   6.121  19.345  0.00  0.00    +0.000 C 
ATOM      3  C   UNL     1       3.690   5.875  18.061  0.00  0.00    +0.000 A 
ATOM      4  C   UNL     1       4.414   6.738  17.268  0.00  0.00    +0.000 A 
ATOM      5  C   UNL     1       5.054   6.187  16.162  0.00  0.00    +0.000 A 
ATOM      6  C   UNL     1       4.956   4.807  15.895  0.00  0.00    +0.000 A 
ATOM      7  C   UNL     1       4.120   3.978  16.658  0.00  0.00    +0.000 A 
ATOM      8  C   UNL     1       3.424   4.547  17.710  0.00  0.00    +0.000 A 
ATOM      9  C   UNL     1       2.517   3.994  18.690  0.00  0.00    +0.000 A 
ATOM     10  C   UNL     1       1.549   3.015  18.624  0.00  0.00    +0.000 A 
ATOM     11  C   UNL     1       0.883   2.676  19.809  0.00  0.00    +0.000 A 
ATOM     12  C   UNL     1       1.283   3.230  21.038  0.00  0.00    +0.000 A 
ATOM     13  C   UNL     1       2.122   4.341  21.057  0.00  0.00    +0.000 A 
ATOM     14  C   UNL     1       2.550   4.800  19.829  0.00  0.00    +0.000 A 
ENDROOT
BRANCH   1  21
ATOM     15  C   UNL     1      -0.328  10.772  21.723  0.00  0.00    +0.000 A 
ATOM     16  C   UNL     1       0.229  11.550  20.795  0.00  0.00    +0.000 A 
ATOM     17  C   UNL     1       0.914  11.019  19.625  0.00  0.00    +0.000 A 
ATOM     18  O   UNL     1       1.055  11.743  18.644  0.00  0.00    +0.000 OA
ATOM     19  N   UNL     1       1.473   9.786  19.722  0.00  0.00    +0.000 NA
ATOM     20  C   UNL     1       1.069   8.850  20.528  0.00  0.00    +0.000 A 
ATOM     21  N   UNL     1       1.677   7.601  20.559  0.00  0.00    +0.000 N 
ATOM     22  S   UNL     1      -0.267   9.053  21.649  0.00  0.00    +0.000 S 
ATOM     23  H   UNL     1       1.092   6.848  20.908  0.00  0.00    +0.000 HD
BRANCH  15  24
ATOM     24  C   UNL     1      -1.040  11.479  22.821  0.00  0.00    +0.000 C 
ATOM     25  O   UNL     1      -2.020  11.013  23.394  0.00  0.00    +0.000 OA
BRANCH  24  27
ATOM     26  C   UNL     1      -1.495  13.706  23.376  0.00  0.00    +0.000 C 
ATOM     27  O   UNL     1      -0.514  12.705  23.086  0.00  0.00    +0.000 OA
ENDBRANCH  24  27
ENDBRANCH  15  24
ENDBRANCH   1  21
TORSDOF 3
ENDMDL
MODEL 2
REMARK VINA RESULT:      -8.7      1.363      1.622
REMARK  Name = 
REMARK  4 active torsions:
REMARK  status: ('A' for Active; 'I' for Inactive)
REMARK    1  A    between atoms: C_1  and  O_2
REMARK    2  A    between atoms: O_2  and  C_3
REMARK    3  A    between atoms: C_3  and  C_5
REMARK    4  A    between atoms: N_11  and  N_12
REMARK                            x       y       z     vdW  Elec       q    Type
REMARK                         _______ _______ _______ _____ _____    ______ ____
ROOT
ATOM      1  N   UNL     1       2.642   7.922  18.187  0.00  0.00    +0.000 NA
ATOM      2  C   UNL     1       3.054   6.705  18.327  0.00  0.00    +0.000 C 
ATOM      3  C   UNL     1       3.946   6.117  17.309  0.00  0.00    +0.000 A 
ATOM      4  C   UNL     1       4.767   6.738  16.392  0.00  0.00    +0.000 A 
ATOM      5  C   UNL     1       5.595   5.914  15.633  0.00  0.00    +0.000 A 
ATOM      6  C   UNL     1       5.578   4.518  15.821  0.00  0.00    +0.000 A 
ATOM      7  C   UNL     1       4.652   3.913  16.683  0.00  0.00    +0.000 A 
ATOM      8  C   UNL     1       3.777   4.730  17.376  0.00  0.00    +0.000 A 
ATOM      9  C   UNL     1       2.737   4.449  18.340  0.00  0.00    +0.000 A 
ATOM     10  C   UNL     1       1.820   3.428  18.457  0.00  0.00    +0.000 A 
ATOM     11  C   UNL     1       0.978   3.432  19.577  0.00  0.00    +0.000 A 
ATOM     12  C   UNL     1       1.156   4.379  20.602  0.00  0.00    +0.000 A 
ATOM     13  C   UNL     1       1.951   5.500  20.379  0.00  0.00    +0.000 A 
ATOM     14  C   UNL     1       2.562   5.576  19.145  0.00  0.00    +0.000 A 
ENDROOT
BRANCH   1  21
ATOM     15  C   UNL     1       0.134  11.852  20.019  0.00  0.00    +0.000 A 
ATOM     16  C   UNL     1       1.167  12.522  19.507  0.00  0.00    +0.000 A 
ATOM     17  C   UNL     1       2.053  11.957  18.500  0.00  0.00    +0.000 A 
ATOM     18  O   UNL     1       2.718  12.719  17.803  0.00  0.00    +0.000 OA
ATOM     19  N   UNL     1       2.195  10.608  18.463  0.00  0.00    +0.000 NA
ATOM     20  C   UNL     1       1.302   9.757  18.869  0.00  0.00    +0.000 A 
ATOM     21  N   UNL     1       1.506   8.385  18.782  0.00  0.00    +0.000 N 
ATOM     22  S   UNL     1      -0.239  10.235  19.563  0.00  0.00    +0.000 S 
ATOM     23  H   UNL     1       0.658   7.826  18.756  0.00  0.00    +0.000 HD
BRANCH  15  24
ATOM     24  C   UNL     1      -0.705  12.600  20.994  0.00  0.00    +0.000 C 
ATOM     25  O   UNL     1      -1.612  13.355  20.657  0.00  0.00    +0.000 OA
BRANCH  24  27
ATOM     26  C   UNL     1      -1.169  11.467  22.987  0.00  0.00    +0.000 C 
ATOM     27  O   UNL     1      -0.330  12.388  22.284  0.00  0.00    +0.000 OA
ENDBRANCH  24  27
ENDBRANCH  15  24
ENDBRANCH   1  21
TORSDOF 3
ENDMDL
MODEL 3
REMARK VINA RESULT:      -8.1      1.122      1.184
REMARK  Name = 
REMARK  4 active torsions:
REMARK  status: ('A' for Active; 'I' for Inactive)
REMARK    1  A    between atoms: C_1  and  O_2
REMARK    2  A    between atoms: O_2  and  C_3
REMARK    3  A    between atoms: C_3  and  C_5
REMARK    4  A    between atoms: N_11  and  N_12
REMARK                            x       y       z     vdW  Elec       q    Type
REMARK                         _______ _______ _______ _____ _____    ______ ____
ROOT
ATOM      1  N   UNL     1       3.574   6.688  19.388  0.00  0.00    +0.000 NA
ATOM      2  C   UNL     1       3.772   5.500  18.920  0.00  0.00    +0.000 C 
ATOM      3  C   UNL     1       4.339   5.335  17.567  0.00  0.00    +0.000 A 
ATOM      4  C   UNL     1       5.079   6.216  16.808  0.00  0.00    +0.000 A 
ATOM      5  C   UNL     1       5.587   5.734  15.605  0.00  0.00    +0.000 A 
ATOM      6  C   UNL     1       5.347   4.403  15.212  0.00  0.00    +0.000 A 
ATOM      7  C   UNL     1       4.498   3.569  15.954  0.00  0.00    +0.000 A 
ATOM      8  C   UNL     1       3.932   4.078  17.109  0.00  0.00    +0.000 A 
ATOM      9  C   UNL     1       3.052   3.500  18.099  0.00  0.00    +0.000 A 
ATOM     10  C   UNL     1       1.999   2.616  18.015  0.00  0.00    +0.000 A 
ATOM     11  C   UNL     1       1.392   2.209  19.210  0.00  0.00    +0.000 A 
ATOM     12  C   UNL     1       1.926   2.596  20.452  0.00  0.00    +0.000 A 
ATOM     13  C   UNL     1       2.860   3.627  20.513  0.00  0.00    +0.000 A 
ATOM     14  C   UNL     1       3.238   4.177  19.306  0.00  0.00    +0.000 A 
ENDROOT
BRANCH   1  21
ATOM     15  C   UNL     1       0.095   9.786  21.230  0.00  0.00    +0.000 A 
ATOM     16  C   UNL     1       0.300  10.415  20.073  0.00  0.00    +0.000 A 
ATOM     17  C   UNL     1       0.932   9.776  18.927  0.00  0.00    +0.000 A 
ATOM     18  O   UNL     1       0.747  10.250  17.810  0.00  0.00    +0.000 OA
ATOM     19  N   UNL     1       1.798   8.759  19.166  0.00  0.00    +0.000 NA
ATOM     20  C   UNL     1       1.764   7.985  20.208  0.00  0.00    +0.000 A 
ATOM     21  N   UNL     1       2.672   6.946  20.377  0.00  0.00    +0.000 N 
ATOM     22  S   UNL     1       0.587   8.159  21.500  0.00  0.00    +0.000 S 
ATOM     23  H   UNL     1       2.354   6.193  20.980  0.00  0.00    +0.000 HD
BRANCH  15  24
ATOM     24  C   UNL     1      -0.618  10.568  22.276  0.00  0.00    +0.000 C 
ATOM     25  O   UNL     1      -0.673  10.220  23.451  0.00  0.00    +0.000 OA
BRANCH  24  27
ATOM     26  C   UNL     1      -0.961  12.869  22.522  0.00  0.00    +0.000 C 
ATOM     27  O   UNL     1      -1.231  11.676  21.780  0.00  0.00    +0.000 OA
ENDBRANCH  24  27
ENDBRANCH  15  24
ENDBRANCH   1  21
TORSDOF 3
ENDMDL
MODEL 4
REMARK VINA RESULT:      -7.8      2.142      4.284
REMARK  Name = 
REMARK  4 active torsions:
REMARK  status: ('A' for Active; 'I' for Inactive)
REMARK    1  A    between atoms: C_1  and  O_2
REMARK    2  A    between atoms: O_2  and  C_3
REMARK    3  A    between atoms: C_3  and  C_5
REMARK    4  A    between atoms: N_11  and  N_12
REMARK                            x       y       z     vdW  Elec       q    Type
REMARK                         _______ _______ _______ _____ _____    ______ ____
ROOT
ATOM      1  N   UNL     1       2.165   6.867  18.138  0.00  0.00    +0.000 NA
ATOM      2  C   UNL     1       3.086   5.960  18.119  0.00  0.00    +0.000 C 
ATOM      3  C   UNL     1       2.921   4.740  18.932  0.00  0.00    +0.000 A 
ATOM      4  C   UNL     1       1.776   4.167  19.441  0.00  0.00    +0.000 A 
ATOM      5  C   UNL     1       1.919   2.935  20.074  0.00  0.00    +0.000 A 
ATOM      6  C   UNL     1       3.185   2.323  20.167  0.00  0.00    +0.000 A 
ATOM      7  C   UNL     1       4.344   2.985  19.736  0.00  0.00    +0.000 A 
ATOM      8  C   UNL     1       4.206   4.244  19.179  0.00  0.00    +0.000 A 
ATOM      9  C   UNL     1       5.163   5.174  18.624  0.00  0.00    +0.000 A 
ATOM     10  C   UNL     1       6.455   5.506  18.968  0.00  0.00    +0.000 A 
ATOM     11  C   UNL     1       7.131   6.425  18.156  0.00  0.00    +0.000 A 
ATOM     12  C   UNL     1       6.547   6.889  16.963  0.00  0.00    +0.000 A 
ATOM     13  C   UNL     1       5.189   6.693  16.734  0.00  0.00    +0.000 A 
ATOM     14  C   UNL     1       4.504   5.992  17.704  0.00  0.00    +0.000 A 
ENDROOT
BRANCH   1  21
ATOM     15  C   UNL     1       1.033  11.690  18.882  0.00  0.00    +0.000 A 
ATOM     16  C   UNL     1       0.271  11.176  19.847  0.00  0.00    +0.000 A 
ATOM     17  C   UNL     1       0.468   9.836  20.381  0.00  0.00    +0.000 A 
ATOM     18  O   UNL     1       0.017   9.570  21.492  0.00  0.00    +0.000 OA
ATOM     19  N   UNL     1       1.037   8.907  19.572  0.00  0.00    +0.000 NA
ATOM     20  C   UNL     1       1.846   9.174  18.591  0.00  0.00    +0.000 A 
ATOM     21  N   UNL     1       2.410   8.169  17.815  0.00  0.00    +0.000 N 
ATOM     22  S   UNL     1       2.313  10.807  18.143  0.00  0.00    +0.000 S 
ATOM     23  H   UNL     1       3.279   8.420  17.354  0.00  0.00    +0.000 HD
BRANCH  15  24
ATOM     24  C   UNL     1       0.732  13.095  18.496  0.00  0.00    +0.000 C 
ATOM     25  O   UNL     1      -0.394  13.481  18.197  0.00  0.00    +0.000 OA
BRANCH  24  27
ATOM     26  C   UNL     1       2.221  14.385  19.757  0.00  0.00    +0.000 C 
ATOM     27  O   UNL     1       1.839  13.884  18.473  0.00  0.00    +0.000 OA
ENDBRANCH  24  27
ENDBRANCH  15  24
ENDBRANCH   1  21
TORSDOF 3
ENDMDL
MODEL 5
REMARK VINA RESULT:      -7.3      1.587      1.916
REMARK  Name = 
REMARK  4 active torsions:
REMARK  status: ('A' for Active; 'I' for Inactive)
REMARK    1  A    between atoms: C_1  and  O_2
REMARK    2  A    between atoms: O_2  and  C_3
REMARK    3  A    between atoms: C_3  and  C_5
REMARK    4  A    between atoms: N_11  and  N_12
REMARK                            x       y       z     vdW  Elec       q    Type
REMARK                         _______ _______ _______ _____ _____    ______ ____
ROOT
ATOM      1  N   UNL     1       4.022   6.251  19.353  0.00  0.00    +0.000 NA
ATOM      2  C   UNL     1       4.150   5.045  18.906  0.00  0.00    +0.000 C 
ATOM      3  C   UNL     1       4.956   4.801  17.694  0.00  0.00    +0.000 A 
ATOM      4  C   UNL     1       5.948   5.569  17.125  0.00  0.00    +0.000 A 
ATOM      5  C   UNL     1       6.623   5.018  16.039  0.00  0.00    +0.000 A 
ATOM      6  C   UNL     1       6.291   3.730  15.571  0.00  0.00    +0.000 A 
ATOM      7  C   UNL     1       5.203   3.024  16.104  0.00  0.00    +0.000 A 
ATOM      8  C   UNL     1       4.485   3.610  17.130  0.00  0.00    +0.000 A 
ATOM      9  C   UNL     1       3.350   3.162  17.905  0.00  0.00    +0.000 A 
ATOM     10  C   UNL     1       2.227   2.430  17.585  0.00  0.00    +0.000 A 
ATOM     11  C   UNL     1       1.338   2.114  18.620  0.00  0.00    +0.000 A 
ATOM     12  C   UNL     1       1.652   2.428  19.954  0.00  0.00    +0.000 A 
ATOM     13  C   UNL     1       2.684   3.321  20.231  0.00  0.00    +0.000 A 
ATOM     14  C   UNL     1       3.373   3.810  19.141  0.00  0.00    +0.000 A 
ENDROOT
BRANCH   1  21
ATOM     15  C   UNL     1       0.521   9.692  20.355  0.00  0.00    +0.000 A 
ATOM     16  C   UNL     1       0.981  10.228  19.225  0.00  0.00    +0.000 A 
ATOM     17  C   UNL     1       1.758   9.474  18.251  0.00  0.00    +0.000 A 
ATOM     18  O   UNL     1       1.816   9.885  17.095  0.00  0.00    +0.000 OA
ATOM     19  N   UNL     1       2.484   8.418  18.698  0.00  0.00    +0.000 NA
ATOM     20  C   UNL     1       2.201   7.719  19.755  0.00  0.00    +0.000 A 
ATOM     21  N   UNL     1       2.979   6.634  20.143  0.00  0.00    +0.000 N 
ATOM     22  S   UNL     1       0.827   8.056  20.795  0.00  0.00    +0.000 S 
ATOM     23  H   UNL     1       2.499   5.945  20.715  0.00  0.00    +0.000 HD
BRANCH  15  24
ATOM     24  C   UNL     1      -0.306  10.587  21.208  0.00  0.00    +0.000 C 
ATOM     25  O   UNL     1      -1.131  11.372  20.752  0.00  0.00    +0.000 OA
BRANCH  24  27
ATOM     26  C   UNL     1      -1.146  10.661  23.390  0.00  0.00    +0.000 C 
ATOM     27  O   UNL     1      -0.018  10.468  22.532  0.00  0.00    +0.000 OA
ENDBRANCH  24  27
ENDBRANCH  15  24
ENDBRANCH   1  21
TORSDOF 3
ENDMDL
MODEL 6
REMARK VINA RESULT:      -7.3      1.841      4.081
REMARK  Name = 
REMARK  4 active torsions:
REMARK  status: ('A' for Active; 'I' for Inactive)
REMARK    1  A    between atoms: C_1  and  O_2
REMARK    2  A    between atoms: O_2  and  C_3
REMARK    3  A    between atoms: C_3  and  C_5
REMARK    4  A    between atoms: N_11  and  N_12
REMARK                            x       y       z     vdW  Elec       q    Type
REMARK                         _______ _______ _______ _____ _____    ______ ____
ROOT
ATOM      1  N   UNL     1       1.706   7.093  19.375  0.00  0.00    +0.000 NA
ATOM      2  C   UNL     1       2.510   6.126  19.080  0.00  0.00    +0.000 C 
ATOM      3  C   UNL     1       2.545   4.922  19.933  0.00  0.00    +0.000 A 
ATOM      4  C   UNL     1       1.596   4.431  20.804  0.00  0.00    +0.000 A 
ATOM      5  C   UNL     1       1.860   3.195  21.387  0.00  0.00    +0.000 A 
ATOM      6  C   UNL     1       3.045   2.498  21.077  0.00  0.00    +0.000 A 
ATOM      7  C   UNL     1       4.038   3.077  20.273  0.00  0.00    +0.000 A 
ATOM      8  C   UNL     1       3.805   4.340  19.759  0.00  0.00    +0.000 A 
ATOM      9  C   UNL     1       4.584   5.200  18.898  0.00  0.00    +0.000 A 
ATOM     10  C   UNL     1       5.936   5.445  18.792  0.00  0.00    +0.000 A 
ATOM     11  C   UNL     1       6.364   6.312  17.779  0.00  0.00    +0.000 A 
ATOM     12  C   UNL     1       5.453   6.811  16.831  0.00  0.00    +0.000 A 
ATOM     13  C   UNL     1       4.084   6.707  17.064  0.00  0.00    +0.000 A 
ATOM     14  C   UNL     1       3.713   6.058  18.223  0.00  0.00    +0.000 A 
ENDROOT
BRANCH   1  21
ATOM     15  C   UNL     1       0.339  11.904  19.655  0.00  0.00    +0.000 A 
ATOM     16  C   UNL     1      -0.450  11.438  20.622  0.00  0.00    +0.000 A 
ATOM     17  C   UNL     1      -0.225  10.156  21.277  0.00  0.00    +0.000 A 
ATOM     18  O   UNL     1      -0.722   9.962  22.382  0.00  0.00    +0.000 OA
ATOM     19  N   UNL     1       0.423   9.191  20.576  0.00  0.00    +0.000 NA
ATOM     20  C   UNL     1       1.270   9.413  19.617  0.00  0.00    +0.000 A 
ATOM     21  N   UNL     1       1.914   8.374  18.956  0.00  0.00    +0.000 N 
ATOM     22  S   UNL     1       1.691  11.023  19.056  0.00  0.00    +0.000 S 
ATOM     23  H   UNL     1       2.795   8.625  18.518  0.00  0.00    +0.000 HD
BRANCH  15  24
ATOM     24  C   UNL     1       0.001  13.258  19.139  0.00  0.00    +0.000 C 
ATOM     25  O   UNL     1      -0.439  13.454  18.010  0.00  0.00    +0.000 OA
BRANCH  24  27
ATOM     26  C   UNL     1       1.623  14.712  19.993  0.00  0.00    +0.000 C 
ATOM     27  O   UNL     1       0.271  14.246  20.033  0.00  0.00    +0.000 OA
ENDBRANCH  24  27
ENDBRANCH  15  24
ENDBRANCH   1  21
TORSDOF 3
ENDMDL
MODEL 7
REMARK VINA RESULT:      -7.2      1.722      3.964
REMARK  Name = 
REMARK  4 active torsions:
REMARK  status: ('A' for Active; 'I' for Inactive)
REMARK    1  A    between atoms: C_1  and  O_2
REMARK    2  A    between atoms: O_2  and  C_3
REMARK    3  A    between atoms: C_3  and  C_5
REMARK    4  A    between atoms: N_11  and  N_12
REMARK                            x       y       z     vdW  Elec       q    Type
REMARK                         _______ _______ _______ _____ _____    ______ ____
ROOT
ATOM      1  N   UNL     1       1.696   6.931  20.084  0.00  0.00    +0.000 NA
ATOM      2  C   UNL     1       2.426   6.029  19.516  0.00  0.00    +0.000 C 
ATOM      3  C   UNL     1       2.657   4.742  20.201  0.00  0.00    +0.000 A 
ATOM      4  C   UNL     1       1.926   4.129  21.195  0.00  0.00    +0.000 A 
ATOM      5  C   UNL     1       2.323   2.846  21.565  0.00  0.00    +0.000 A 
ATOM      6  C   UNL     1       3.418   2.227  20.930  0.00  0.00    +0.000 A 
ATOM      7  C   UNL     1       4.206   2.923  20.001  0.00  0.00    +0.000 A 
ATOM      8  C   UNL     1       3.855   4.225  19.695  0.00  0.00    +0.000 A 
ATOM      9  C   UNL     1       4.419   5.199  18.788  0.00  0.00    +0.000 A 
ATOM     10  C   UNL     1       5.712   5.499  18.421  0.00  0.00    +0.000 A 
ATOM     11  C   UNL     1       5.901   6.484  17.443  0.00  0.00    +0.000 A 
ATOM     12  C   UNL     1       4.800   7.050  16.776  0.00  0.00    +0.000 A 
ATOM     13  C   UNL     1       3.516   6.876  17.286  0.00  0.00    +0.000 A 
ATOM     14  C   UNL     1       3.414   6.094  18.418  0.00  0.00    +0.000 A 
ENDROOT
BRANCH   1  21
ATOM     15  C   UNL     1       0.127  11.604  20.976  0.00  0.00    +0.000 A 
ATOM     16  C   UNL     1      -0.533  11.002  21.965  0.00  0.00    +0.000 A 
ATOM     17  C   UNL     1      -0.178   9.680  22.463  0.00  0.00    +0.000 A 
ATOM     18  O   UNL     1      -0.548   9.353  23.587  0.00  0.00    +0.000 OA
ATOM     19  N   UNL     1       0.441   8.825  21.609  0.00  0.00    +0.000 NA
ATOM     20  C   UNL     1       1.172   9.188  20.598  0.00  0.00    +0.000 A 
ATOM     21  N   UNL     1       1.795   8.256  19.777  0.00  0.00    +0.000 N 
ATOM     22  S   UNL     1       1.452  10.865  20.163  0.00  0.00    +0.000 S 
ATOM     23  H   UNL     1       2.613   8.599  19.282  0.00  0.00    +0.000 HD
BRANCH  15  24
ATOM     24  C   UNL     1      -0.330  12.977  20.633  0.00  0.00    +0.000 C 
ATOM     25  O   UNL     1      -0.009  13.971  21.278  0.00  0.00    +0.000 OA
BRANCH  24  27
ATOM     26  C   UNL     1      -0.536  13.392  18.340  0.00  0.00    +0.000 C 
ATOM     27  O   UNL     1      -1.168  13.002  19.563  0.00  0.00    +0.000 OA
ENDBRANCH  24  27
ENDBRANCH  15  24
ENDBRANCH   1  21
TORSDOF 3
ENDMDL
MODEL 8
REMARK VINA RESULT:      -7.0      3.839      7.797
REMARK  Name = 
REMARK  4 active torsions:
REMARK  status: ('A' for Active; 'I' for Inactive)
REMARK    1  A    between atoms: C_1  and  O_2
REMARK    2  A    between atoms: O_2  and  C_3
REMARK    3  A    between atoms: C_3  and  C_5
REMARK    4  A    between atoms: N_11  and  N_12
REMARK                            x       y       z     vdW  Elec       q    Type
REMARK                         _______ _______ _______ _____ _____    ______ ____
ROOT
ATOM      1  N   UNL     1       2.074   8.649  19.008  0.00  0.00    +0.000 NA
ATOM      2  C   UNL     1       1.254   9.547  19.446  0.00  0.00    +0.000 C 
ATOM      3  C   UNL     1       1.465  10.962  19.083  0.00  0.00    +0.000 A 
ATOM      4  C   UNL     1       2.165  11.508  18.029  0.00  0.00    +0.000 A 
ATOM      5  C   UNL     1       2.086  12.889  17.871  0.00  0.00    +0.000 A 
ATOM      6  C   UNL     1       1.313  13.665  18.757  0.00  0.00    +0.000 A 
ATOM      7  C   UNL     1       0.704  13.091  19.883  0.00  0.00    +0.000 A 
ATOM      8  C   UNL     1       0.851  11.730  20.079  0.00  0.00    +0.000 A 
ATOM      9  C   UNL     1       0.351  10.832  21.095  0.00  0.00    +0.000 A 
ATOM     10  C   UNL     1       0.150  10.971  22.451  0.00  0.00    +0.000 A 
ATOM     11  C   UNL     1      -0.424   9.894  23.139  0.00  0.00    +0.000 A 
ATOM     12  C   UNL     1      -0.892   8.767  22.440  0.00  0.00    +0.000 A 
ATOM     13  C   UNL     1      -0.514   8.567  21.116  0.00  0.00    +0.000 A 
ATOM     14  C   UNL     1       0.278   9.547  20.555  0.00  0.00    +0.000 A 
ENDROOT
BRANCH   1  21
ATOM     15  C   UNL     1       3.640   3.903  18.661  0.00  0.00    +0.000 A 
ATOM     16  C   UNL     1       4.063   4.319  17.468  0.00  0.00    +0.000 A 
ATOM     17  C   UNL     1       4.239   5.726  17.138  0.00  0.00    +0.000 A 
ATOM     18  O   UNL     1       4.975   6.026  16.202  0.00  0.00    +0.000 OA
ATOM     19  N   UNL     1       3.480   6.634  17.803  0.00  0.00    +0.000 NA
ATOM     20  C   UNL     1       2.993   6.461  18.995  0.00  0.00    +0.000 A 
ATOM     21  N   UNL     1       2.242   7.445  19.626  0.00  0.00    +0.000 N 
ATOM     22  S   UNL     1       3.226   4.993  19.928  0.00  0.00    +0.000 S 
ATOM     23  H   UNL     1       2.232   7.393  20.641  0.00  0.00    +0.000 HD
BRANCH  15  24
ATOM     24  C   UNL     1       3.575   2.429  18.849  0.00  0.00    +0.000 C 
ATOM     25  O   UNL     1       4.392   1.802  19.515  0.00  0.00    +0.000 OA
BRANCH  24  27
ATOM     26  C   UNL     1       1.252   2.193  18.690  0.00  0.00    +0.000 C 
ATOM     27  O   UNL     1       2.543   1.856  18.173  0.00  0.00    +0.000 OA
ENDBRANCH  24  27
ENDBRANCH  15  24
ENDBRANCH   1  21
TORSDOF 3
ENDMDL
MODEL 9
REMARK VINA RESULT:      -7.0      4.596     10.077
REMARK  Name = 
REMARK  4 active torsions:
REMARK  status: ('A' for Active; 'I' for Inactive)
REMARK    1  A    between atoms: C_1  and  O_2
REMARK    2  A    between atoms: O_2  and  C_3
REMARK    3  A    between atoms: C_3  and  C_5
REMARK    4  A    between atoms: N_11  and  N_12
REMARK                            x       y       z     vdW  Elec       q    Type
REMARK                         _______ _______ _______ _____ _____    ______ ____
ROOT
ATOM      1  N   UNL     1      -3.584  13.234  20.278  0.00  0.00    +0.000 NA
ATOM      2  C   UNL     1      -4.855  13.133  20.492  0.00  0.00    +0.000 C 
ATOM      3  C   UNL     1      -5.428  13.670  21.742  0.00  0.00    +0.000 A 
ATOM      4  C   UNL     1      -4.930  14.628  22.599  0.00  0.00    +0.000 A 
ATOM      5  C   UNL     1      -5.759  15.023  23.646  0.00  0.00    +0.000 A 
ATOM      6  C   UNL     1      -7.043  14.460  23.791  0.00  0.00    +0.000 A 
ATOM      7  C   UNL     1      -7.472  13.410  22.967  0.00  0.00    +0.000 A 
ATOM      8  C   UNL     1      -6.613  12.966  21.978  0.00  0.00    +0.000 A 
ATOM      9  C   UNL     1      -6.741  11.945  20.963  0.00  0.00    +0.000 A 
ATOM     10  C   UNL     1      -7.338  10.703  20.952  0.00  0.00    +0.000 A 
ATOM     11  C   UNL     1      -7.330   9.985  19.750  0.00  0.00    +0.000 A 
ATOM     12  C   UNL     1      -6.838  10.572  18.570  0.00  0.00    +0.000 A 
ATOM     13  C   UNL     1      -6.078  11.736  18.639  0.00  0.00    +0.000 A 
ATOM     14  C   UNL     1      -5.898  12.270  19.898  0.00  0.00    +0.000 A 
ENDROOT
BRANCH   1  21
ATOM     15  C   UNL     1       0.403  10.304  19.499  0.00  0.00    +0.000 A 
ATOM     16  C   UNL     1       0.627  10.572  20.785  0.00  0.00    +0.000 A 
ATOM     17  C   UNL     1      -0.407  11.073  21.679  0.00  0.00    +0.000 A 
ATOM     18  O   UNL     1      -0.260  10.933  22.890  0.00  0.00    +0.000 OA
ATOM     19  N   UNL     1      -1.428  11.783  21.135  0.00  0.00    +0.000 NA
ATOM     20  C   UNL     1      -1.848  11.659  19.912  0.00  0.00    +0.000 A 
ATOM     21  N   UNL     1      -2.915  12.405  19.427  0.00  0.00    +0.000 N 
ATOM     22  S   UNL     1      -1.129  10.553  18.753  0.00  0.00    +0.000 S 
ATOM     23  H   UNL     1      -3.402  11.993  18.637  0.00  0.00    +0.000 HD
BRANCH  15  24
ATOM     24  C   UNL     1       1.555   9.741  18.743  0.00  0.00    +0.000 C 
ATOM     25  O   UNL     1       2.140  10.356  17.858  0.00  0.00    +0.000 OA
BRANCH  24  27
ATOM     26  C   UNL     1       2.516   7.709  18.094  0.00  0.00    +0.000 C 
ATOM     27  O   UNL     1       1.855   8.467  19.112  0.00  0.00    +0.000 OA
ENDBRANCH  24  27
ENDBRANCH  15  24
ENDBRANCH   1  21
TORSDOF 3
ENDMDL
