MODEL 1
REMARK VINA RESULT:      -9.3      0.000      0.000
REMARK  Name = 
REMARK  7 active torsions:
REMARK  status: ('A' for Active; 'I' for Inactive)
REMARK    1  A    between atoms: C_2  and  C_3
REMARK    2  A    between atoms: N_5  and  C_6
REMARK    3  A    between atoms: C_10  and  O_11
REMARK    4  A    between atoms: O_11  and  C_12
REMARK    5  A    between atoms: C_17  and  C_18
REMARK    6  A    between atoms: C_21  and  O_22
REMARK    7  A    between atoms: O_22  and  C_23
REMARK                            x       y       z     vdW  Elec       q    Type
REMARK                         _______ _______ _______ _____ _____    ______ ____
ROOT
ATOM      1  C   UNL     1       3.736   3.742  19.269  0.00  0.00    +0.000 A 
ATOM      2  N   UNL     1       3.889   2.395  19.178  0.00  0.00    +0.000 NA
ATOM      3  C   UNL     1       2.776   1.678  19.032  0.00  0.00    +0.000 A 
ATOM      4  N   UNL     1       1.540   2.175  18.985  0.00  0.00    +0.000 NA
ATOM      5  C   UNL     1       1.451   3.522  19.045  0.00  0.00    +0.000 A 
ATOM      6  C   UNL     1       2.517   4.408  19.153  0.00  0.00    +0.000 A 
ENDROOT
BRANCH   6   7
ATOM      7  C   UNL     1       2.299   5.877  19.110  0.00  0.00    +0.000 A 
ATOM      8  C   UNL     1       2.454   6.652  17.947  0.00  0.00    +0.000 A 
ATOM      9  C   UNL     1       2.189   8.032  17.942  0.00  0.00    +0.000 A 
ATOM     10  C   UNL     1       1.782   8.683  19.105  0.00  0.00    +0.000 A 
ATOM     11  C   UNL     1       1.708   7.958  20.289  0.00  0.00    +0.000 A 
ATOM     12  C   UNL     1       1.922   6.575  20.279  0.00  0.00    +0.000 A 
BRANCH  10  13
ATOM     13  O   UNL     1       1.532  10.032  19.004  0.00  0.00    +0.000 OA
BRANCH  13  14
ATOM     14  C   UNL     1       0.235  10.485  18.876  0.00  0.00    +0.000 A 
ATOM     15  C   UNL     1      -0.140  11.517  19.740  0.00  0.00    +0.000 A 
ATOM     16  C   UNL     1      -1.434  12.042  19.691  0.00  0.00    +0.000 A 
ATOM     17  C   UNL     1      -2.357  11.537  18.777  0.00  0.00    +0.000 A 
ATOM     18  C   UNL     1      -1.977  10.532  17.889  0.00  0.00    +0.000 A 
ATOM     19  C   UNL     1      -0.676  10.027  17.919  0.00  0.00    +0.000 A 
ENDBRANCH  13  14
ENDBRANCH  10  13
ENDBRANCH   6   7
BRANCH   1  20
ATOM     20  O   UNL     1       4.898   4.484  19.419  0.00  0.00    +0.000 OA
BRANCH  20  25
ATOM     21  C   UNL     1       6.256   4.734  15.954  0.00  0.00    +0.000 A 
ATOM     22  C   UNL     1       7.151   5.787  16.164  0.00  0.00    +0.000 A 
ATOM     23  C   UNL     1       7.276   6.375  17.423  0.00  0.00    +0.000 A 
ATOM     24  C   UNL     1       6.502   5.923  18.486  0.00  0.00    +0.000 A 
ATOM     25  C   UNL     1       5.576   4.896  18.288  0.00  0.00    +0.000 A 
ATOM     26  C   UNL     1       5.462   4.298  17.023  0.00  0.00    +0.000 A 
BRANCH  21  29
ATOM     27  C   UNL     1       6.792   4.418  13.548  0.00  0.00    +0.000 C 
ATOM     28  O   UNL     1       7.642   5.290  13.424  0.00  0.00    +0.000 OA
ATOM     29  N   UNL     1       6.117   4.081  14.705  0.00  0.00    +0.000 N 
ATOM     30  H   UNL     1       5.549   3.244  14.700  0.00  0.00    +0.000 HD
BRANCH  27  32
ATOM     31  C   UNL     1       5.134   3.408  12.059  0.00  0.00    +0.000 C 
ATOM     32  C   UNL     1       6.426   3.551  12.390  0.00  0.00    +0.000 C 
ENDBRANCH  27  32
ENDBRANCH  21  29
ENDBRANCH  20  25
ENDBRANCH   1  20
TORSDOF 7
ENDMDL
MODEL 2
REMARK VINA RESULT:      -9.2      0.498      1.028
REMARK  Name = 
REMARK  7 active torsions:
REMARK  status: ('A' for Active; 'I' for Inactive)
REMARK    1  A    between atoms: C_2  and  C_3
REMARK    2  A    between atoms: N_5  and  C_6
REMARK    3  A    between atoms: C_10  and  O_11
REMARK    4  A    between atoms: O_11  and  C_12
REMARK    5  A    between atoms: C_17  and  C_18
REMARK    6  A    between atoms: C_21  and  O_22
REMARK    7  A    between atoms: O_22  and  C_23
REMARK                            x       y       z     vdW  Elec       q    Type
REMARK                         _______ _______ _______ _____ _____    ______ ____
ROOT
ATOM      1  C   UNL     1       3.470   3.806  19.651  0.00  0.00    +0.000 A 
ATOM      2  N   UNL     1       3.569   2.452  19.637  0.00  0.00    +0.000 NA
ATOM      3  C   UNL     1       2.437   1.775  19.441  0.00  0.00    +0.000 A 
ATOM      4  N   UNL     1       1.232   2.320  19.277  0.00  0.00    +0.000 NA
ATOM      5  C   UNL     1       1.200   3.671  19.266  0.00  0.00    +0.000 A 
ATOM      6  C   UNL     1       2.295   4.516  19.413  0.00  0.00    +0.000 A 
ENDROOT
BRANCH   6   7
ATOM      7  C   UNL     1       2.147   5.989  19.283  0.00  0.00    +0.000 A 
ATOM      8  C   UNL     1       2.422   6.697  18.100  0.00  0.00    +0.000 A 
ATOM      9  C   UNL     1       2.221   8.085  18.008  0.00  0.00    +0.000 A 
ATOM     10  C   UNL     1       1.759   8.810  19.105  0.00  0.00    +0.000 A 
ATOM     11  C   UNL     1       1.565   8.150  20.314  0.00  0.00    +0.000 A 
ATOM     12  C   UNL     1       1.715   6.761  20.386  0.00  0.00    +0.000 A 
BRANCH  10  13
ATOM     13  O   UNL     1       1.579  10.161  18.921  0.00  0.00    +0.000 OA
BRANCH  13  14
ATOM     14  C   UNL     1       0.317  10.710  19.034  0.00  0.00    +0.000 A 
ATOM     15  C   UNL     1      -0.623  10.279  18.093  0.00  0.00    +0.000 A 
ATOM     16  C   UNL     1      -1.928  10.778  18.122  0.00  0.00    +0.000 A 
ATOM     17  C   UNL     1      -2.297  11.709  19.091  0.00  0.00    +0.000 A 
ATOM     18  C   UNL     1      -1.373  12.116  20.052  0.00  0.00    +0.000 A 
ATOM     19  C   UNL     1      -0.078  11.595  20.041  0.00  0.00    +0.000 A 
ENDBRANCH  13  14
ENDBRANCH  10  13
ENDBRANCH   6   7
BRANCH   1  20
ATOM     20  O   UNL     1       4.650   4.507  19.853  0.00  0.00    +0.000 OA
BRANCH  20  25
ATOM     21  C   UNL     1       6.200   4.510  16.460  0.00  0.00    +0.000 A 
ATOM     22  C   UNL     1       7.299   5.326  16.742  0.00  0.00    +0.000 A 
ATOM     23  C   UNL     1       7.492   5.845  18.023  0.00  0.00    +0.000 A 
ATOM     24  C   UNL     1       6.583   5.559  19.037  0.00  0.00    +0.000 A 
ATOM     25  C   UNL     1       5.460   4.776  18.766  0.00  0.00    +0.000 A 
ATOM     26  C   UNL     1       5.276   4.245  17.479  0.00  0.00    +0.000 A 
BRANCH  21  29
ATOM     27  C   UNL     1       6.514   4.388  13.998  0.00  0.00    +0.000 C 
ATOM     28  O   UNL     1       7.292   5.322  13.856  0.00  0.00    +0.000 OA
ATOM     29  N   UNL     1       5.978   3.931  15.187  0.00  0.00    +0.000 N 
ATOM     30  H   UNL     1       5.466   3.060  15.175  0.00  0.00    +0.000 HD
BRANCH  27  32
ATOM     31  C   UNL     1       6.967   3.339  11.835  0.00  0.00    +0.000 C 
ATOM     32  C   UNL     1       6.089   3.575  12.821  0.00  0.00    +0.000 C 
ENDBRANCH  27  32
ENDBRANCH  21  29
ENDBRANCH  20  25
ENDBRANCH   1  20
TORSDOF 7
ENDMDL
MODEL 3
REMARK VINA RESULT:      -9.1      1.936      3.421
REMARK  Name = 
REMARK  7 active torsions:
REMARK  status: ('A' for Active; 'I' for Inactive)
REMARK    1  A    between atoms: C_2  and  C_3
REMARK    2  A    between atoms: N_5  and  C_6
REMARK    3  A    between atoms: C_10  and  O_11
REMARK    4  A    between atoms: O_11  and  C_12
REMARK    5  A    between atoms: C_17  and  C_18
REMARK    6  A    between atoms: C_21  and  O_22
REMARK    7  A    between atoms: O_22  and  C_23
REMARK                            x       y       z     vdW  Elec       q    Type
REMARK                         _______ _______ _______ _____ _____    ______ ____
ROOT
ATOM      1  C   UNL     1       2.918   4.270  18.814  0.00  0.00    +0.000 A 
ATOM      2  N   UNL     1       3.140   2.956  19.075  0.00  0.00    +0.000 NA
ATOM      3  C   UNL     1       2.949   2.558  20.333  0.00  0.00    +0.000 A 
ATOM      4  N   UNL     1       2.578   3.346  21.342  0.00  0.00    +0.000 NA
ATOM      5  C   UNL     1       2.338   4.635  21.017  0.00  0.00    +0.000 A 
ATOM      6  C   UNL     1       2.449   5.193  19.748  0.00  0.00    +0.000 A 
ENDROOT
BRANCH   6   7
ATOM      7  C   UNL     1       2.061   6.605  19.495  0.00  0.00    +0.000 A 
ATOM      8  C   UNL     1       1.546   7.458  20.487  0.00  0.00    +0.000 A 
ATOM      9  C   UNL     1       1.238   8.803  20.215  0.00  0.00    +0.000 A 
ATOM     10  C   UNL     1       1.418   9.328  18.936  0.00  0.00    +0.000 A 
ATOM     11  C   UNL     1       1.841   8.483  17.916  0.00  0.00    +0.000 A 
ATOM     12  C   UNL     1       2.195   7.160  18.203  0.00  0.00    +0.000 A 
BRANCH  10  13
ATOM     13  O   UNL     1       1.104  10.656  18.764  0.00  0.00    +0.000 OA
BRANCH  13  14
ATOM     14  C   UNL     1      -0.211  11.069  18.839  0.00  0.00    +0.000 A 
ATOM     15  C   UNL     1      -1.097  10.451  17.954  0.00  0.00    +0.000 A 
ATOM     16  C   UNL     1      -2.450  10.802  17.951  0.00  0.00    +0.000 A 
ATOM     17  C   UNL     1      -2.920  11.772  18.834  0.00  0.00    +0.000 A 
ATOM     18  C   UNL     1      -2.046  12.366  19.743  0.00  0.00    +0.000 A 
ATOM     19  C   UNL     1      -0.701  11.994  19.766  0.00  0.00    +0.000 A 
ENDBRANCH  13  14
ENDBRANCH  10  13
ENDBRANCH   6   7
BRANCH   1  20
ATOM     20  O   UNL     1       3.115   4.679  17.504  0.00  0.00    +0.000 OA
BRANCH  20  25
ATOM     21  C   UNL     1       6.366   6.331  16.719  0.00  0.00    +0.000 A 
ATOM     22  C   UNL     1       6.947   5.293  15.986  0.00  0.00    +0.000 A 
ATOM     23  C   UNL     1       6.261   4.096  15.777  0.00  0.00    +0.000 A 
ATOM     24  C   UNL     1       4.986   3.920  16.306  0.00  0.00    +0.000 A 
ATOM     25  C   UNL     1       4.403   4.931  17.072  0.00  0.00    +0.000 A 
ATOM     26  C   UNL     1       5.092   6.139  17.269  0.00  0.00    +0.000 A 
BRANCH  21  29
ATOM     27  C   UNL     1       7.891   7.857  17.953  0.00  0.00    +0.000 C 
ATOM     28  O   UNL     1       8.297   7.076  18.803  0.00  0.00    +0.000 OA
ATOM     29  N   UNL     1       7.007   7.576  16.929  0.00  0.00    +0.000 N 
ATOM     30  H   UNL     1       6.872   8.275  16.211  0.00  0.00    +0.000 HD
BRANCH  27  32
ATOM     31  C   UNL     1       9.045   9.752  18.981  0.00  0.00    +0.000 C 
ATOM     32  C   UNL     1       8.394   9.261  17.917  0.00  0.00    +0.000 C 
ENDBRANCH  27  32
ENDBRANCH  21  29
ENDBRANCH  20  25
ENDBRANCH   1  20
TORSDOF 7
ENDMDL
MODEL 4
REMARK VINA RESULT:      -9.1      0.793      1.196
REMARK  Name = 
REMARK  7 active torsions:
REMARK  status: ('A' for Active; 'I' for Inactive)
REMARK    1  A    between atoms: C_2  and  C_3
REMARK    2  A    between atoms: N_5  and  C_6
REMARK    3  A    between atoms: C_10  and  O_11
REMARK    4  A    between atoms: O_11  and  C_12
REMARK    5  A    between atoms: C_17  and  C_18
REMARK    6  A    between atoms: C_21  and  O_22
REMARK    7  A    between atoms: O_22  and  C_23
REMARK                            x       y       z     vdW  Elec       q    Type
REMARK                         _______ _______ _______ _____ _____    ______ ____
ROOT
ATOM      1  C   UNL     1       3.431   4.100  19.888  0.00  0.00    +0.000 A 
ATOM      2  N   UNL     1       3.603   2.753  19.891  0.00  0.00    +0.000 NA
ATOM      3  C   UNL     1       2.509   2.014  19.710  0.00  0.00    +0.000 A 
ATOM      4  N   UNL     1       1.275   2.490  19.546  0.00  0.00    +0.000 NA
ATOM      5  C   UNL     1       1.169   3.837  19.518  0.00  0.00    +0.000 A 
ATOM      6  C   UNL     1       2.218   4.742  19.648  0.00  0.00    +0.000 A 
ENDROOT
BRANCH   6   7
ATOM      7  C   UNL     1       1.990   6.204  19.501  0.00  0.00    +0.000 A 
ATOM      8  C   UNL     1       1.522   7.025  20.542  0.00  0.00    +0.000 A 
ATOM      9  C   UNL     1       1.368   8.412  20.372  0.00  0.00    +0.000 A 
ATOM     10  C   UNL     1       1.656   9.015  19.150  0.00  0.00    +0.000 A 
ATOM     11  C   UNL     1       2.034   8.213  18.078  0.00  0.00    +0.000 A 
ATOM     12  C   UNL     1       2.237   6.842  18.265  0.00  0.00    +0.000 A 
BRANCH  10  13
ATOM     13  O   UNL     1       1.489  10.378  19.078  0.00  0.00    +0.000 OA
BRANCH  13  14
ATOM     14  C   UNL     1       0.226  10.924  19.186  0.00  0.00    +0.000 A 
ATOM     15  C   UNL     1       0.076  11.932  20.143  0.00  0.00    +0.000 A 
ATOM     16  C   UNL     1      -1.165  12.546  20.330  0.00  0.00    +0.000 A 
ATOM     17  C   UNL     1      -2.260  12.154  19.560  0.00  0.00    +0.000 A 
ATOM     18  C   UNL     1      -2.106  11.174  18.581  0.00  0.00    +0.000 A 
ATOM     19  C   UNL     1      -0.860  10.582  18.374  0.00  0.00    +0.000 A 
ENDBRANCH  13  14
ENDBRANCH  10  13
ENDBRANCH   6   7
BRANCH   1  20
ATOM     20  O   UNL     1       4.572   4.866  20.075  0.00  0.00    +0.000 OA
BRANCH  20  25
ATOM     21  C   UNL     1       6.306   4.537  16.788  0.00  0.00    +0.000 A 
ATOM     22  C   UNL     1       7.526   5.115  17.146  0.00  0.00    +0.000 A 
ATOM     23  C   UNL     1       7.738   5.591  18.441  0.00  0.00    +0.000 A 
ATOM     24  C   UNL     1       6.727   5.501  19.392  0.00  0.00    +0.000 A 
ATOM     25  C   UNL     1       5.488   4.960  19.044  0.00  0.00    +0.000 A 
ATOM     26  C   UNL     1       5.283   4.470  17.744  0.00  0.00    +0.000 A 
BRANCH  21  29
ATOM     27  C   UNL     1       6.646   4.441  14.328  0.00  0.00    +0.000 C 
ATOM     28  O   UNL     1       7.507   5.305  14.219  0.00  0.00    +0.000 OA
ATOM     29  N   UNL     1       6.053   4.009  15.499  0.00  0.00    +0.000 N 
ATOM     30  H   UNL     1       5.465   3.187  15.460  0.00  0.00    +0.000 HD
BRANCH  27  32
ATOM     31  C   UNL     1       6.893   3.738  11.998  0.00  0.00    +0.000 C 
ATOM     32  C   UNL     1       6.170   3.695  13.127  0.00  0.00    +0.000 C 
ENDBRANCH  27  32
ENDBRANCH  21  29
ENDBRANCH  20  25
ENDBRANCH   1  20
TORSDOF 7
ENDMDL
MODEL 5
REMARK VINA RESULT:      -9.1      1.292      1.836
REMARK  Name = 
REMARK  7 active torsions:
REMARK  status: ('A' for Active; 'I' for Inactive)
REMARK    1  A    between atoms: C_2  and  C_3
REMARK    2  A    between atoms: N_5  and  C_6
REMARK    3  A    between atoms: C_10  and  O_11
REMARK    4  A    between atoms: O_11  and  C_12
REMARK    5  A    between atoms: C_17  and  C_18
REMARK    6  A    between atoms: C_21  and  O_22
REMARK    7  A    between atoms: O_22  and  C_23
REMARK                            x       y       z     vdW  Elec       q    Type
REMARK                         _______ _______ _______ _____ _____    ______ ____
ROOT
ATOM      1  C   UNL     1       3.447   5.570  19.232  0.00  0.00    +0.000 A 
ATOM      2  N   UNL     1       3.777   4.261  19.381  0.00  0.00    +0.000 NA
ATOM      3  C   UNL     1       3.052   3.560  20.253  0.00  0.00    +0.000 A 
ATOM      4  N   UNL     1       2.053   4.045  20.990  0.00  0.00    +0.000 NA
ATOM      5  C   UNL     1       1.748   5.343  20.776  0.00  0.00    +0.000 A 
ATOM      6  C   UNL     1       2.378   6.194  19.873  0.00  0.00    +0.000 A 
ENDROOT
BRANCH   6   7
ATOM      7  C   UNL     1       1.887   7.579  19.655  0.00  0.00    +0.000 A 
ATOM      8  C   UNL     1       2.014   8.265  18.434  0.00  0.00    +0.000 A 
ATOM      9  C   UNL     1       1.490   9.557  18.258  0.00  0.00    +0.000 A 
ATOM     10  C   UNL     1       0.841  10.210  19.304  0.00  0.00    +0.000 A 
ATOM     11  C   UNL     1       0.781   9.591  20.548  0.00  0.00    +0.000 A 
ATOM     12  C   UNL     1       1.258   8.285  20.705  0.00  0.00    +0.000 A 
BRANCH  10  13
ATOM     13  O   UNL     1       0.348  11.466  19.039  0.00  0.00    +0.000 OA
BRANCH  13  14
ATOM     14  C   UNL     1      -1.011  11.700  19.099  0.00  0.00    +0.000 A 
ATOM     15  C   UNL     1      -1.778  11.109  18.092  0.00  0.00    +0.000 A 
ATOM     16  C   UNL     1      -3.164  11.289  18.065  0.00  0.00    +0.000 A 
ATOM     17  C   UNL     1      -3.786  12.061  19.045  0.00  0.00    +0.000 A 
ATOM     18  C   UNL     1      -3.029  12.624  20.070  0.00  0.00    +0.000 A 
ATOM     19  C   UNL     1      -1.649  12.420  20.114  0.00  0.00    +0.000 A 
ENDBRANCH  13  14
ENDBRANCH  10  13
ENDBRANCH   6   7
BRANCH   1  20
ATOM     20  O   UNL     1       4.203   6.295  18.323  0.00  0.00    +0.000 OA
BRANCH  20  25
ATOM     21  C   UNL     1       6.334   4.390  15.926  0.00  0.00    +0.000 A 
ATOM     22  C   UNL     1       7.506   4.351  16.687  0.00  0.00    +0.000 A 
ATOM     23  C   UNL     1       7.558   4.946  17.948  0.00  0.00    +0.000 A 
ATOM     24  C   UNL     1       6.440   5.596  18.461  0.00  0.00    +0.000 A 
ATOM     25  C   UNL     1       5.271   5.677  17.701  0.00  0.00    +0.000 A 
ATOM     26  C   UNL     1       5.218   5.066  16.438  0.00  0.00    +0.000 A 
BRANCH  21  29
ATOM     27  C   UNL     1       6.729   4.275  13.475  0.00  0.00    +0.000 C 
ATOM     28  O   UNL     1       7.393   5.294  13.339  0.00  0.00    +0.000 OA
ATOM     29  N   UNL     1       6.220   3.772  14.657  0.00  0.00    +0.000 N 
ATOM     30  H   UNL     1       5.816   2.845  14.647  0.00  0.00    +0.000 HD
BRANCH  27  32
ATOM     31  C   UNL     1       5.166   3.202  11.930  0.00  0.00    +0.000 C 
ATOM     32  C   UNL     1       6.439   3.401  12.301  0.00  0.00    +0.000 C 
ENDBRANCH  27  32
ENDBRANCH  21  29
ENDBRANCH  20  25
ENDBRANCH   1  20
TORSDOF 7
ENDMDL
MODEL 6
REMARK VINA RESULT:      -9.0      0.401      1.278
REMARK  Name = 
REMARK  7 active torsions:
REMARK  status: ('A' for Active; 'I' for Inactive)
REMARK    1  A    between atoms: C_2  and  C_3
REMARK    2  A    between atoms: N_5  and  C_6
REMARK    3  A    between atoms: C_10  and  O_11
REMARK    4  A    between atoms: O_11  and  C_12
REMARK    5  A    between atoms: C_17  and  C_18
REMARK    6  A    between atoms: C_21  and  O_22
REMARK    7  A    between atoms: O_22  and  C_23
REMARK                            x       y       z     vdW  Elec       q    Type
REMARK                         _______ _______ _______ _____ _____    ______ ____
ROOT
ATOM      1  C   UNL     1       3.646   3.681  19.231  0.00  0.00    +0.000 A 
ATOM      2  N   UNL     1       3.815   2.343  19.067  0.00  0.00    +0.000 NA
ATOM      3  C   UNL     1       2.723   1.637  18.775  0.00  0.00    +0.000 A 
ATOM      4  N   UNL     1       1.493   2.136  18.650  0.00  0.00    +0.000 NA
ATOM      5  C   UNL     1       1.391   3.476  18.790  0.00  0.00    +0.000 A 
ATOM      6  C   UNL     1       2.439   4.353  19.051  0.00  0.00    +0.000 A 
ENDROOT
BRANCH   6   7
ATOM      7  C   UNL     1       2.217   5.822  19.085  0.00  0.00    +0.000 A 
ATOM      8  C   UNL     1       1.808   6.519  20.236  0.00  0.00    +0.000 A 
ATOM      9  C   UNL     1       1.658   7.917  20.235  0.00  0.00    +0.000 A 
ATOM     10  C   UNL     1       1.892   8.656  19.077  0.00  0.00    +0.000 A 
ATOM     11  C   UNL     1       2.209   7.983  17.902  0.00  0.00    +0.000 A 
ATOM     12  C   UNL     1       2.409   6.598  17.920  0.00  0.00    +0.000 A 
BRANCH  10  13
ATOM     13  O   UNL     1       1.733  10.019  19.171  0.00  0.00    +0.000 OA
BRANCH  13  14
ATOM     14  C   UNL     1       0.466  10.565  19.208  0.00  0.00    +0.000 A 
ATOM     15  C   UNL     1      -0.366  10.251  18.131  0.00  0.00    +0.000 A 
ATOM     16  C   UNL     1      -1.668  10.758  18.076  0.00  0.00    +0.000 A 
ATOM     17  C   UNL     1      -2.140  11.580  19.098  0.00  0.00    +0.000 A 
ATOM     18  C   UNL     1      -1.325  11.867  20.191  0.00  0.00    +0.000 A 
ATOM     19  C   UNL     1      -0.036  11.337  20.261  0.00  0.00    +0.000 A 
ENDBRANCH  13  14
ENDBRANCH  10  13
ENDBRANCH   6   7
BRANCH   1  20
ATOM     20  O   UNL     1       4.785   4.412  19.533  0.00  0.00    +0.000 OA
BRANCH  20  25
ATOM     21  C   UNL     1       6.309   5.058  16.190  0.00  0.00    +0.000 A 
ATOM     22  C   UNL     1       7.250   6.014  16.580  0.00  0.00    +0.000 A 
ATOM     23  C   UNL     1       7.352   6.413  17.913  0.00  0.00    +0.000 A 
ATOM     24  C   UNL     1       6.507   5.865  18.873  0.00  0.00    +0.000 A 
ATOM     25  C   UNL     1       5.536   4.935  18.497  0.00  0.00    +0.000 A 
ATOM     26  C   UNL     1       5.445   4.527  17.157  0.00  0.00    +0.000 A 
BRANCH  21  29
ATOM     27  C   UNL     1       7.086   4.854  13.838  0.00  0.00    +0.000 C 
ATOM     28  O   UNL     1       8.137   5.475  13.928  0.00  0.00    +0.000 OA
ATOM     29  N   UNL     1       6.189   4.596  14.857  0.00  0.00    +0.000 N 
ATOM     30  H   UNL     1       5.436   3.946  14.676  0.00  0.00    +0.000 HD
BRANCH  27  32
ATOM     31  C   UNL     1       5.708   3.316  12.527  0.00  0.00    +0.000 C 
ATOM     32  C   UNL     1       6.682   4.238  12.540  0.00  0.00    +0.000 C 
ENDBRANCH  27  32
ENDBRANCH  21  29
ENDBRANCH  20  25
ENDBRANCH   1  20
TORSDOF 7
ENDMDL
MODEL 7
REMARK VINA RESULT:      -9.0      5.042     10.277
REMARK  Name = 
REMARK  7 active torsions:
REMARK  status: ('A' for Active; 'I' for Inactive)
REMARK    1  A    between atoms: C_2  and  C_3
REMARK    2  A    between atoms: N_5  and  C_6
REMARK    3  A    between atoms: C_10  and  O_11
REMARK    4  A    between atoms: O_11  and  C_12
REMARK    5  A    between atoms: C_17  and  C_18
REMARK    6  A    between atoms: C_21  and  O_22
REMARK    7  A    between atoms: O_22  and  C_23
REMARK                            x       y       z     vdW  Elec       q    Type
REMARK                         _______ _______ _______ _____ _____    ______ ____
ROOT
ATOM      1  C   UNL     1      -0.340  11.777  19.239  0.00  0.00    +0.000 A 
ATOM      2  N   UNL     1      -0.702  13.086  19.242  0.00  0.00    +0.000 NA
ATOM      3  C   UNL     1       0.289  13.977  19.281  0.00  0.00    +0.000 A 
ATOM      4  N   UNL     1       1.588  13.684  19.332  0.00  0.00    +0.000 NA
ATOM      5  C   UNL     1       1.889  12.367  19.292  0.00  0.00    +0.000 A 
ATOM      6  C   UNL     1       0.976  11.321  19.207  0.00  0.00    +0.000 A 
ENDROOT
BRANCH   6   7
ATOM      7  C   UNL     1       1.435   9.914  19.070  0.00  0.00    +0.000 A 
ATOM      8  C   UNL     1       1.984   9.388  17.887  0.00  0.00    +0.000 A 
ATOM      9  C   UNL     1       2.450   8.064  17.817  0.00  0.00    +0.000 A 
ATOM     10  C   UNL     1       2.361   7.220  18.922  0.00  0.00    +0.000 A 
ATOM     11  C   UNL     1       1.740   7.687  20.076  0.00  0.00    +0.000 A 
ATOM     12  C   UNL     1       1.325   9.020  20.158  0.00  0.00    +0.000 A 
BRANCH  10  13
ATOM     13  O   UNL     1       2.853   5.945  18.767  0.00  0.00    +0.000 OA
BRANCH  13  14
ATOM     14  C   UNL     1       2.328   4.908  19.512  0.00  0.00    +0.000 A 
ATOM     15  C   UNL     1       1.472   4.039  18.831  0.00  0.00    +0.000 A 
ATOM     16  C   UNL     1       0.887   2.959  19.498  0.00  0.00    +0.000 A 
ATOM     17  C   UNL     1       1.157   2.746  20.849  0.00  0.00    +0.000 A 
ATOM     18  C   UNL     1       2.037   3.590  21.523  0.00  0.00    +0.000 A 
ATOM     19  C   UNL     1       2.644   4.651  20.849  0.00  0.00    +0.000 A 
ENDBRANCH  13  14
ENDBRANCH  10  13
ENDBRANCH   6   7
BRANCH   1  20
ATOM     20  O   UNL     1      -1.374  10.854  19.197  0.00  0.00    +0.000 OA
BRANCH  20  25
ATOM     21  C   UNL     1      -4.294  11.627  17.008  0.00  0.00    +0.000 A 
ATOM     22  C   UNL     1      -4.018  10.723  15.979  0.00  0.00    +0.000 A 
ATOM     23  C   UNL     1      -2.894   9.898  16.036  0.00  0.00    +0.000 A 
ATOM     24  C   UNL     1      -2.026   9.974  17.121  0.00  0.00    +0.000 A 
ATOM     25  C   UNL     1      -2.264  10.896  18.141  0.00  0.00    +0.000 A 
ATOM     26  C   UNL     1      -3.404  11.715  18.087  0.00  0.00    +0.000 A 
BRANCH  21  29
ATOM     27  C   UNL     1      -6.645  12.155  17.615  0.00  0.00    +0.000 C 
ATOM     28  O   UNL     1      -6.905  11.154  18.269  0.00  0.00    +0.000 OA
ATOM     29  N   UNL     1      -5.439  12.460  17.015  0.00  0.00    +0.000 N 
ATOM     30  H   UNL     1      -5.318  13.387  16.630  0.00  0.00    +0.000 HD
BRANCH  27  32
ATOM     31  C   UNL     1      -7.283  14.433  16.993  0.00  0.00    +0.000 C 
ATOM     32  C   UNL     1      -7.667  13.229  17.443  0.00  0.00    +0.000 C 
ENDBRANCH  27  32
ENDBRANCH  21  29
ENDBRANCH  20  25
ENDBRANCH   1  20
TORSDOF 7
ENDMDL
MODEL 8
REMARK VINA RESULT:      -9.0      2.393      3.837
REMARK  Name = 
REMARK  7 active torsions:
REMARK  status: ('A' for Active; 'I' for Inactive)
REMARK    1  A    between atoms: C_2  and  C_3
REMARK    2  A    between atoms: N_5  and  C_6
REMARK    3  A    between atoms: C_10  and  O_11
REMARK    4  A    between atoms: O_11  and  C_12
REMARK    5  A    between atoms: C_17  and  C_18
REMARK    6  A    between atoms: C_21  and  O_22
REMARK    7  A    between atoms: O_22  and  C_23
REMARK                            x       y       z     vdW  Elec       q    Type
REMARK                         _______ _______ _______ _____ _____    ______ ____
ROOT
ATOM      1  C   UNL     1       2.918   4.625  18.834  0.00  0.00    +0.000 A 
ATOM      2  N   UNL     1       3.150   3.313  19.097  0.00  0.00    +0.000 NA
ATOM      3  C   UNL     1       2.920   2.907  20.345  0.00  0.00    +0.000 A 
ATOM      4  N   UNL     1       2.502   3.684  21.344  0.00  0.00    +0.000 NA
ATOM      5  C   UNL     1       2.255   4.972  21.016  0.00  0.00    +0.000 A 
ATOM      6  C   UNL     1       2.403   5.537  19.753  0.00  0.00    +0.000 A 
ENDROOT
BRANCH   6   7
ATOM      7  C   UNL     1       2.004   6.945  19.493  0.00  0.00    +0.000 A 
ATOM      8  C   UNL     1       2.067   7.548  18.225  0.00  0.00    +0.000 A 
ATOM      9  C   UNL     1       1.632   8.869  18.016  0.00  0.00    +0.000 A 
ATOM     10  C   UNL     1       1.142   9.631  19.074  0.00  0.00    +0.000 A 
ATOM     11  C   UNL     1       1.153   9.090  20.355  0.00  0.00    +0.000 A 
ATOM     12  C   UNL     1       1.537   7.759  20.550  0.00  0.00    +0.000 A 
BRANCH  10  13
ATOM     13  O   UNL     1       0.727  10.908  18.775  0.00  0.00    +0.000 OA
BRANCH  13  14
ATOM     14  C   UNL     1       1.556  11.981  19.034  0.00  0.00    +0.000 A 
ATOM     15  C   UNL     1       1.487  12.508  20.327  0.00  0.00    +0.000 A 
ATOM     16  C   UNL     1       2.286  13.597  20.686  0.00  0.00    +0.000 A 
ATOM     17  C   UNL     1       3.156  14.162  19.755  0.00  0.00    +0.000 A 
ATOM     18  C   UNL     1       3.253  13.617  18.476  0.00  0.00    +0.000 A 
ATOM     19  C   UNL     1       2.477  12.512  18.126  0.00  0.00    +0.000 A 
ENDBRANCH  13  14
ENDBRANCH  10  13
ENDBRANCH   6   7
BRANCH   1  20
ATOM     20  O   UNL     1       3.156   5.043  17.533  0.00  0.00    +0.000 OA
BRANCH  20  25
ATOM     21  C   UNL     1       6.459   6.622  16.816  0.00  0.00    +0.000 A 
ATOM     22  C   UNL     1       7.038   5.564  16.111  0.00  0.00    +0.000 A 
ATOM     23  C   UNL     1       6.334   4.378  15.897  0.00  0.00    +0.000 A 
ATOM     24  C   UNL     1       5.043   4.234  16.394  0.00  0.00    +0.000 A 
ATOM     25  C   UNL     1       4.459   5.265  17.132  0.00  0.00    +0.000 A 
ATOM     26  C   UNL     1       5.167   6.462  17.334  0.00  0.00    +0.000 A 
BRANCH  21  29
ATOM     27  C   UNL     1       8.020   8.116  18.044  0.00  0.00    +0.000 C 
ATOM     28  O   UNL     1       8.428   7.322  18.881  0.00  0.00    +0.000 OA
ATOM     29  N   UNL     1       7.118   7.857  17.030  0.00  0.00    +0.000 N 
ATOM     30  H   UNL     1       6.982   8.564  16.320  0.00  0.00    +0.000 HD
BRANCH  27  32
ATOM     31  C   UNL     1       9.245   9.974  19.058  0.00  0.00    +0.000 C 
ATOM     32  C   UNL     1       8.540   9.514  18.014  0.00  0.00    +0.000 C 
ENDBRANCH  27  32
ENDBRANCH  21  29
ENDBRANCH  20  25
ENDBRANCH   1  20
TORSDOF 7
ENDMDL
MODEL 9
REMARK VINA RESULT:      -8.8      1.899      2.664
REMARK  Name = 
REMARK  7 active torsions:
REMARK  status: ('A' for Active; 'I' for Inactive)
REMARK    1  A    between atoms: C_2  and  C_3
REMARK    2  A    between atoms: N_5  and  C_6
REMARK    3  A    between atoms: C_10  and  O_11
REMARK    4  A    between atoms: O_11  and  C_12
REMARK    5  A    between atoms: C_17  and  C_18
REMARK    6  A    between atoms: C_21  and  O_22
REMARK    7  A    between atoms: O_22  and  C_23
REMARK                            x       y       z     vdW  Elec       q    Type
REMARK                         _______ _______ _______ _____ _____    ______ ____
ROOT
ATOM      1  C   UNL     1       3.513   5.277  19.840  0.00  0.00    +0.000 A 
ATOM      2  N   UNL     1       3.816   3.963  20.004  0.00  0.00    +0.000 NA
ATOM      3  C   UNL     1       2.820   3.167  20.393  0.00  0.00    +0.000 A 
ATOM      4  N   UNL     1       1.572   3.561  20.645  0.00  0.00    +0.000 NA
ATOM      5  C   UNL     1       1.321   4.872  20.433  0.00  0.00    +0.000 A 
ATOM      6  C   UNL     1       2.238   5.819  19.987  0.00  0.00    +0.000 A 
ENDROOT
BRANCH   6   7
ATOM      7  C   UNL     1       1.816   7.214  19.695  0.00  0.00    +0.000 A 
ATOM      8  C   UNL     1       1.200   8.053  20.640  0.00  0.00    +0.000 A 
ATOM      9  C   UNL     1       0.863   9.383  20.334  0.00  0.00    +0.000 A 
ATOM     10  C   UNL     1       1.113   9.906  19.067  0.00  0.00    +0.000 A 
ATOM     11  C   UNL     1       1.639   9.071  18.087  0.00  0.00    +0.000 A 
ATOM     12  C   UNL     1       2.021   7.765  18.410  0.00  0.00    +0.000 A 
BRANCH  10  13
ATOM     13  O   UNL     1       0.763  11.220  18.861  0.00  0.00    +0.000 OA
BRANCH  13  14
ATOM     14  C   UNL     1       1.637  12.230  19.210  0.00  0.00    +0.000 A 
ATOM     15  C   UNL     1       2.386  12.778  18.165  0.00  0.00    +0.000 A 
ATOM     16  C   UNL     1       3.301  13.804  18.417  0.00  0.00    +0.000 A 
ATOM     17  C   UNL     1       3.470  14.284  19.715  0.00  0.00    +0.000 A 
ATOM     18  C   UNL     1       2.701  13.764  20.754  0.00  0.00    +0.000 A 
ATOM     19  C   UNL     1       1.766  12.760  20.497  0.00  0.00    +0.000 A 
ENDBRANCH  13  14
ENDBRANCH  10  13
ENDBRANCH   6   7
BRANCH   1  20
ATOM     20  O   UNL     1       4.552   6.102  19.433  0.00  0.00    +0.000 OA
BRANCH  20  25
ATOM     21  C   UNL     1       6.328   4.454  16.597  0.00  0.00    +0.000 A 
ATOM     22  C   UNL     1       7.616   4.458  17.137  0.00  0.00    +0.000 A 
ATOM     23  C   UNL     1       7.858   4.997  18.402  0.00  0.00    +0.000 A 
ATOM     24  C   UNL     1       6.813   5.547  19.138  0.00  0.00    +0.000 A 
ATOM     25  C   UNL     1       5.526   5.585  18.601  0.00  0.00    +0.000 A 
ATOM     26  C   UNL     1       5.284   5.030  17.333  0.00  0.00    +0.000 A 
BRANCH  21  29
ATOM     27  C   UNL     1       6.474   4.365  14.117  0.00  0.00    +0.000 C 
ATOM     28  O   UNL     1       7.232   5.308  13.936  0.00  0.00    +0.000 OA
ATOM     29  N   UNL     1       6.025   3.889  15.334  0.00  0.00    +0.000 N 
ATOM     30  H   UNL     1       5.521   3.013  15.347  0.00  0.00    +0.000 HD
BRANCH  27  32
ATOM     31  C   UNL     1       6.730   3.470  11.856  0.00  0.00    +0.000 C 
ATOM     32  C   UNL     1       5.978   3.562  12.962  0.00  0.00    +0.000 C 
ENDBRANCH  27  32
ENDBRANCH  21  29
ENDBRANCH  20  25
ENDBRANCH   1  20
TORSDOF 7
ENDMDL
