MODEL 1
REMARK VINA RESULT:      -7.0      0.000      0.000
REMARK  Name = 
REMARK  4 active torsions:
REMARK  status: ('A' for Active; 'I' for Inactive)
REMARK    1  A    between atoms: N_4  and  S_5
REMARK    2  A    between atoms: S_5  and  C_8
REMARK    3  A    between atoms: N_18  and  S_19
REMARK    4  A    between atoms: S_19  and  C_22
REMARK                            x       y       z     vdW  Elec       q    Type
REMARK                         _______ _______ _______ _____ _____    ______ ____
ROOT
ATOM      1  O   UNL     1      -0.052   8.513  21.611  0.00  0.00    +0.000 OA
ATOM      2  C   UNL     1       0.859   8.546  20.798  0.00  0.00    +0.000 C 
ATOM      3  C   UNL     1       1.824   7.380  20.643  0.00  0.00    +0.000 C 
ATOM      4  N   UNL     1       2.081   7.135  19.200  0.00  0.00    +0.000 N 
ATOM      5  C   UNL     1       2.326   8.223  18.312  0.00  0.00    +0.000 C 
ATOM      6  O   UNL     1       2.580   8.102  17.124  0.00  0.00    +0.000 OA
ATOM      7  C   UNL     1       2.268   9.595  18.976  0.00  0.00    +0.000 C 
ATOM      8  N   UNL     1       1.129   9.643  19.932  0.00  0.00    +0.000 N 
ENDROOT
BRANCH   4   9
ATOM      9  S   UNL     1       2.111   5.516  18.733  0.00  0.00    +0.000 S 
ATOM     10  O   UNL     1       1.793   4.641  19.837  0.00  0.00    +0.000 OA
ATOM     11  O   UNL     1       1.379   5.427  17.488  0.00  0.00    +0.000 OA
BRANCH   9  12
ATOM     12  C   UNL     1       3.837   5.265  18.353  0.00  0.00    +0.000 A 
ATOM     13  C   UNL     1       4.796   5.434  19.359  0.00  0.00    +0.000 A 
ATOM     14  C   UNL     1       6.143   5.201  19.067  0.00  0.00    +0.000 A 
ATOM     15  C   UNL     1       6.513   4.803  17.785  0.00  0.00    +0.000 A 
ATOM     16  F   UNL     1       7.805   4.585  17.511  0.00  0.00    +0.000 F 
ATOM     17  C   UNL     1       5.561   4.614  16.788  0.00  0.00    +0.000 A 
ATOM     18  C   UNL     1       4.213   4.831  17.074  0.00  0.00    +0.000 A 
ENDBRANCH   9  12
ENDBRANCH   4   9
BRANCH   8  19
ATOM     19  S   UNL     1       0.288  11.100  19.986  0.00  0.00    +0.000 S 
ATOM     20  O   UNL     1      -0.346  11.307  21.264  0.00  0.00    +0.000 OA
ATOM     21  O   UNL     1       1.171  12.099  19.417  0.00  0.00    +0.000 OA
BRANCH  19  22
ATOM     22  C   UNL     1      -1.030  10.825  18.814  0.00  0.00    +0.000 A 
ATOM     23  C   UNL     1      -2.218  11.557  18.934  0.00  0.00    +0.000 A 
ATOM     24  C   UNL     1      -3.246  11.347  18.012  0.00  0.00    +0.000 A 
ATOM     25  C   UNL     1      -3.071  10.424  16.984  0.00  0.00    +0.000 A 
ATOM     26  F   UNL     1      -4.057  10.233  16.097  0.00  0.00    +0.000 F 
ATOM     27  C   UNL     1      -1.886   9.705  16.854  0.00  0.00    +0.000 A 
ATOM     28  C   UNL     1      -0.856   9.903  17.774  0.00  0.00    +0.000 A 
ENDBRANCH  19  22
ENDBRANCH   8  19
TORSDOF 4
ENDMDL
MODEL 2
REMARK VINA RESULT:      -7.0      5.754      7.637
REMARK  Name = 
REMARK  4 active torsions:
REMARK  status: ('A' for Active; 'I' for Inactive)
REMARK    1  A    between atoms: N_4  and  S_5
REMARK    2  A    between atoms: S_5  and  C_8
REMARK    3  A    between atoms: N_18  and  S_19
REMARK    4  A    between atoms: S_19  and  C_22
REMARK                            x       y       z     vdW  Elec       q    Type
REMARK                         _______ _______ _______ _____ _____    ______ ____
ROOT
ATOM      1  O   UNL     1      -2.950  11.506  23.449  0.00  0.00    +0.000 OA
ATOM      2  C   UNL     1      -2.701  12.652  23.105  0.00  0.00    +0.000 C 
ATOM      3  C   UNL     1      -1.268  13.134  22.938  0.00  0.00    +0.000 C 
ATOM      4  N   UNL     1      -1.161  13.963  21.710  0.00  0.00    +0.000 N 
ATOM      5  C   UNL     1      -2.151  14.945  21.410  0.00  0.00    +0.000 C 
ATOM      6  O   UNL     1      -2.116  15.688  20.442  0.00  0.00    +0.000 OA
ATOM      7  C   UNL     1      -3.284  15.020  22.428  0.00  0.00    +0.000 C 
ATOM      8  N   UNL     1      -3.683  13.646  22.836  0.00  0.00    +0.000 N 
ENDROOT
BRANCH   4   9
ATOM      9  S   UNL     1       0.209  13.691  20.766  0.00  0.00    +0.000 S 
ATOM     10  O   UNL     1       0.536  14.845  19.963  0.00  0.00    +0.000 OA
ATOM     11  O   UNL     1       1.200  13.092  21.634  0.00  0.00    +0.000 OA
BRANCH   9  12
ATOM     12  C   UNL     1      -0.352  12.420  19.646  0.00  0.00    +0.000 A 
ATOM     13  C   UNL     1       0.179  11.128  19.746  0.00  0.00    +0.000 A 
ATOM     14  C   UNL     1      -0.289  10.127  18.891  0.00  0.00    +0.000 A 
ATOM     15  C   UNL     1      -1.277  10.423  17.956  0.00  0.00    +0.000 A 
ATOM     16  F   UNL     1      -1.719   9.460  17.137  0.00  0.00    +0.000 F 
ATOM     17  C   UNL     1      -1.823  11.699  17.867  0.00  0.00    +0.000 A 
ATOM     18  C   UNL     1      -1.372  12.703  18.725  0.00  0.00    +0.000 A 
ENDBRANCH   9  12
ENDBRANCH   4   9
BRANCH   8  19
ATOM     19  S   UNL     1      -5.335  13.408  23.063  0.00  0.00    +0.000 S 
ATOM     20  O   UNL     1      -5.601  12.466  24.122  0.00  0.00    +0.000 OA
ATOM     21  O   UNL     1      -5.938  14.726  23.063  0.00  0.00    +0.000 OA
BRANCH  19  22
ATOM     22  C   UNL     1      -5.817  12.602  21.545  0.00  0.00    +0.000 A 
ATOM     23  C   UNL     1      -7.047  11.933  21.484  0.00  0.00    +0.000 A 
ATOM     24  C   UNL     1      -7.426  11.310  20.293  0.00  0.00    +0.000 A 
ATOM     25  C   UNL     1      -6.585  11.370  19.185  0.00  0.00    +0.000 A 
ATOM     26  F   UNL     1      -6.959  10.777  18.043  0.00  0.00    +0.000 F 
ATOM     27  C   UNL     1      -5.369  12.045  19.239  0.00  0.00    +0.000 A 
ATOM     28  C   UNL     1      -4.978  12.666  20.426  0.00  0.00    +0.000 A 
ENDBRANCH  19  22
ENDBRANCH   8  19
TORSDOF 4
ENDMDL
MODEL 3
REMARK VINA RESULT:      -7.0      5.438      9.439
REMARK  Name = 
REMARK  4 active torsions:
REMARK  status: ('A' for Active; 'I' for Inactive)
REMARK    1  A    between atoms: N_4  and  S_5
REMARK    2  A    between atoms: S_5  and  C_8
REMARK    3  A    between atoms: N_18  and  S_19
REMARK    4  A    between atoms: S_19  and  C_22
REMARK                            x       y       z     vdW  Elec       q    Type
REMARK                         _______ _______ _______ _____ _____    ______ ____
ROOT
ATOM      1  O   UNL     1      -1.429  14.720  20.225  0.00  0.00    +0.000 OA
ATOM      2  C   UNL     1      -1.984  14.355  21.250  0.00  0.00    +0.000 C 
ATOM      3  C   UNL     1      -3.209  15.080  21.787  0.00  0.00    +0.000 C 
ATOM      4  N   UNL     1      -4.210  14.086  22.257  0.00  0.00    +0.000 N 
ATOM      5  C   UNL     1      -3.805  12.962  23.033  0.00  0.00    +0.000 C 
ATOM      6  O   UNL     1      -4.568  12.123  23.486  0.00  0.00    +0.000 OA
ATOM      7  C   UNL     1      -2.303  12.887  23.288  0.00  0.00    +0.000 C 
ATOM      8  N   UNL     1      -1.566  13.254  22.048  0.00  0.00    +0.000 N 
ENDROOT
BRANCH   4   9
ATOM      9  S   UNL     1      -5.812  14.423  21.854  0.00  0.00    +0.000 S 
ATOM     10  O   UNL     1      -6.665  14.404  23.018  0.00  0.00    +0.000 OA
ATOM     11  O   UNL     1      -5.788  15.573  20.976  0.00  0.00    +0.000 OA
BRANCH   9  12
ATOM     12  C   UNL     1      -6.255  13.007  20.862  0.00  0.00    +0.000 A 
ATOM     13  C   UNL     1      -5.509  12.707  19.715  0.00  0.00    +0.000 A 
ATOM     14  C   UNL     1      -5.837  11.577  18.961  0.00  0.00    +0.000 A 
ATOM     15  C   UNL     1      -6.895  10.763  19.359  0.00  0.00    +0.000 A 
ATOM     16  F   UNL     1      -7.206   9.685  18.630  0.00  0.00    +0.000 F 
ATOM     17  C   UNL     1      -7.625  11.046  20.509  0.00  0.00    +0.000 A 
ATOM     18  C   UNL     1      -7.297  12.165  21.275  0.00  0.00    +0.000 A 
ENDBRANCH   9  12
ENDBRANCH   4   9
BRANCH   8  19
ATOM     19  S   UNL     1      -0.170  12.361  21.743  0.00  0.00    +0.000 S 
ATOM     20  O   UNL     1       0.951  13.210  21.426  0.00  0.00    +0.000 OA
ATOM     21  O   UNL     1      -0.086  11.369  22.796  0.00  0.00    +0.000 OA
BRANCH  19  22
ATOM     22  C   UNL     1      -0.588  11.502  20.235  0.00  0.00    +0.000 A 
ATOM     23  C   UNL     1      -1.901  11.565  19.752  0.00  0.00    +0.000 A 
ATOM     24  C   UNL     1      -2.225  10.898  18.568  0.00  0.00    +0.000 A 
ATOM     25  C   UNL     1      -1.240  10.192  17.882  0.00  0.00    +0.000 A 
ATOM     26  F   UNL     1      -1.555   9.563  16.742  0.00  0.00    +0.000 F 
ATOM     27  C   UNL     1       0.068  10.139  18.353  0.00  0.00    +0.000 A 
ATOM     28  C   UNL     1       0.401  10.796  19.539  0.00  0.00    +0.000 A 
ENDBRANCH  19  22
ENDBRANCH   8  19
TORSDOF 4
ENDMDL
MODEL 4
REMARK VINA RESULT:      -6.9      0.412      8.012
REMARK  Name = 
REMARK  4 active torsions:
REMARK  status: ('A' for Active; 'I' for Inactive)
REMARK    1  A    between atoms: N_4  and  S_5
REMARK    2  A    between atoms: S_5  and  C_8
REMARK    3  A    between atoms: N_18  and  S_19
REMARK    4  A    between atoms: S_19  and  C_22
REMARK                            x       y       z     vdW  Elec       q    Type
REMARK                         _______ _______ _______ _____ _____    ______ ____
ROOT
ATOM      1  O   UNL     1       2.682   8.003  16.945  0.00  0.00    +0.000 OA
ATOM      2  C   UNL     1       2.448   8.234  18.121  0.00  0.00    +0.000 C 
ATOM      3  C   UNL     1       2.525   9.646  18.682  0.00  0.00    +0.000 C 
ATOM      4  N   UNL     1       1.378   9.883  19.596  0.00  0.00    +0.000 N 
ATOM      5  C   UNL     1       0.992   8.893  20.547  0.00  0.00    +0.000 C 
ATOM      6  O   UNL     1       0.086   9.026  21.355  0.00  0.00    +0.000 OA
ATOM      7  C   UNL     1       1.833   7.622  20.500  0.00  0.00    +0.000 C 
ATOM      8  N   UNL     1       2.095   7.246  19.084  0.00  0.00    +0.000 N 
ENDROOT
BRANCH   4   9
ATOM      9  S   UNL     1       0.634  11.389  19.453  0.00  0.00    +0.000 S 
ATOM     10  O   UNL     1       0.292  11.935  20.745  0.00  0.00    +0.000 OA
ATOM     11  O   UNL     1       1.424  12.157  18.515  0.00  0.00    +0.000 OA
BRANCH   9  12
ATOM     12  C   UNL     1      -0.900  10.976  18.641  0.00  0.00    +0.000 A 
ATOM     13  C   UNL     1      -2.073  11.655  18.996  0.00  0.00    +0.000 A 
ATOM     14  C   UNL     1      -3.265  11.355  18.332  0.00  0.00    +0.000 A 
ATOM     15  C   UNL     1      -3.274  10.391  17.327  0.00  0.00    +0.000 A 
ATOM     16  F   UNL     1      -4.420  10.105  16.698  0.00  0.00    +0.000 F 
ATOM     17  C   UNL     1      -2.107   9.729  16.958  0.00  0.00    +0.000 A 
ATOM     18  C   UNL     1      -0.909  10.031  17.605  0.00  0.00    +0.000 A 
ENDBRANCH   9  12
ENDBRANCH   4   9
BRANCH   8  19
ATOM     19  S   UNL     1       2.058   5.596  18.752  0.00  0.00    +0.000 S 
ATOM     20  O   UNL     1       1.715   4.821  19.919  0.00  0.00    +0.000 OA
ATOM     21  O   UNL     1       1.325   5.448  17.511  0.00  0.00    +0.000 OA
BRANCH  19  22
ATOM     22  C   UNL     1       3.772   5.237  18.403  0.00  0.00    +0.000 A 
ATOM     23  C   UNL     1       4.124   4.732  17.145  0.00  0.00    +0.000 A 
ATOM     24  C   UNL     1       5.466   4.460  16.870  0.00  0.00    +0.000 A 
ATOM     25  C   UNL     1       6.432   4.703  17.842  0.00  0.00    +0.000 A 
ATOM     26  F   UNL     1       7.719   4.448  17.569  0.00  0.00    +0.000 F 
ATOM     27  C   UNL     1       6.087   5.218  19.089  0.00  0.00    +0.000 A 
ATOM     28  C   UNL     1       4.748   5.487  19.376  0.00  0.00    +0.000 A 
ENDBRANCH  19  22
ENDBRANCH   8  19
TORSDOF 4
ENDMDL
MODEL 5
REMARK VINA RESULT:      -6.8      5.462      9.190
REMARK  Name = 
REMARK  4 active torsions:
REMARK  status: ('A' for Active; 'I' for Inactive)
REMARK    1  A    between atoms: N_4  and  S_5
REMARK    2  A    between atoms: S_5  and  C_8
REMARK    3  A    between atoms: N_18  and  S_19
REMARK    4  A    between atoms: S_19  and  C_22
REMARK                            x       y       z     vdW  Elec       q    Type
REMARK                         _______ _______ _______ _____ _____    ______ ____
ROOT
ATOM      1  O   UNL     1      -1.347  15.494  20.067  0.00  0.00    +0.000 OA
ATOM      2  C   UNL     1      -1.551  14.835  21.074  0.00  0.00    +0.000 C 
ATOM      3  C   UNL     1      -2.634  15.223  22.069  0.00  0.00    +0.000 C 
ATOM      4  N   UNL     1      -3.362  14.007  22.515  0.00  0.00    +0.000 N 
ATOM      5  C   UNL     1      -2.649  12.820  22.855  0.00  0.00    +0.000 C 
ATOM      6  O   UNL     1      -3.170  11.793  23.262  0.00  0.00    +0.000 OA
ATOM      7  C   UNL     1      -1.137  12.931  22.691  0.00  0.00    +0.000 C 
ATOM      8  N   UNL     1      -0.821  13.667  21.437  0.00  0.00    +0.000 N 
ENDROOT
BRANCH   4   9
ATOM      9  S   UNL     1      -5.036  14.164  22.631  0.00  0.00    +0.000 S 
ATOM     10  O   UNL     1      -5.531  13.637  23.880  0.00  0.00    +0.000 OA
ATOM     11  O   UNL     1      -5.357  15.514  22.222  0.00  0.00    +0.000 OA
BRANCH   9  12
ATOM     12  C   UNL     1      -5.607  13.069  21.343  0.00  0.00    +0.000 A 
ATOM     13  C   UNL     1      -6.709  12.238  21.581  0.00  0.00    +0.000 A 
ATOM     14  C   UNL     1      -7.176  11.409  20.559  0.00  0.00    +0.000 A 
ATOM     15  C   UNL     1      -6.546  11.420  19.317  0.00  0.00    +0.000 A 
ATOM     16  F   UNL     1      -6.996  10.621  18.343  0.00  0.00    +0.000 F 
ATOM     17  C   UNL     1      -5.464  12.259  19.069  0.00  0.00    +0.000 A 
ATOM     18  C   UNL     1      -4.998  13.100  20.080  0.00  0.00    +0.000 A 
ENDBRANCH   9  12
ENDBRANCH   4   9
BRANCH   8  19
ATOM     19  S   UNL     1       0.505  13.094  20.573  0.00  0.00    +0.000 S 
ATOM     20  O   UNL     1       1.127  14.134  19.791  0.00  0.00    +0.000 OA
ATOM     21  O   UNL     1       1.276  12.290  21.501  0.00  0.00    +0.000 OA
BRANCH  19  22
ATOM     22  C   UNL     1      -0.253  11.977  19.405  0.00  0.00    +0.000 A 
ATOM     23  C   UNL     1      -1.439  12.358  18.763  0.00  0.00    +0.000 A 
ATOM     24  C   UNL     1      -2.027  11.487  17.844  0.00  0.00    +0.000 A 
ATOM     25  C   UNL     1      -1.423  10.262  17.570  0.00  0.00    +0.000 A 
ATOM     26  F   UNL     1      -1.988   9.434  16.681  0.00  0.00    +0.000 F 
ATOM     27  C   UNL     1      -0.238   9.887  18.196  0.00  0.00    +0.000 A 
ATOM     28  C   UNL     1       0.354  10.747  19.122  0.00  0.00    +0.000 A 
ENDBRANCH  19  22
ENDBRANCH   8  19
TORSDOF 4
ENDMDL
MODEL 6
REMARK VINA RESULT:      -6.7      0.314      7.982
REMARK  Name = 
REMARK  4 active torsions:
REMARK  status: ('A' for Active; 'I' for Inactive)
REMARK    1  A    between atoms: N_4  and  S_5
REMARK    2  A    between atoms: S_5  and  C_8
REMARK    3  A    between atoms: N_18  and  S_19
REMARK    4  A    between atoms: S_19  and  C_22
REMARK                            x       y       z     vdW  Elec       q    Type
REMARK                         _______ _______ _______ _____ _____    ______ ____
ROOT
ATOM      1  O   UNL     1       2.565   8.178  17.020  0.00  0.00    +0.000 OA
ATOM      2  C   UNL     1       2.339   8.368  18.205  0.00  0.00    +0.000 C 
ATOM      3  C   UNL     1       2.373   9.766  18.803  0.00  0.00    +0.000 C 
ATOM      4  N   UNL     1       1.231   9.936  19.739  0.00  0.00    +0.000 N 
ATOM      5  C   UNL     1       0.896   8.907  20.668  0.00  0.00    +0.000 C 
ATOM      6  O   UNL     1      -0.002   8.984  21.491  0.00  0.00    +0.000 OA
ATOM      7  C   UNL     1       1.782   7.669  20.574  0.00  0.00    +0.000 C 
ATOM      8  N   UNL     1       2.037   7.342  19.145  0.00  0.00    +0.000 N 
ENDROOT
BRANCH   4   9
ATOM      9  S   UNL     1       0.431  11.416  19.648  0.00  0.00    +0.000 S 
ATOM     10  O   UNL     1      -0.062  11.832  20.940  0.00  0.00    +0.000 OA
ATOM     11  O   UNL     1       1.269  12.295  18.862  0.00  0.00    +0.000 OA
BRANCH   9  12
ATOM     12  C   UNL     1      -0.995  11.014  18.653  0.00  0.00    +0.000 A 
ATOM     13  C   UNL     1      -0.878  10.060  17.634  0.00  0.00    +0.000 A 
ATOM     14  C   UNL     1      -2.005   9.721  16.881  0.00  0.00    +0.000 A 
ATOM     15  C   UNL     1      -3.228  10.329  17.154  0.00  0.00    +0.000 A 
ATOM     16  F   UNL     1      -4.303  10.002  16.427  0.00  0.00    +0.000 F 
ATOM     17  C   UNL     1      -3.353  11.261  18.179  0.00  0.00    +0.000 A 
ATOM     18  C   UNL     1      -2.236  11.597  18.945  0.00  0.00    +0.000 A 
ENDBRANCH   9  12
ENDBRANCH   4   9
BRANCH   8  19
ATOM     19  S   UNL     1       2.056   5.700  18.769  0.00  0.00    +0.000 S 
ATOM     20  O   UNL     1       1.734   4.884  19.913  0.00  0.00    +0.000 OA
ATOM     21  O   UNL     1       1.332   5.563  17.521  0.00  0.00    +0.000 OA
BRANCH  19  22
ATOM     22  C   UNL     1       3.782   5.409  18.418  0.00  0.00    +0.000 A 
ATOM     23  C   UNL     1       4.704   5.399  19.472  0.00  0.00    +0.000 A 
ATOM     24  C   UNL     1       6.053   5.163  19.197  0.00  0.00    +0.000 A 
ATOM     25  C   UNL     1       6.459   4.931  17.886  0.00  0.00    +0.000 A 
ATOM     26  F   UNL     1       7.753   4.696  17.630  0.00  0.00    +0.000 F 
ATOM     27  C   UNL     1       5.543   4.927  16.838  0.00  0.00    +0.000 A 
ATOM     28  C   UNL     1       4.194   5.168  17.101  0.00  0.00    +0.000 A 
ENDBRANCH  19  22
ENDBRANCH   8  19
TORSDOF 4
ENDMDL
MODEL 7
REMARK VINA RESULT:      -6.7      0.795      7.951
REMARK  Name = 
REMARK  4 active torsions:
REMARK  status: ('A' for Active; 'I' for Inactive)
REMARK    1  A    between atoms: N_4  and  S_5
REMARK    2  A    between atoms: S_5  and  C_8
REMARK    3  A    between atoms: N_18  and  S_19
REMARK    4  A    between atoms: S_19  and  C_22
REMARK                            x       y       z     vdW  Elec       q    Type
REMARK                         _______ _______ _______ _____ _____    ______ ____
ROOT
ATOM      1  O   UNL     1       2.179   8.701  17.208  0.00  0.00    +0.000 OA
ATOM      2  C   UNL     1       1.989   8.759  18.413  0.00  0.00    +0.000 C 
ATOM      3  C   UNL     1       1.837  10.094  19.127  0.00  0.00    +0.000 C 
ATOM      4  N   UNL     1       0.733  10.007  20.117  0.00  0.00    +0.000 N 
ATOM      5  C   UNL     1       0.609   8.869  20.967  0.00  0.00    +0.000 C 
ATOM      6  O   UNL     1      -0.246   8.739  21.828  0.00  0.00    +0.000 OA
ATOM      7  C   UNL     1       1.669   7.797  20.732  0.00  0.00    +0.000 C 
ATOM      8  N   UNL     1       1.897   7.628  19.272  0.00  0.00    +0.000 N 
ENDROOT
BRANCH   4   9
ATOM      9  S   UNL     1      -0.289  11.346  20.185  0.00  0.00    +0.000 S 
ATOM     10  O   UNL     1      -1.073  11.352  21.397  0.00  0.00    +0.000 OA
ATOM     11  O   UNL     1       0.507  12.497  19.816  0.00  0.00    +0.000 OA
BRANCH   9  12
ATOM     12  C   UNL     1      -1.416  11.027  18.839  0.00  0.00    +0.000 A 
ATOM     13  C   UNL     1      -1.089  10.062  17.878  0.00  0.00    +0.000 A 
ATOM     14  C   UNL     1      -1.991   9.789  16.846  0.00  0.00    +0.000 A 
ATOM     15  C   UNL     1      -3.201  10.475  16.787  0.00  0.00    +0.000 A 
ATOM     16  F   UNL     1      -4.059  10.211  15.793  0.00  0.00    +0.000 F 
ATOM     17  C   UNL     1      -3.540  11.419  17.750  0.00  0.00    +0.000 A 
ATOM     18  C   UNL     1      -2.652  11.689  18.792  0.00  0.00    +0.000 A 
ENDBRANCH   9  12
ENDBRANCH   4   9
BRANCH   8  19
ATOM     19  S   UNL     1       2.149   6.045  18.756  0.00  0.00    +0.000 S 
ATOM     20  O   UNL     1       1.860   5.089  19.796  0.00  0.00    +0.000 OA
ATOM     21  O   UNL     1       1.531   5.942  17.449  0.00  0.00    +0.000 OA
BRANCH  19  22
ATOM     22  C   UNL     1       3.917   5.999  18.513  0.00  0.00    +0.000 A 
ATOM     23  C   UNL     1       4.472   6.631  17.392  0.00  0.00    +0.000 A 
ATOM     24  C   UNL     1       5.856   6.601  17.208  0.00  0.00    +0.000 A 
ATOM     25  C   UNL     1       6.662   5.955  18.141  0.00  0.00    +0.000 A 
ATOM     26  F   UNL     1       7.990   5.937  17.962  0.00  0.00    +0.000 F 
ATOM     27  C   UNL     1       6.115   5.337  19.262  0.00  0.00    +0.000 A 
ATOM     28  C   UNL     1       4.733   5.356  19.452  0.00  0.00    +0.000 A 
ENDBRANCH  19  22
ENDBRANCH   8  19
TORSDOF 4
ENDMDL
MODEL 8
REMARK VINA RESULT:      -6.7      4.545      7.971
REMARK  Name = 
REMARK  4 active torsions:
REMARK  status: ('A' for Active; 'I' for Inactive)
REMARK    1  A    between atoms: N_4  and  S_5
REMARK    2  A    between atoms: S_5  and  C_8
REMARK    3  A    between atoms: N_18  and  S_19
REMARK    4  A    between atoms: S_19  and  C_22
REMARK                            x       y       z     vdW  Elec       q    Type
REMARK                         _______ _______ _______ _____ _____    ______ ____
ROOT
ATOM      1  O   UNL     1       6.626   5.285  19.179  0.00  0.00    +0.000 OA
ATOM      2  C   UNL     1       5.831   4.540  18.628  0.00  0.00    +0.000 C 
ATOM      3  C   UNL     1       4.841   3.707  19.428  0.00  0.00    +0.000 C 
ATOM      4  N   UNL     1       3.511   3.739  18.766  0.00  0.00    +0.000 N 
ATOM      5  C   UNL     1       3.402   3.585  17.353  0.00  0.00    +0.000 C 
ATOM      6  O   UNL     1       2.346   3.565  16.739  0.00  0.00    +0.000 OA
ATOM      7  C   UNL     1       4.739   3.421  16.637  0.00  0.00    +0.000 C 
ATOM      8  N   UNL     1       5.738   4.357  17.220  0.00  0.00    +0.000 N 
ENDROOT
BRANCH   4   9
ATOM      9  S   UNL     1       2.190   3.912  19.798  0.00  0.00    +0.000 S 
ATOM     10  O   UNL     1       0.986   3.374  19.210  0.00  0.00    +0.000 OA
ATOM     11  O   UNL     1       2.625   3.481  21.108  0.00  0.00    +0.000 OA
BRANCH   9  12
ATOM     12  C   UNL     1       1.990   5.684  19.860  0.00  0.00    +0.000 A 
ATOM     13  C   UNL     1       2.405   6.464  18.774  0.00  0.00    +0.000 A 
ATOM     14  C   UNL     1       2.214   7.848  18.812  0.00  0.00    +0.000 A 
ATOM     15  C   UNL     1       1.612   8.432  19.923  0.00  0.00    +0.000 A 
ATOM     16  F   UNL     1       1.434   9.759  19.954  0.00  0.00    +0.000 F 
ATOM     17  C   UNL     1       1.179   7.659  20.995  0.00  0.00    +0.000 A 
ATOM     18  C   UNL     1       1.353   6.275  20.961  0.00  0.00    +0.000 A 
ENDBRANCH   9  12
ENDBRANCH   4   9
BRANCH   8  19
ATOM     19  S   UNL     1       6.795   5.067  16.117  0.00  0.00    +0.000 S 
ATOM     20  O   UNL     1       6.606   6.494  16.035  0.00  0.00    +0.000 OA
ATOM     21  O   UNL     1       8.101   4.497  16.384  0.00  0.00    +0.000 OA
BRANCH  19  22
ATOM     22  C   UNL     1       6.231   4.398  14.561  0.00  0.00    +0.000 A 
ATOM     23  C   UNL     1       4.857   4.345  14.296  0.00  0.00    +0.000 A 
ATOM     24  C   UNL     1       4.417   3.829  13.075  0.00  0.00    +0.000 A 
ATOM     25  C   UNL     1       5.347   3.386  12.138  0.00  0.00    +0.000 A 
ATOM     26  F   UNL     1       4.919   2.901  10.965  0.00  0.00    +0.000 F 
ATOM     27  C   UNL     1       6.714   3.450  12.394  0.00  0.00    +0.000 A 
ATOM     28  C   UNL     1       7.164   3.958  13.614  0.00  0.00    +0.000 A 
ENDBRANCH  19  22
ENDBRANCH   8  19
TORSDOF 4
ENDMDL
MODEL 9
REMARK VINA RESULT:      -6.6      5.374      7.199
REMARK  Name = 
REMARK  4 active torsions:
REMARK  status: ('A' for Active; 'I' for Inactive)
REMARK    1  A    between atoms: N_4  and  S_5
REMARK    2  A    between atoms: S_5  and  C_8
REMARK    3  A    between atoms: N_18  and  S_19
REMARK    4  A    between atoms: S_19  and  C_22
REMARK                            x       y       z     vdW  Elec       q    Type
REMARK                         _______ _______ _______ _____ _____    ______ ____
ROOT
ATOM      1  O   UNL     1      -2.009  11.415  23.374  0.00  0.00    +0.000 OA
ATOM      2  C   UNL     1      -1.176  11.996  22.696  0.00  0.00    +0.000 C 
ATOM      3  C   UNL     1      -0.060  11.239  21.992  0.00  0.00    +0.000 C 
ATOM      4  N   UNL     1       0.124  11.781  20.621  0.00  0.00    +0.000 N 
ATOM      5  C   UNL     1       0.135  13.189  20.394  0.00  0.00    +0.000 C 
ATOM      6  O   UNL     1       0.316  13.712  19.306  0.00  0.00    +0.000 OA
ATOM      7  C   UNL     1      -0.080  14.025  21.651  0.00  0.00    +0.000 C 
ATOM      8  N   UNL     1      -1.139  13.404  22.492  0.00  0.00    +0.000 N 
ENDROOT
BRANCH   4   9
ATOM      9  S   UNL     1       0.365  10.632  19.412  0.00  0.00    +0.000 S 
ATOM     10  O   UNL     1       1.414  11.031  18.505  0.00  0.00    +0.000 OA
ATOM     11  O   UNL     1       0.406   9.342  20.065  0.00  0.00    +0.000 OA
BRANCH   9  12
ATOM     12  C   UNL     1      -1.168  10.717  18.501  0.00  0.00    +0.000 A 
ATOM     13  C   UNL     1      -1.317   9.966  17.329  0.00  0.00    +0.000 A 
ATOM     14  C   UNL     1      -2.532  10.006  16.639  0.00  0.00    +0.000 A 
ATOM     15  C   UNL     1      -3.577  10.788  17.125  0.00  0.00    +0.000 A 
ATOM     16  F   UNL     1      -4.736  10.826  16.457  0.00  0.00    +0.000 F 
ATOM     17  C   UNL     1      -3.440  11.520  18.300  0.00  0.00    +0.000 A 
ATOM     18  C   UNL     1      -2.236  11.476  19.003  0.00  0.00    +0.000 A 
ENDBRANCH   9  12
ENDBRANCH   4   9
BRANCH   8  19
ATOM     19  S   UNL     1      -2.185  14.482  23.254  0.00  0.00    +0.000 S 
ATOM     20  O   UNL     1      -2.119  14.369  24.690  0.00  0.00    +0.000 OA
ATOM     21  O   UNL     1      -2.003  15.759  22.593  0.00  0.00    +0.000 OA
BRANCH  19  22
ATOM     22  C   UNL     1      -3.789  13.860  22.777  0.00  0.00    +0.000 A 
ATOM     23  C   UNL     1      -4.724  13.543  23.771  0.00  0.00    +0.000 A 
ATOM     24  C   UNL     1      -5.982  13.064  23.397  0.00  0.00    +0.000 A 
ATOM     25  C   UNL     1      -6.290  12.919  22.047  0.00  0.00    +0.000 A 
ATOM     26  F   UNL     1      -7.501  12.467  21.694  0.00  0.00    +0.000 F 
ATOM     27  C   UNL     1      -5.368  13.245  21.057  0.00  0.00    +0.000 A 
ATOM     28  C   UNL     1      -4.106  13.719  21.421  0.00  0.00    +0.000 A 
ENDBRANCH  19  22
ENDBRANCH   8  19
TORSDOF 4
ENDMDL
