MODEL 1
REMARK VINA RESULT:      -8.9      0.000      0.000
REMARK  Name = 
REMARK  5 active torsions:
REMARK  status: ('A' for Active; 'I' for Inactive)
REMARK    1  A    between atoms: C_9  and  N_10
REMARK    2  A    between atoms: C_19  and  N_20
REMARK    3  A    between atoms: N_20  and  C_21
REMARK    4  A    between atoms: C_24  and  C_25
REMARK    5  A    between atoms: C_25  and  N_26
REMARK                            x       y       z     vdW  Elec       q    Type
REMARK                         _______ _______ _______ _____ _____    ______ ____
ROOT
ATOM      1  O   UNL     1      -1.594  10.311  16.896  0.00  0.00    +0.000 OA
ATOM      2  C   UNL     1      -2.360  11.056  17.504  0.00  0.00    +0.000 C 
ATOM      3  N   UNL     1      -3.538  11.466  16.944  0.00  0.00    +0.000 N 
ATOM      4  C   UNL     1      -4.650  11.878  17.627  0.00  0.00    +0.000 C 
ATOM      5  O   UNL     1      -5.747  11.922  17.083  0.00  0.00    +0.000 OA
ATOM      6  C   UNL     1      -4.480  12.234  19.054  0.00  0.00    +0.000 A 
ATOM      7  C   UNL     1      -5.592  12.671  19.777  0.00  0.00    +0.000 A 
ATOM      8  C   UNL     1      -5.449  13.063  21.110  0.00  0.00    +0.000 A 
ATOM      9  C   UNL     1      -4.205  13.045  21.748  0.00  0.00    +0.000 A 
ATOM     10  C   UNL     1      -3.117  12.548  21.007  0.00  0.00    +0.000 A 
ATOM     11  C   UNL     1      -3.227  12.140  19.660  0.00  0.00    +0.000 A 
ATOM     12  C   UNL     1      -2.104  11.577  18.882  0.00  0.00    +0.000 C 
ATOM     13  C   UNL     1      -0.834  11.548  19.321  0.00  0.00    +0.000 C 
ATOM     14  H   UNL     1      -3.707  11.140  16.005  0.00  0.00    +0.000 HD
ENDROOT
BRANCH   9  15
ATOM     15  N   UNL     1      -4.030  13.463  23.056  0.00  0.00    +0.000 N 
ATOM     16  C   UNL     1      -4.900  14.464  23.674  0.00  0.00    +0.000 C 
ATOM     17  C   UNL     1      -4.132  15.760  23.914  0.00  0.00    +0.000 C 
ATOM     18  C   UNL     1      -2.861  15.502  24.720  0.00  0.00    +0.000 C 
ATOM     19  C   UNL     1      -2.000  14.432  24.054  0.00  0.00    +0.000 C 
ATOM     20  C   UNL     1      -2.792  13.151  23.784  0.00  0.00    +0.000 C 
ENDBRANCH   9  15
BRANCH  13  21
ATOM     21  N   UNL     1       0.288  11.111  18.676  0.00  0.00    +0.000 N 
ATOM     22  H   UNL     1       0.646  11.720  17.934  0.00  0.00    +0.000 HD
BRANCH  21  23
ATOM     23  C   UNL     1       1.027   9.947  18.936  0.00  0.00    +0.000 A 
ATOM     24  C   UNL     1       1.735   9.266  17.939  0.00  0.00    +0.000 A 
ATOM     25  C   UNL     1       2.329   8.030  18.198  0.00  0.00    +0.000 A 
ATOM     26  C   UNL     1       2.215   7.438  19.460  0.00  0.00    +0.000 A 
ATOM     27  C   UNL     1       1.527   8.125  20.470  0.00  0.00    +0.000 A 
ATOM     28  C   UNL     1       0.942   9.369  20.205  0.00  0.00    +0.000 A 
BRANCH  26  29
ATOM     29  C   UNL     1       2.760   6.049  19.702  0.00  0.00    +0.000 C 
BRANCH  29  30
ATOM     30  N   UNL     1       2.197   5.005  18.817  0.00  0.00    +0.000 NA
ATOM     31  C   UNL     1       3.245   4.454  17.943  0.00  0.00    +0.000 C 
ATOM     32  C   UNL     1       2.802   3.223  17.151  0.00  0.00    +0.000 C 
ATOM     33  C   UNL     1       2.227   2.157  18.070  0.00  0.00    +0.000 C 
ATOM     34  C   UNL     1       1.076   2.750  18.864  0.00  0.00    +0.000 C 
ATOM     35  C   UNL     1       1.524   3.988  19.642  0.00  0.00    +0.000 C 
ENDBRANCH  29  30
ENDBRANCH  26  29
ENDBRANCH  21  23
ENDBRANCH  13  21
TORSDOF 5
ENDMDL
MODEL 2
REMARK VINA RESULT:      -8.7      0.786      1.157
REMARK  Name = 
REMARK  5 active torsions:
REMARK  status: ('A' for Active; 'I' for Inactive)
REMARK    1  A    between atoms: C_9  and  N_10
REMARK    2  A    between atoms: C_19  and  N_20
REMARK    3  A    between atoms: N_20  and  C_21
REMARK    4  A    between atoms: C_24  and  C_25
REMARK    5  A    between atoms: C_25  and  N_26
REMARK                            x       y       z     vdW  Elec       q    Type
REMARK                         _______ _______ _______ _____ _____    ______ ____
ROOT
ATOM      1  O   UNL     1      -1.928   9.679  17.307  0.00  0.00    +0.000 OA
ATOM      2  C   UNL     1      -2.538  10.614  17.822  0.00  0.00    +0.000 C 
ATOM      3  N   UNL     1      -3.831  10.889  17.477  0.00  0.00    +0.000 N 
ATOM      4  C   UNL     1      -4.746  11.550  18.253  0.00  0.00    +0.000 C 
ATOM      5  O   UNL     1      -5.946  11.477  18.017  0.00  0.00    +0.000 OA
ATOM      6  C   UNL     1      -4.230  12.322  19.406  0.00  0.00    +0.000 A 
ATOM      7  C   UNL     1      -5.135  13.017  20.211  0.00  0.00    +0.000 A 
ATOM      8  C   UNL     1      -4.669  13.796  21.273  0.00  0.00    +0.000 A 
ATOM      9  C   UNL     1      -3.305  13.913  21.551  0.00  0.00    +0.000 A 
ATOM     10  C   UNL     1      -2.426  13.157  20.754  0.00  0.00    +0.000 A 
ATOM     11  C   UNL     1      -2.862  12.356  19.676  0.00  0.00    +0.000 A 
ATOM     12  C   UNL     1      -1.956  11.524  18.858  0.00  0.00    +0.000 C 
ATOM     13  C   UNL     1      -0.617  11.567  18.950  0.00  0.00    +0.000 C 
ATOM     14  H   UNL     1      -4.223  10.297  16.762  0.00  0.00    +0.000 HD
ENDROOT
BRANCH   9  15
ATOM     15  N   UNL     1      -2.816  14.708  22.574  0.00  0.00    +0.000 N 
ATOM     16  C   UNL     1      -2.314  14.141  23.826  0.00  0.00    +0.000 C 
ATOM     17  C   UNL     1      -3.254  14.482  24.978  0.00  0.00    +0.000 C 
ATOM     18  C   UNL     1      -3.491  15.988  25.064  0.00  0.00    +0.000 C 
ATOM     19  C   UNL     1      -3.986  16.539  23.729  0.00  0.00    +0.000 C 
ATOM     20  C   UNL     1      -3.055  16.158  22.576  0.00  0.00    +0.000 C 
ENDBRANCH   9  15
BRANCH  13  21
ATOM     21  N   UNL     1       0.318  10.895  18.214  0.00  0.00    +0.000 N 
ATOM     22  H   UNL     1       0.510  11.272  17.281  0.00  0.00    +0.000 HD
BRANCH  21  23
ATOM     23  C   UNL     1       1.070   9.776  18.601  0.00  0.00    +0.000 A 
ATOM     24  C   UNL     1       1.833   9.032  17.694  0.00  0.00    +0.000 A 
ATOM     25  C   UNL     1       2.442   7.837  18.082  0.00  0.00    +0.000 A 
ATOM     26  C   UNL     1       2.288   7.351  19.383  0.00  0.00    +0.000 A 
ATOM     27  C   UNL     1       1.545   8.103  20.303  0.00  0.00    +0.000 A 
ATOM     28  C   UNL     1       0.945   9.306  19.911  0.00  0.00    +0.000 A 
BRANCH  26  29
ATOM     29  C   UNL     1       2.852   6.000  19.764  0.00  0.00    +0.000 C 
BRANCH  29  30
ATOM     30  N   UNL     1       2.532   4.911  18.816  0.00  0.00    +0.000 NA
ATOM     31  C   UNL     1       3.752   4.172  18.452  0.00  0.00    +0.000 C 
ATOM     32  C   UNL     1       3.484   2.899  17.650  0.00  0.00    +0.000 C 
ATOM     33  C   UNL     1       2.482   2.002  18.361  0.00  0.00    +0.000 C 
ATOM     34  C   UNL     1       1.202   2.781  18.609  0.00  0.00    +0.000 C 
ATOM     35  C   UNL     1       1.482   4.060  19.400  0.00  0.00    +0.000 C 
ENDBRANCH  29  30
ENDBRANCH  26  29
ENDBRANCH  21  23
ENDBRANCH  13  21
TORSDOF 5
ENDMDL
MODEL 3
REMARK VINA RESULT:      -8.7      0.627      1.043
REMARK  Name = 
REMARK  5 active torsions:
REMARK  status: ('A' for Active; 'I' for Inactive)
REMARK    1  A    between atoms: C_9  and  N_10
REMARK    2  A    between atoms: C_19  and  N_20
REMARK    3  A    between atoms: N_20  and  C_21
REMARK    4  A    between atoms: C_24  and  C_25
REMARK    5  A    between atoms: C_25  and  N_26
REMARK                            x       y       z     vdW  Elec       q    Type
REMARK                         _______ _______ _______ _____ _____    ______ ____
ROOT
ATOM      1  O   UNL     1      -2.011  10.604  16.882  0.00  0.00    +0.000 OA
ATOM      2  C   UNL     1      -2.788  11.324  17.506  0.00  0.00    +0.000 C 
ATOM      3  N   UNL     1      -3.944  11.776  16.936  0.00  0.00    +0.000 N 
ATOM      4  C   UNL     1      -5.073  12.163  17.608  0.00  0.00    +0.000 C 
ATOM      5  O   UNL     1      -6.153  12.247  17.036  0.00  0.00    +0.000 OA
ATOM      6  C   UNL     1      -4.941  12.440  19.056  0.00  0.00    +0.000 A 
ATOM      7  C   UNL     1      -6.070  12.849  19.770  0.00  0.00    +0.000 A 
ATOM      8  C   UNL     1      -5.962  13.167  21.125  0.00  0.00    +0.000 A 
ATOM      9  C   UNL     1      -4.738  13.100  21.797  0.00  0.00    +0.000 A 
ATOM     10  C   UNL     1      -3.634  12.633  21.062  0.00  0.00    +0.000 A 
ATOM     11  C   UNL     1      -3.708  12.299  19.692  0.00  0.00    +0.000 A 
ATOM     12  C   UNL     1      -2.568  11.767  18.918  0.00  0.00    +0.000 C 
ATOM     13  C   UNL     1      -1.312  11.700  19.391  0.00  0.00    +0.000 C 
ATOM     14  H   UNL     1      -4.089  11.503  15.976  0.00  0.00    +0.000 HD
ENDROOT
BRANCH   9  15
ATOM     15  N   UNL     1      -4.598  13.446  23.131  0.00  0.00    +0.000 N 
ATOM     16  C   UNL     1      -5.431  14.472  23.759  0.00  0.00    +0.000 C 
ATOM     17  C   UNL     1      -4.594  15.703  24.095  0.00  0.00    +0.000 C 
ATOM     18  C   UNL     1      -3.380  15.325  24.942  0.00  0.00    +0.000 C 
ATOM     19  C   UNL     1      -2.559  14.232  24.262  0.00  0.00    +0.000 C 
ATOM     20  C   UNL     1      -3.418  13.020  23.896  0.00  0.00    +0.000 C 
ENDBRANCH   9  15
BRANCH  13  21
ATOM     21  N   UNL     1      -0.175  11.286  18.756  0.00  0.00    +0.000 N 
ATOM     22  H   UNL     1       0.262  11.968  18.127  0.00  0.00    +0.000 HD
BRANCH  21  23
ATOM     23  C   UNL     1       0.483  10.055  18.893  0.00  0.00    +0.000 A 
ATOM     24  C   UNL     1       0.631   9.414  20.128  0.00  0.00    +0.000 A 
ATOM     25  C   UNL     1       1.425   8.272  20.253  0.00  0.00    +0.000 A 
ATOM     26  C   UNL     1       2.101   7.754  19.145  0.00  0.00    +0.000 A 
ATOM     27  C   UNL     1       1.939   8.377  17.900  0.00  0.00    +0.000 A 
ATOM     28  C   UNL     1       1.134   9.516  17.780  0.00  0.00    +0.000 A 
BRANCH  26  29
ATOM     29  C   UNL     1       3.050   6.587  19.309  0.00  0.00    +0.000 C 
BRANCH  29  30
ATOM     30  N   UNL     1       2.796   5.456  18.390  0.00  0.00    +0.000 NA
ATOM     31  C   UNL     1       4.063   4.812  18.007  0.00  0.00    +0.000 C 
ATOM     32  C   UNL     1       3.881   3.504  17.237  0.00  0.00    +0.000 C 
ATOM     33  C   UNL     1       2.976   2.543  17.991  0.00  0.00    +0.000 C 
ATOM     34  C   UNL     1       1.642   3.220  18.260  0.00  0.00    +0.000 C 
ATOM     35  C   UNL     1       1.835   4.534  19.018  0.00  0.00    +0.000 C 
ENDBRANCH  29  30
ENDBRANCH  26  29
ENDBRANCH  21  23
ENDBRANCH  13  21
TORSDOF 5
ENDMDL
MODEL 4
REMARK VINA RESULT:      -8.6      0.967      1.599
REMARK  Name = 
REMARK  5 active torsions:
REMARK  status: ('A' for Active; 'I' for Inactive)
REMARK    1  A    between atoms: C_9  and  N_10
REMARK    2  A    between atoms: C_19  and  N_20
REMARK    3  A    between atoms: N_20  and  C_21
REMARK    4  A    between atoms: C_24  and  C_25
REMARK    5  A    between atoms: C_25  and  N_26
REMARK                            x       y       z     vdW  Elec       q    Type
REMARK                         _______ _______ _______ _____ _____    ______ ____
ROOT
ATOM      1  O   UNL     1      -1.530   9.860  17.010  0.00  0.00    +0.000 OA
ATOM      2  C   UNL     1      -2.104  10.712  17.686  0.00  0.00    +0.000 C 
ATOM      3  N   UNL     1      -3.294  11.249  17.282  0.00  0.00    +0.000 N 
ATOM      4  C   UNL     1      -4.236  11.817  18.098  0.00  0.00    +0.000 C 
ATOM      5  O   UNL     1      -5.388  11.981  17.716  0.00  0.00    +0.000 OA
ATOM      6  C   UNL     1      -3.815  12.190  19.467  0.00  0.00    +0.000 A 
ATOM      7  C   UNL     1      -4.747  12.782  20.321  0.00  0.00    +0.000 A 
ATOM      8  C   UNL     1      -4.362  13.192  21.600  0.00  0.00    +0.000 A 
ATOM      9  C   UNL     1      -3.049  13.037  22.053  0.00  0.00    +0.000 A 
ATOM     10  C   UNL     1      -2.150  12.388  21.187  0.00  0.00    +0.000 A 
ATOM     11  C   UNL     1      -2.506  11.957  19.891  0.00  0.00    +0.000 A 
ATOM     12  C   UNL     1      -1.586  11.237  18.987  0.00  0.00    +0.000 C 
ATOM     13  C   UNL     1      -0.278  11.062  19.240  0.00  0.00    +0.000 C 
ATOM     14  H   UNL     1      -3.638  10.920  16.394  0.00  0.00    +0.000 HD
ENDROOT
BRANCH   9  15
ATOM     15  N   UNL     1      -2.634  13.468  23.302  0.00  0.00    +0.000 N 
ATOM     16  C   UNL     1      -3.583  13.785  24.369  0.00  0.00    +0.000 C 
ATOM     17  C   UNL     1      -3.588  15.285  24.646  0.00  0.00    +0.000 C 
ATOM     18  C   UNL     1      -2.177  15.793  24.938  0.00  0.00    +0.000 C 
ATOM     19  C   UNL     1      -1.217  15.414  23.813  0.00  0.00    +0.000 C 
ATOM     20  C   UNL     1      -1.250  13.913  23.519  0.00  0.00    +0.000 C 
ENDBRANCH   9  15
BRANCH  13  21
ATOM     21  N   UNL     1       0.676  10.470  18.462  0.00  0.00    +0.000 N 
ATOM     22  H   UNL     1       0.980  11.003  17.641  0.00  0.00    +0.000 HD
BRANCH  21  23
ATOM     23  C   UNL     1       1.314   9.239  18.676  0.00  0.00    +0.000 A 
ATOM     24  C   UNL     1       1.277   8.576  19.908  0.00  0.00    +0.000 A 
ATOM     25  C   UNL     1       2.049   7.436  20.132  0.00  0.00    +0.000 A 
ATOM     26  C   UNL     1       2.891   6.940  19.132  0.00  0.00    +0.000 A 
ATOM     27  C   UNL     1       2.916   7.586  17.888  0.00  0.00    +0.000 A 
ATOM     28  C   UNL     1       2.131   8.724  17.667  0.00  0.00    +0.000 A 
BRANCH  26  29
ATOM     29  C   UNL     1       3.811   5.775  19.418  0.00  0.00    +0.000 C 
BRANCH  29  30
ATOM     30  N   UNL     1       3.131   4.466  19.523  0.00  0.00    +0.000 NA
ATOM     31  C   UNL     1       2.444   4.348  20.820  0.00  0.00    +0.000 C 
ATOM     32  C   UNL     1       1.537   3.122  20.926  0.00  0.00    +0.000 C 
ATOM     33  C   UNL     1       0.552   3.065  19.769  0.00  0.00    +0.000 C 
ATOM     34  C   UNL     1       1.320   3.075  18.459  0.00  0.00    +0.000 C 
ATOM     35  C   UNL     1       2.235   4.297  18.367  0.00  0.00    +0.000 C 
ENDBRANCH  29  30
ENDBRANCH  26  29
ENDBRANCH  21  23
ENDBRANCH  13  21
TORSDOF 5
ENDMDL
MODEL 5
REMARK VINA RESULT:      -8.6      2.285      3.906
REMARK  Name = 
REMARK  5 active torsions:
REMARK  status: ('A' for Active; 'I' for Inactive)
REMARK    1  A    between atoms: C_9  and  N_10
REMARK    2  A    between atoms: C_19  and  N_20
REMARK    3  A    between atoms: N_20  and  C_21
REMARK    4  A    between atoms: C_24  and  C_25
REMARK    5  A    between atoms: C_25  and  N_26
REMARK                            x       y       z     vdW  Elec       q    Type
REMARK                         _______ _______ _______ _____ _____    ______ ____
ROOT
ATOM      1  O   UNL     1       1.734  12.873  19.855  0.00  0.00    +0.000 OA
ATOM      2  C   UNL     1       0.670  12.926  20.468  0.00  0.00    +0.000 C 
ATOM      3  N   UNL     1       0.607  13.449  21.729  0.00  0.00    +0.000 N 
ATOM      4  C   UNL     1      -0.505  13.984  22.322  0.00  0.00    +0.000 C 
ATOM      5  O   UNL     1      -0.412  14.708  23.306  0.00  0.00    +0.000 OA
ATOM      6  C   UNL     1      -1.816  13.683  21.705  0.00  0.00    +0.000 A 
ATOM      7  C   UNL     1      -2.972  14.204  22.291  0.00  0.00    +0.000 A 
ATOM      8  C   UNL     1      -4.226  13.892  21.760  0.00  0.00    +0.000 A 
ATOM      9  C   UNL     1      -4.363  13.051  20.652  0.00  0.00    +0.000 A 
ATOM     10  C   UNL     1      -3.176  12.589  20.054  0.00  0.00    +0.000 A 
ATOM     11  C   UNL     1      -1.893  12.888  20.561  0.00  0.00    +0.000 A 
ATOM     12  C   UNL     1      -0.637  12.445  19.921  0.00  0.00    +0.000 C 
ATOM     13  C   UNL     1      -0.589  11.584  18.891  0.00  0.00    +0.000 C 
ATOM     14  H   UNL     1       1.488  13.752  22.116  0.00  0.00    +0.000 HD
ENDROOT
BRANCH   9  15
ATOM     15  N   UNL     1      -5.595  12.697  20.129  0.00  0.00    +0.000 N 
ATOM     16  C   UNL     1      -6.789  12.579  20.967  0.00  0.00    +0.000 C 
ATOM     17  C   UNL     1      -7.219  11.119  21.075  0.00  0.00    +0.000 C 
ATOM     18  C   UNL     1      -7.403  10.499  19.692  0.00  0.00    +0.000 C 
ATOM     19  C   UNL     1      -6.145  10.672  18.844  0.00  0.00    +0.000 C 
ATOM     20  C   UNL     1      -5.702  12.136  18.775  0.00  0.00    +0.000 C 
ENDBRANCH   9  15
BRANCH  13  21
ATOM     21  N   UNL     1       0.503  11.061  18.258  0.00  0.00    +0.000 N 
ATOM     22  H   UNL     1       0.846  11.584  17.447  0.00  0.00    +0.000 HD
BRANCH  21  23
ATOM     23  C   UNL     1       1.231   9.915  18.612  0.00  0.00    +0.000 A 
ATOM     24  C   UNL     1       2.068   9.247  17.711  0.00  0.00    +0.000 A 
ATOM     25  C   UNL     1       2.653   8.025  18.048  0.00  0.00    +0.000 A 
ATOM     26  C   UNL     1       2.401   7.435  19.290  0.00  0.00    +0.000 A 
ATOM     27  C   UNL     1       1.582   8.110  20.206  0.00  0.00    +0.000 A 
ATOM     28  C   UNL     1       1.006   9.340  19.866  0.00  0.00    +0.000 A 
BRANCH  26  29
ATOM     29  C   UNL     1       2.943   6.059  19.605  0.00  0.00    +0.000 C 
BRANCH  29  30
ATOM     30  N   UNL     1       1.914   5.000  19.698  0.00  0.00    +0.000 NA
ATOM     31  C   UNL     1       1.926   4.165  18.486  0.00  0.00    +0.000 C 
ATOM     32  C   UNL     1       1.047   2.918  18.590  0.00  0.00    +0.000 C 
ATOM     33  C   UNL     1       1.390   2.105  19.828  0.00  0.00    +0.000 C 
ATOM     34  C   UNL     1       1.251   2.986  21.058  0.00  0.00    +0.000 C 
ATOM     35  C   UNL     1       2.122   4.237  20.940  0.00  0.00    +0.000 C 
ENDBRANCH  29  30
ENDBRANCH  26  29
ENDBRANCH  21  23
ENDBRANCH  13  21
TORSDOF 5
ENDMDL
MODEL 6
REMARK VINA RESULT:      -8.5      0.889      1.351
REMARK  Name = 
REMARK  5 active torsions:
REMARK  status: ('A' for Active; 'I' for Inactive)
REMARK    1  A    between atoms: C_9  and  N_10
REMARK    2  A    between atoms: C_19  and  N_20
REMARK    3  A    between atoms: N_20  and  C_21
REMARK    4  A    between atoms: C_24  and  C_25
REMARK    5  A    between atoms: C_25  and  N_26
REMARK                            x       y       z     vdW  Elec       q    Type
REMARK                         _______ _______ _______ _____ _____    ______ ____
ROOT
ATOM      1  O   UNL     1      -1.524  10.268  17.493  0.00  0.00    +0.000 OA
ATOM      2  C   UNL     1      -2.106  11.120  18.161  0.00  0.00    +0.000 C 
ATOM      3  N   UNL     1      -3.317  11.618  17.768  0.00  0.00    +0.000 N 
ATOM      4  C   UNL     1      -4.258  12.180  18.589  0.00  0.00    +0.000 C 
ATOM      5  O   UNL     1      -5.421  12.306  18.225  0.00  0.00    +0.000 OA
ATOM      6  C   UNL     1      -3.821  12.594  19.941  0.00  0.00    +0.000 A 
ATOM      7  C   UNL     1      -4.752  13.182  20.800  0.00  0.00    +0.000 A 
ATOM      8  C   UNL     1      -4.355  13.630  22.061  0.00  0.00    +0.000 A 
ATOM      9  C   UNL     1      -3.030  13.518  22.493  0.00  0.00    +0.000 A 
ATOM     10  C   UNL     1      -2.131  12.872  21.625  0.00  0.00    +0.000 A 
ATOM     11  C   UNL     1      -2.500  12.404  20.345  0.00  0.00    +0.000 A 
ATOM     12  C   UNL     1      -1.578  11.687  19.440  0.00  0.00    +0.000 C 
ATOM     13  C   UNL     1      -0.261  11.550  19.672  0.00  0.00    +0.000 C 
ATOM     14  H   UNL     1      -3.669  11.260  16.894  0.00  0.00    +0.000 HD
ENDROOT
BRANCH   9  15
ATOM     15  N   UNL     1      -2.603  13.987  23.724  0.00  0.00    +0.000 N 
ATOM     16  C   UNL     1      -3.542  14.357  24.783  0.00  0.00    +0.000 C 
ATOM     17  C   UNL     1      -3.523  15.867  25.005  0.00  0.00    +0.000 C 
ATOM     18  C   UNL     1      -2.104  16.363  25.273  0.00  0.00    +0.000 C 
ATOM     19  C   UNL     1      -1.155  15.929  24.159  0.00  0.00    +0.000 C 
ATOM     20  C   UNL     1      -1.211  14.418  23.920  0.00  0.00    +0.000 C 
ENDBRANCH   9  15
BRANCH  13  21
ATOM     21  N   UNL     1       0.693  10.965  18.889  0.00  0.00    +0.000 N 
ATOM     22  H   UNL     1       1.115  11.563  18.172  0.00  0.00    +0.000 HD
BRANCH  21  23
ATOM     23  C   UNL     1       1.189   9.655  18.977  0.00  0.00    +0.000 A 
ATOM     24  C   UNL     1       1.170   8.922  20.169  0.00  0.00    +0.000 A 
ATOM     25  C   UNL     1       1.811   7.686  20.260  0.00  0.00    +0.000 A 
ATOM     26  C   UNL     1       2.500   7.161  19.163  0.00  0.00    +0.000 A 
ATOM     27  C   UNL     1       2.504   7.879  17.959  0.00  0.00    +0.000 A 
ATOM     28  C   UNL     1       1.850   9.114  17.872  0.00  0.00    +0.000 A 
BRANCH  26  29
ATOM     29  C   UNL     1       3.289   5.878  19.301  0.00  0.00    +0.000 C 
BRANCH  29  30
ATOM     30  N   UNL     1       2.660   4.699  18.667  0.00  0.00    +0.000 NA
ATOM     31  C   UNL     1       3.680   3.695  18.324  0.00  0.00    +0.000 C 
ATOM     32  C   UNL     1       3.099   2.358  17.866  0.00  0.00    +0.000 C 
ATOM     33  C   UNL     1       2.104   1.815  18.880  0.00  0.00    +0.000 C 
ATOM     34  C   UNL     1       1.012   2.845  19.110  0.00  0.00    +0.000 C 
ATOM     35  C   UNL     1       1.604   4.184  19.555  0.00  0.00    +0.000 C 
ENDBRANCH  29  30
ENDBRANCH  26  29
ENDBRANCH  21  23
ENDBRANCH  13  21
TORSDOF 5
ENDMDL
MODEL 7
REMARK VINA RESULT:      -8.5      0.986      1.445
REMARK  Name = 
REMARK  5 active torsions:
REMARK  status: ('A' for Active; 'I' for Inactive)
REMARK    1  A    between atoms: C_9  and  N_10
REMARK    2  A    between atoms: C_19  and  N_20
REMARK    3  A    between atoms: N_20  and  C_21
REMARK    4  A    between atoms: C_24  and  C_25
REMARK    5  A    between atoms: C_25  and  N_26
REMARK                            x       y       z     vdW  Elec       q    Type
REMARK                         _______ _______ _______ _____ _____    ______ ____
ROOT
ATOM      1  O   UNL     1      -1.613   9.879  16.955  0.00  0.00    +0.000 OA
ATOM      2  C   UNL     1      -2.180  10.719  17.650  0.00  0.00    +0.000 C 
ATOM      3  N   UNL     1      -3.381  11.252  17.275  0.00  0.00    +0.000 N 
ATOM      4  C   UNL     1      -4.312  11.804  18.114  0.00  0.00    +0.000 C 
ATOM      5  O   UNL     1      -5.472  11.964  17.754  0.00  0.00    +0.000 OA
ATOM      6  C   UNL     1      -3.869  12.163  19.480  0.00  0.00    +0.000 A 
ATOM      7  C   UNL     1      -4.790  12.739  20.357  0.00  0.00    +0.000 A 
ATOM      8  C   UNL     1      -4.385  13.136  21.634  0.00  0.00    +0.000 A 
ATOM      9  C   UNL     1      -3.063  12.985  22.062  0.00  0.00    +0.000 A 
ATOM     10  C   UNL     1      -2.175  12.352  21.172  0.00  0.00    +0.000 A 
ATOM     11  C   UNL     1      -2.552  11.935  19.877  0.00  0.00    +0.000 A 
ATOM     12  C   UNL     1      -1.643  11.232  18.949  0.00  0.00    +0.000 C 
ATOM     13  C   UNL     1      -0.329  11.063  19.176  0.00  0.00    +0.000 C 
ATOM     14  H   UNL     1      -3.739  10.931  16.389  0.00  0.00    +0.000 HD
ENDROOT
BRANCH   9  15
ATOM     15  N   UNL     1      -2.628  13.404  23.308  0.00  0.00    +0.000 N 
ATOM     16  C   UNL     1      -3.561  13.740  24.383  0.00  0.00    +0.000 C 
ATOM     17  C   UNL     1      -3.530  15.240  24.663  0.00  0.00    +0.000 C 
ATOM     18  C   UNL     1      -2.106  15.716  24.944  0.00  0.00    +0.000 C 
ATOM     19  C   UNL     1      -1.164  15.318  23.811  0.00  0.00    +0.000 C 
ATOM     20  C   UNL     1      -1.233  13.818  23.515  0.00  0.00    +0.000 C 
ENDBRANCH   9  15
BRANCH  13  21
ATOM     21  N   UNL     1       0.614  10.487  18.374  0.00  0.00    +0.000 N 
ATOM     22  H   UNL     1       0.881  11.019  17.540  0.00  0.00    +0.000 HD
BRANCH  21  23
ATOM     23  C   UNL     1       1.287   9.272  18.578  0.00  0.00    +0.000 A 
ATOM     24  C   UNL     1       1.235   8.578  19.792  0.00  0.00    +0.000 A 
ATOM     25  C   UNL     1       2.038   7.458  20.012  0.00  0.00    +0.000 A 
ATOM     26  C   UNL     1       2.926   7.016  19.027  0.00  0.00    +0.000 A 
ATOM     27  C   UNL     1       2.967   7.694  17.800  0.00  0.00    +0.000 A 
ATOM     28  C   UNL     1       2.151   8.810  17.582  0.00  0.00    +0.000 A 
BRANCH  26  29
ATOM     29  C   UNL     1       3.877   5.876  19.313  0.00  0.00    +0.000 C 
BRANCH  29  30
ATOM     30  N   UNL     1       3.256   4.534  19.269  0.00  0.00    +0.000 NA
ATOM     31  C   UNL     1       2.563   4.330  17.986  0.00  0.00    +0.000 C 
ATOM     32  C   UNL     1       2.081   2.896  17.768  0.00  0.00    +0.000 C 
ATOM     33  C   UNL     1       3.216   1.901  17.950  0.00  0.00    +0.000 C 
ATOM     34  C   UNL     1       3.819   2.079  19.333  0.00  0.00    +0.000 C 
ATOM     35  C   UNL     1       4.286   3.520  19.547  0.00  0.00    +0.000 C 
ENDBRANCH  29  30
ENDBRANCH  26  29
ENDBRANCH  21  23
ENDBRANCH  13  21
TORSDOF 5
ENDMDL
MODEL 8
REMARK VINA RESULT:      -8.4      2.222      3.971
REMARK  Name = 
REMARK  5 active torsions:
REMARK  status: ('A' for Active; 'I' for Inactive)
REMARK    1  A    between atoms: C_9  and  N_10
REMARK    2  A    between atoms: C_19  and  N_20
REMARK    3  A    between atoms: N_20  and  C_21
REMARK    4  A    between atoms: C_24  and  C_25
REMARK    5  A    between atoms: C_25  and  N_26
REMARK                            x       y       z     vdW  Elec       q    Type
REMARK                         _______ _______ _______ _____ _____    ______ ____
ROOT
ATOM      1  O   UNL     1       1.592  12.830  20.137  0.00  0.00    +0.000 OA
ATOM      2  C   UNL     1       0.500  12.860  20.700  0.00  0.00    +0.000 C 
ATOM      3  N   UNL     1       0.379  13.317  21.982  0.00  0.00    +0.000 N 
ATOM      4  C   UNL     1      -0.757  13.831  22.548  0.00  0.00    +0.000 C 
ATOM      5  O   UNL     1      -0.707  14.501  23.572  0.00  0.00    +0.000 OA
ATOM      6  C   UNL     1      -2.039  13.574  21.853  0.00  0.00    +0.000 A 
ATOM      7  C   UNL     1      -3.219  14.074  22.409  0.00  0.00    +0.000 A 
ATOM      8  C   UNL     1      -4.447  13.801  21.803  0.00  0.00    +0.000 A 
ATOM      9  C   UNL     1      -4.535  13.021  20.646  0.00  0.00    +0.000 A 
ATOM     10  C   UNL     1      -3.323  12.580  20.083  0.00  0.00    +0.000 A 
ATOM     11  C   UNL     1      -2.065  12.841  20.667  0.00  0.00    +0.000 A 
ATOM     12  C   UNL     1      -0.782  12.421  20.066  0.00  0.00    +0.000 C 
ATOM     13  C   UNL     1      -0.689  11.614  18.995  0.00  0.00    +0.000 C 
ATOM     14  H   UNL     1       1.241  13.591  22.427  0.00  0.00    +0.000 HD
ENDROOT
BRANCH   9  15
ATOM     15  N   UNL     1      -5.743  12.706  20.047  0.00  0.00    +0.000 N 
ATOM     16  C   UNL     1      -5.989  11.400  19.436  0.00  0.00    +0.000 C 
ATOM     17  C   UNL     1      -6.092  11.534  17.920  0.00  0.00    +0.000 C 
ATOM     18  C   UNL     1      -7.139  12.576  17.532  0.00  0.00    +0.000 C 
ATOM     19  C   UNL     1      -6.859  13.912  18.215  0.00  0.00    +0.000 C 
ATOM     20  C   UNL     1      -6.720  13.758  19.731  0.00  0.00    +0.000 C 
ENDBRANCH   9  15
BRANCH  13  21
ATOM     21  N   UNL     1       0.429  11.115  18.390  0.00  0.00    +0.000 N 
ATOM     22  H   UNL     1       0.812  11.675  17.622  0.00  0.00    +0.000 HD
BRANCH  21  23
ATOM     23  C   UNL     1       1.134   9.948  18.721  0.00  0.00    +0.000 A 
ATOM     24  C   UNL     1       1.898   9.240  17.787  0.00  0.00    +0.000 A 
ATOM     25  C   UNL     1       2.458   8.002  18.109  0.00  0.00    +0.000 A 
ATOM     26  C   UNL     1       2.251   7.437  19.371  0.00  0.00    +0.000 A 
ATOM     27  C   UNL     1       1.506   8.151  20.319  0.00  0.00    +0.000 A 
ATOM     28  C   UNL     1       0.956   9.397  19.992  0.00  0.00    +0.000 A 
BRANCH  26  29
ATOM     29  C   UNL     1       2.761   6.046  19.675  0.00  0.00    +0.000 C 
BRANCH  29  30
ATOM     30  N   UNL     1       2.072   4.964  18.938  0.00  0.00    +0.000 NA
ATOM     31  C   UNL     1       3.026   4.235  18.087  0.00  0.00    +0.000 C 
ATOM     32  C   UNL     1       2.446   2.968  17.458  0.00  0.00    +0.000 C 
ATOM     33  C   UNL     1       1.838   2.059  18.514  0.00  0.00    +0.000 C 
ATOM     34  C   UNL     1       0.781   2.829  19.287  0.00  0.00    +0.000 C 
ATOM     35  C   UNL     1       1.366   4.102  19.900  0.00  0.00    +0.000 C 
ENDBRANCH  29  30
ENDBRANCH  26  29
ENDBRANCH  21  23
ENDBRANCH  13  21
TORSDOF 5
ENDMDL
MODEL 9
REMARK VINA RESULT:      -8.4      1.710      2.419
REMARK  Name = 
REMARK  5 active torsions:
REMARK  status: ('A' for Active; 'I' for Inactive)
REMARK    1  A    between atoms: C_9  and  N_10
REMARK    2  A    between atoms: C_19  and  N_20
REMARK    3  A    between atoms: N_20  and  C_21
REMARK    4  A    between atoms: C_24  and  C_25
REMARK    5  A    between atoms: C_25  and  N_26
REMARK                            x       y       z     vdW  Elec       q    Type
REMARK                         _______ _______ _______ _____ _____    ______ ____
ROOT
ATOM      1  O   UNL     1      -1.482   9.958  17.007  0.00  0.00    +0.000 OA
ATOM      2  C   UNL     1      -2.066  10.782  17.708  0.00  0.00    +0.000 C 
ATOM      3  N   UNL     1      -3.271  11.304  17.329  0.00  0.00    +0.000 N 
ATOM      4  C   UNL     1      -4.216  11.834  18.167  0.00  0.00    +0.000 C 
ATOM      5  O   UNL     1      -5.375  11.982  17.801  0.00  0.00    +0.000 OA
ATOM      6  C   UNL     1      -3.787  12.184  19.540  0.00  0.00    +0.000 A 
ATOM      7  C   UNL     1      -4.722  12.738  20.417  0.00  0.00    +0.000 A 
ATOM      8  C   UNL     1      -4.332  13.126  21.701  0.00  0.00    +0.000 A 
ATOM      9  C   UNL     1      -3.011  12.988  22.137  0.00  0.00    +0.000 A 
ATOM     10  C   UNL     1      -2.109  12.377  21.247  0.00  0.00    +0.000 A 
ATOM     11  C   UNL     1      -2.470  11.969  19.945  0.00  0.00    +0.000 A 
ATOM     12  C   UNL     1      -1.545  11.288  19.016  0.00  0.00    +0.000 C 
ATOM     13  C   UNL     1      -0.231  11.134  19.251  0.00  0.00    +0.000 C 
ATOM     14  H   UNL     1      -3.618  10.988  16.437  0.00  0.00    +0.000 HD
ENDROOT
BRANCH   9  15
ATOM     15  N   UNL     1      -2.591  13.399  23.391  0.00  0.00    +0.000 N 
ATOM     16  C   UNL     1      -3.535  13.681  24.472  0.00  0.00    +0.000 C 
ATOM     17  C   UNL     1      -3.559  15.175  24.780  0.00  0.00    +0.000 C 
ATOM     18  C   UNL     1      -2.153  15.697  25.071  0.00  0.00    +0.000 C 
ATOM     19  C   UNL     1      -1.198  15.355  23.930  0.00  0.00    +0.000 C 
ATOM     20  C   UNL     1      -1.212  13.859  23.606  0.00  0.00    +0.000 C 
ENDBRANCH   9  15
BRANCH  13  21
ATOM     21  N   UNL     1       0.726  10.580  18.450  0.00  0.00    +0.000 N 
ATOM     22  H   UNL     1       1.047  11.158  17.667  0.00  0.00    +0.000 HD
BRANCH  21  23
ATOM     23  C   UNL     1       1.348   9.331  18.596  0.00  0.00    +0.000 A 
ATOM     24  C   UNL     1       1.371   8.640  19.813  0.00  0.00    +0.000 A 
ATOM     25  C   UNL     1       2.130   7.477  19.962  0.00  0.00    +0.000 A 
ATOM     26  C   UNL     1       2.896   6.988  18.900  0.00  0.00    +0.000 A 
ATOM     27  C   UNL     1       2.859   7.663  17.672  0.00  0.00    +0.000 A 
ATOM     28  C   UNL     1       2.088   8.822  17.526  0.00  0.00    +0.000 A 
BRANCH  26  29
ATOM     29  C   UNL     1       3.805   5.796  19.101  0.00  0.00    +0.000 C 
BRANCH  29  30
ATOM     30  N   UNL     1       5.096   5.881  18.385  0.00  0.00    +0.000 NA
ATOM     31  C   UNL     1       6.212   5.604  19.303  0.00  0.00    +0.000 C 
ATOM     32  C   UNL     1       7.563   5.456  18.604  0.00  0.00    +0.000 C 
ATOM     33  C   UNL     1       7.494   4.425  17.488  0.00  0.00    +0.000 C 
ATOM     34  C   UNL     1       6.402   4.821  16.509  0.00  0.00    +0.000 C 
ATOM     35  C   UNL     1       5.058   4.981  17.220  0.00  0.00    +0.000 C 
ENDBRANCH  29  30
ENDBRANCH  26  29
ENDBRANCH  21  23
ENDBRANCH  13  21
TORSDOF 5
ENDMDL
