MODEL 1
REMARK VINA RESULT:      -8.0      0.000      0.000
REMARK  Name = 
REMARK  7 active torsions:
REMARK  status: ('A' for Active; 'I' for Inactive)
REMARK    1  A    between atoms: C_1  and  C_2
REMARK    2  A    between atoms: C_2  and  N_3
REMARK    3  A    between atoms: N_3  and  C_4
REMARK    4  A    between atoms: N_3  and  C_16
REMARK    5  A    between atoms: C_4  and  C_5
REMARK    6  A    between atoms: N_11  and  C_12
REMARK    7  A    between atoms: C_21  and  C_22
REMARK                            x       y       z     vdW  Elec       q    Type
REMARK                         _______ _______ _______ _____ _____    ______ ____
ROOT
ATOM      1  C   UNL     1       4.104   6.007  18.050  0.00  0.00    +0.000 A 
ATOM      2  N   UNL     1       4.460   5.684  16.831  0.00  0.00    +0.000 NA
ATOM      3  C   UNL     1       5.721   5.166  16.774  0.00  0.00    +0.000 A 
ATOM      4  C   UNL     1       6.625   5.033  17.810  0.00  0.00    +0.000 A 
ATOM      5  C   UNL     1       7.821   4.608  17.243  0.00  0.00    +0.000 A 
ATOM      6  N   UNL     1       7.685   4.363  15.935  0.00  0.00    +0.000 NA
ATOM      7  N   UNL     1       6.378   4.640  15.689  0.00  0.00    +0.000 N 
ATOM      8  C   UNL     1       5.797   4.221  14.441  0.00  0.00    +0.000 C 
ATOM      9  C   UNL     1       6.208   5.344  19.127  0.00  0.00    +0.000 A 
ATOM     10  O   UNL     1       6.910   5.267  20.125  0.00  0.00    +0.000 OA
ATOM     11  N   UNL     1       4.889   5.736  19.161  0.00  0.00    +0.000 N 
ATOM     12  H   UNL     1       4.528   5.999  20.054  0.00  0.00    +0.000 HD
ENDROOT
BRANCH   1  13
ATOM     13  C   UNL     1       2.791   6.754  18.369  0.00  0.00    +0.000 C 
BRANCH  13  14
ATOM     14  N   UNL     1       2.196   6.385  19.690  0.00  0.00    +0.000 N 
BRANCH  14  15
ATOM     15  C   UNL     1       1.925   5.034  19.999  0.00  0.00    +0.000 A 
ATOM     16  C   UNL     1       2.221   4.540  21.288  0.00  0.00    +0.000 A 
ATOM     17  C   UNL     1       2.053   3.192  21.633  0.00  0.00    +0.000 A 
ATOM     18  C   UNL     1       1.582   2.285  20.696  0.00  0.00    +0.000 A 
ATOM     19  C   UNL     1       1.281   2.729  19.417  0.00  0.00    +0.000 A 
ATOM     20  C   UNL     1       1.449   4.081  19.046  0.00  0.00    +0.000 A 
ATOM     21  C   UNL     1       1.166   4.366  17.589  0.00  0.00    +0.000 C 
ENDBRANCH  14  15
BRANCH  14  23
ATOM     22  C   UNL     1       1.305   8.755  20.096  0.00  0.00    +0.000 C 
ATOM     23  C   UNL     1       1.741   7.410  20.642  0.00  0.00    +0.000 C 
ENDBRANCH  14  23
ENDBRANCH  13  14
ENDBRANCH   1  13
TORSDOF 4
ENDMDL
MODEL 2
REMARK VINA RESULT:      -8.0      1.481      3.252
REMARK  Name = 
REMARK  7 active torsions:
REMARK  status: ('A' for Active; 'I' for Inactive)
REMARK    1  A    between atoms: C_1  and  C_2
REMARK    2  A    between atoms: C_2  and  N_3
REMARK    3  A    between atoms: N_3  and  C_4
REMARK    4  A    between atoms: N_3  and  C_16
REMARK    5  A    between atoms: C_4  and  C_5
REMARK    6  A    between atoms: N_11  and  C_12
REMARK    7  A    between atoms: C_21  and  C_22
REMARK                            x       y       z     vdW  Elec       q    Type
REMARK                         _______ _______ _______ _____ _____    ______ ____
ROOT
ATOM      1  C   UNL     1       5.003   3.596  18.218  0.00  0.00    +0.000 A 
ATOM      2  N   UNL     1       5.223   3.924  16.968  0.00  0.00    +0.000 NA
ATOM      3  C   UNL     1       6.224   4.841  16.835  0.00  0.00    +0.000 A 
ATOM      4  C   UNL     1       6.928   5.472  17.843  0.00  0.00    +0.000 A 
ATOM      5  C   UNL     1       7.725   6.433  17.230  0.00  0.00    +0.000 A 
ATOM      6  N   UNL     1       7.643   6.361  15.897  0.00  0.00    +0.000 NA
ATOM      7  N   UNL     1       6.778   5.336  15.682  0.00  0.00    +0.000 N 
ATOM      8  C   UNL     1       6.664   4.785  14.356  0.00  0.00    +0.000 C 
ATOM      9  C   UNL     1       6.709   5.074  19.185  0.00  0.00    +0.000 A 
ATOM     10  O   UNL     1       7.268   5.552  20.161  0.00  0.00    +0.000 OA
ATOM     11  N   UNL     1       5.790   4.053  19.265  0.00  0.00    +0.000 N 
ATOM     12  H   UNL     1       5.562   3.735  20.185  0.00  0.00    +0.000 HD
ENDROOT
BRANCH   1  13
ATOM     13  C   UNL     1       3.826   2.698  18.654  0.00  0.00    +0.000 C 
BRANCH  13  14
ATOM     14  N   UNL     1       2.489   3.357  18.526  0.00  0.00    +0.000 N 
BRANCH  14  15
ATOM     15  C   UNL     1       2.309   4.694  18.943  0.00  0.00    +0.000 A 
ATOM     16  C   UNL     1       2.389   5.737  17.994  0.00  0.00    +0.000 A 
ATOM     17  C   UNL     1       2.300   7.088  18.355  0.00  0.00    +0.000 A 
ATOM     18  C   UNL     1       2.131   7.447  19.684  0.00  0.00    +0.000 A 
ATOM     19  C   UNL     1       2.050   6.453  20.647  0.00  0.00    +0.000 A 
ATOM     20  C   UNL     1       2.143   5.086  20.307  0.00  0.00    +0.000 A 
ATOM     21  C   UNL     1       2.133   4.148  21.492  0.00  0.00    +0.000 C 
ENDBRANCH  14  15
BRANCH  14  23
ATOM     22  C   UNL     1       0.426   1.982  19.180  0.00  0.00    +0.000 C 
ATOM     23  C   UNL     1       1.298   2.603  18.106  0.00  0.00    +0.000 C 
ENDBRANCH  14  23
ENDBRANCH  13  14
ENDBRANCH   1  13
TORSDOF 4
ENDMDL
MODEL 3
REMARK VINA RESULT:      -7.9      2.376      5.590
REMARK  Name = 
REMARK  7 active torsions:
REMARK  status: ('A' for Active; 'I' for Inactive)
REMARK    1  A    between atoms: C_1  and  C_2
REMARK    2  A    between atoms: C_2  and  N_3
REMARK    3  A    between atoms: N_3  and  C_4
REMARK    4  A    between atoms: N_3  and  C_16
REMARK    5  A    between atoms: C_4  and  C_5
REMARK    6  A    between atoms: N_11  and  C_12
REMARK    7  A    between atoms: C_21  and  C_22
REMARK                            x       y       z     vdW  Elec       q    Type
REMARK                         _______ _______ _______ _____ _____    ______ ____
ROOT
ATOM      1  C   UNL     1       5.158   4.925  19.482  0.00  0.00    +0.000 A 
ATOM      2  N   UNL     1       4.955   3.653  19.236  0.00  0.00    +0.000 NA
ATOM      3  C   UNL     1       3.642   3.301  19.351  0.00  0.00    +0.000 A 
ATOM      4  C   UNL     1       2.588   4.097  19.754  0.00  0.00    +0.000 A 
ATOM      5  C   UNL     1       1.481   3.264  19.870  0.00  0.00    +0.000 A 
ATOM      6  N   UNL     1       1.756   2.022  19.457  0.00  0.00    +0.000 NA
ATOM      7  N   UNL     1       3.058   2.089  19.077  0.00  0.00    +0.000 N 
ATOM      8  C   UNL     1       3.620   1.007  18.312  0.00  0.00    +0.000 C 
ATOM      9  C   UNL     1       2.817   5.478  19.973  0.00  0.00    +0.000 A 
ATOM     10  O   UNL     1       1.970   6.284  20.330  0.00  0.00    +0.000 OA
ATOM     11  N   UNL     1       4.125   5.820  19.717  0.00  0.00    +0.000 N 
ATOM     12  H   UNL     1       4.372   6.775  19.876  0.00  0.00    +0.000 HD
ENDROOT
BRANCH   1  13
ATOM     13  C   UNL     1       6.568   5.545  19.572  0.00  0.00    +0.000 C 
BRANCH  13  14
ATOM     14  N   UNL     1       7.040   6.150  18.288  0.00  0.00    +0.000 N 
BRANCH  14  15
ATOM     15  C   UNL     1       6.587   5.643  17.050  0.00  0.00    +0.000 A 
ATOM     16  C   UNL     1       7.326   4.633  16.398  0.00  0.00    +0.000 A 
ATOM     17  C   UNL     1       6.975   4.146  15.131  0.00  0.00    +0.000 A 
ATOM     18  C   UNL     1       5.869   4.657  14.468  0.00  0.00    +0.000 A 
ATOM     19  C   UNL     1       5.118   5.652  15.074  0.00  0.00    +0.000 A 
ATOM     20  C   UNL     1       5.456   6.161  16.346  0.00  0.00    +0.000 A 
ATOM     21  C   UNL     1       4.586   7.307  16.809  0.00  0.00    +0.000 C 
ENDBRANCH  14  15
BRANCH  14  23
ATOM     22  C   UNL     1       7.757   8.530  17.656  0.00  0.00    +0.000 C 
ATOM     23  C   UNL     1       8.090   7.181  18.264  0.00  0.00    +0.000 C 
ENDBRANCH  14  23
ENDBRANCH  13  14
ENDBRANCH   1  13
TORSDOF 4
ENDMDL
MODEL 4
REMARK VINA RESULT:      -7.9      2.212      6.139
REMARK  Name = 
REMARK  7 active torsions:
REMARK  status: ('A' for Active; 'I' for Inactive)
REMARK    1  A    between atoms: C_1  and  C_2
REMARK    2  A    between atoms: C_2  and  N_3
REMARK    3  A    between atoms: N_3  and  C_4
REMARK    4  A    between atoms: N_3  and  C_16
REMARK    5  A    between atoms: C_4  and  C_5
REMARK    6  A    between atoms: N_11  and  C_12
REMARK    7  A    between atoms: C_21  and  C_22
REMARK                            x       y       z     vdW  Elec       q    Type
REMARK                         _______ _______ _______ _____ _____    ______ ____
ROOT
ATOM      1  C   UNL     1       3.896   3.639  17.920  0.00  0.00    +0.000 A 
ATOM      2  N   UNL     1       2.975   4.304  18.573  0.00  0.00    +0.000 NA
ATOM      3  C   UNL     1       2.794   3.837  19.843  0.00  0.00    +0.000 A 
ATOM      4  C   UNL     1       3.401   2.746  20.433  0.00  0.00    +0.000 A 
ATOM      5  C   UNL     1       2.785   2.567  21.667  0.00  0.00    +0.000 A 
ATOM      6  N   UNL     1       1.910   3.545  21.925  0.00  0.00    +0.000 NA
ATOM      7  N   UNL     1       1.988   4.345  20.831  0.00  0.00    +0.000 N 
ATOM      8  C   UNL     1       1.391   5.655  20.878  0.00  0.00    +0.000 C 
ATOM      9  C   UNL     1       4.426   2.067  19.730  0.00  0.00    +0.000 A 
ATOM     10  O   UNL     1       5.038   1.093  20.143  0.00  0.00    +0.000 OA
ATOM     11  N   UNL     1       4.672   2.651  18.508  0.00  0.00    +0.000 N 
ATOM     12  H   UNL     1       5.365   2.211  17.938  0.00  0.00    +0.000 HD
ENDROOT
BRANCH   1  13
ATOM     13  C   UNL     1       4.186   3.864  16.421  0.00  0.00    +0.000 C 
BRANCH  13  14
ATOM     14  N   UNL     1       5.632   4.095  16.117  0.00  0.00    +0.000 N 
BRANCH  14  15
ATOM     15  C   UNL     1       6.359   5.086  16.813  0.00  0.00    +0.000 A 
ATOM     16  C   UNL     1       7.349   4.700  17.743  0.00  0.00    +0.000 A 
ATOM     17  C   UNL     1       8.048   5.630  18.524  0.00  0.00    +0.000 A 
ATOM     18  C   UNL     1       7.779   6.985  18.405  0.00  0.00    +0.000 A 
ATOM     19  C   UNL     1       6.812   7.405  17.505  0.00  0.00    +0.000 A 
ATOM     20  C   UNL     1       6.092   6.486  16.712  0.00  0.00    +0.000 A 
ATOM     21  C   UNL     1       5.012   7.112  15.859  0.00  0.00    +0.000 C 
ENDBRANCH  14  15
BRANCH  14  23
ATOM     22  C   UNL     1       6.287   4.080  13.637  0.00  0.00    +0.000 C 
ATOM     23  C   UNL     1       6.302   3.413  14.998  0.00  0.00    +0.000 C 
ENDBRANCH  14  23
ENDBRANCH  13  14
ENDBRANCH   1  13
TORSDOF 4
ENDMDL
MODEL 5
REMARK VINA RESULT:      -7.8      2.087      5.818
REMARK  Name = 
REMARK  7 active torsions:
REMARK  status: ('A' for Active; 'I' for Inactive)
REMARK    1  A    between atoms: C_1  and  C_2
REMARK    2  A    between atoms: C_2  and  N_3
REMARK    3  A    between atoms: N_3  and  C_4
REMARK    4  A    between atoms: N_3  and  C_16
REMARK    5  A    between atoms: C_4  and  C_5
REMARK    6  A    between atoms: N_11  and  C_12
REMARK    7  A    between atoms: C_21  and  C_22
REMARK                            x       y       z     vdW  Elec       q    Type
REMARK                         _______ _______ _______ _____ _____    ______ ____
ROOT
ATOM      1  C   UNL     1       5.314   4.440  19.513  0.00  0.00    +0.000 A 
ATOM      2  N   UNL     1       4.292   5.205  19.810  0.00  0.00    +0.000 NA
ATOM      3  C   UNL     1       3.096   4.568  19.650  0.00  0.00    +0.000 A 
ATOM      4  C   UNL     1       2.880   3.295  19.159  0.00  0.00    +0.000 A 
ATOM      5  C   UNL     1       1.503   3.147  19.031  0.00  0.00    +0.000 A 
ATOM      6  N   UNL     1       0.848   4.207  19.516  0.00  0.00    +0.000 NA
ATOM      7  N   UNL     1       1.839   5.026  19.953  0.00  0.00    +0.000 N 
ATOM      8  C   UNL     1       1.501   6.144  20.795  0.00  0.00    +0.000 C 
ATOM      9  C   UNL     1       3.995   2.466  18.885  0.00  0.00    +0.000 A 
ATOM     10  O   UNL     1       3.935   1.325  18.451  0.00  0.00    +0.000 OA
ATOM     11  N   UNL     1       5.180   3.099  19.187  0.00  0.00    +0.000 N 
ATOM     12  H   UNL     1       6.017   2.587  18.995  0.00  0.00    +0.000 HD
ENDROOT
BRANCH   1  13
ATOM     13  C   UNL     1       6.765   4.964  19.461  0.00  0.00    +0.000 C 
BRANCH  13  14
ATOM     14  N   UNL     1       7.044   5.841  18.282  0.00  0.00    +0.000 N 
BRANCH  14  15
ATOM     15  C   UNL     1       6.560   5.493  17.002  0.00  0.00    +0.000 A 
ATOM     16  C   UNL     1       7.326   4.642  16.175  0.00  0.00    +0.000 A 
ATOM     17  C   UNL     1       6.941   4.325  14.865  0.00  0.00    +0.000 A 
ATOM     18  C   UNL     1       5.774   4.852  14.333  0.00  0.00    +0.000 A 
ATOM     19  C   UNL     1       4.995   5.693  15.112  0.00  0.00    +0.000 A 
ATOM     20  C   UNL     1       5.366   6.031  16.431  0.00  0.00    +0.000 A 
ATOM     21  C   UNL     1       4.452   7.035  17.097  0.00  0.00    +0.000 C 
ENDBRANCH  14  15
BRANCH  14  23
ATOM     22  C   UNL     1       7.689   8.187  17.473  0.00  0.00    +0.000 C 
ATOM     23  C   UNL     1       7.943   7.002  18.383  0.00  0.00    +0.000 C 
ENDBRANCH  14  23
ENDBRANCH  13  14
ENDBRANCH   1  13
TORSDOF 4
ENDMDL
MODEL 6
REMARK VINA RESULT:      -7.7      1.440      3.056
REMARK  Name = 
REMARK  7 active torsions:
REMARK  status: ('A' for Active; 'I' for Inactive)
REMARK    1  A    between atoms: C_1  and  C_2
REMARK    2  A    between atoms: C_2  and  N_3
REMARK    3  A    between atoms: N_3  and  C_4
REMARK    4  A    between atoms: N_3  and  C_16
REMARK    5  A    between atoms: C_4  and  C_5
REMARK    6  A    between atoms: N_11  and  C_12
REMARK    7  A    between atoms: C_21  and  C_22
REMARK                            x       y       z     vdW  Elec       q    Type
REMARK                         _______ _______ _______ _____ _____    ______ ____
ROOT
ATOM      1  C   UNL     1       4.928   3.830  18.183  0.00  0.00    +0.000 A 
ATOM      2  N   UNL     1       4.774   3.885  16.882  0.00  0.00    +0.000 NA
ATOM      3  C   UNL     1       5.882   4.361  16.244  0.00  0.00    +0.000 A 
ATOM      4  C   UNL     1       7.047   4.833  16.817  0.00  0.00    +0.000 A 
ATOM      5  C   UNL     1       7.816   5.356  15.783  0.00  0.00    +0.000 A 
ATOM      6  N   UNL     1       7.249   5.138  14.591  0.00  0.00    +0.000 NA
ATOM      7  N   UNL     1       6.108   4.466  14.894  0.00  0.00    +0.000 N 
ATOM      8  C   UNL     1       5.378   3.816  13.837  0.00  0.00    +0.000 C 
ATOM      9  C   UNL     1       7.214   4.725  18.219  0.00  0.00    +0.000 A 
ATOM     10  O   UNL     1       8.195   5.102  18.842  0.00  0.00    +0.000 OA
ATOM     11  N   UNL     1       6.131   4.117  18.811  0.00  0.00    +0.000 N 
ATOM     12  H   UNL     1       6.162   4.028  19.806  0.00  0.00    +0.000 HD
ENDROOT
BRANCH   1  13
ATOM     13  C   UNL     1       3.777   3.475  19.147  0.00  0.00    +0.000 C 
BRANCH  13  14
ATOM     14  N   UNL     1       2.502   4.200  18.853  0.00  0.00    +0.000 N 
BRANCH  14  15
ATOM     15  C   UNL     1       2.261   5.476  19.408  0.00  0.00    +0.000 A 
ATOM     16  C   UNL     1       1.565   5.584  20.632  0.00  0.00    +0.000 A 
ATOM     17  C   UNL     1       1.223   6.822  21.194  0.00  0.00    +0.000 A 
ATOM     18  C   UNL     1       1.564   8.000  20.547  0.00  0.00    +0.000 A 
ATOM     19  C   UNL     1       2.246   7.938  19.342  0.00  0.00    +0.000 A 
ATOM     20  C   UNL     1       2.595   6.702  18.755  0.00  0.00    +0.000 A 
ATOM     21  C   UNL     1       3.247   6.821  17.396  0.00  0.00    +0.000 C 
ENDBRANCH  14  15
BRANCH  14  23
ATOM     22  C   UNL     1       0.684   2.393  18.753  0.00  0.00    +0.000 C 
ATOM     23  C   UNL     1       1.407   3.559  18.107  0.00  0.00    +0.000 C 
ENDBRANCH  14  23
ENDBRANCH  13  14
ENDBRANCH   1  13
TORSDOF 4
ENDMDL
MODEL 7
REMARK VINA RESULT:      -7.7      1.854      5.958
REMARK  Name = 
REMARK  7 active torsions:
REMARK  status: ('A' for Active; 'I' for Inactive)
REMARK    1  A    between atoms: C_1  and  C_2
REMARK    2  A    between atoms: C_2  and  N_3
REMARK    3  A    between atoms: N_3  and  C_4
REMARK    4  A    between atoms: N_3  and  C_16
REMARK    5  A    between atoms: C_4  and  C_5
REMARK    6  A    between atoms: N_11  and  C_12
REMARK    7  A    between atoms: C_21  and  C_22
REMARK                            x       y       z     vdW  Elec       q    Type
REMARK                         _______ _______ _______ _____ _____    ______ ____
ROOT
ATOM      1  C   UNL     1       4.183   3.738  17.580  0.00  0.00    +0.000 A 
ATOM      2  N   UNL     1       3.495   4.847  17.700  0.00  0.00    +0.000 NA
ATOM      3  C   UNL     1       2.988   5.015  18.956  0.00  0.00    +0.000 A 
ATOM      4  C   UNL     1       3.066   4.138  20.020  0.00  0.00    +0.000 A 
ATOM      5  C   UNL     1       2.271   4.666  21.031  0.00  0.00    +0.000 A 
ATOM      6  N   UNL     1       1.793   5.871  20.701  0.00  0.00    +0.000 NA
ATOM      7  N   UNL     1       2.304   6.092  19.462  0.00  0.00    +0.000 N 
ATOM      8  C   UNL     1       2.232   7.417  18.902  0.00  0.00    +0.000 C 
ATOM      9  C   UNL     1       3.851   2.966  19.886  0.00  0.00    +0.000 A 
ATOM     10  O   UNL     1       4.000   2.116  20.752  0.00  0.00    +0.000 OA
ATOM     11  N   UNL     1       4.454   2.900  18.651  0.00  0.00    +0.000 N 
ATOM     12  H   UNL     1       5.005   2.086  18.470  0.00  0.00    +0.000 HD
ENDROOT
BRANCH   1  13
ATOM     13  C   UNL     1       4.730   3.236  16.227  0.00  0.00    +0.000 C 
BRANCH  13  14
ATOM     14  N   UNL     1       5.939   3.979  15.755  0.00  0.00    +0.000 N 
BRANCH  14  15
ATOM     15  C   UNL     1       6.548   4.950  16.580  0.00  0.00    +0.000 A 
ATOM     16  C   UNL     1       7.449   4.543  17.588  0.00  0.00    +0.000 A 
ATOM     17  C   UNL     1       8.023   5.448  18.491  0.00  0.00    +0.000 A 
ATOM     18  C   UNL     1       7.713   6.798  18.419  0.00  0.00    +0.000 A 
ATOM     19  C   UNL     1       6.830   7.238  17.445  0.00  0.00    +0.000 A 
ATOM     20  C   UNL     1       6.236   6.344  16.529  0.00  0.00    +0.000 A 
ATOM     21  C   UNL     1       5.227   6.982  15.602  0.00  0.00    +0.000 C 
ENDBRANCH  14  15
BRANCH  14  23
ATOM     22  C   UNL     1       5.440   3.838  13.243  0.00  0.00    +0.000 C 
ATOM     23  C   UNL     1       6.443   3.834  14.380  0.00  0.00    +0.000 C 
ENDBRANCH  14  23
ENDBRANCH  13  14
ENDBRANCH   1  13
TORSDOF 4
ENDMDL
MODEL 8
REMARK VINA RESULT:      -7.7      2.030      5.968
REMARK  Name = 
REMARK  7 active torsions:
REMARK  status: ('A' for Active; 'I' for Inactive)
REMARK    1  A    between atoms: C_1  and  C_2
REMARK    2  A    between atoms: C_2  and  N_3
REMARK    3  A    between atoms: N_3  and  C_4
REMARK    4  A    between atoms: N_3  and  C_16
REMARK    5  A    between atoms: C_4  and  C_5
REMARK    6  A    between atoms: N_11  and  C_12
REMARK    7  A    between atoms: C_21  and  C_22
REMARK                            x       y       z     vdW  Elec       q    Type
REMARK                         _______ _______ _______ _____ _____    ______ ____
ROOT
ATOM      1  C   UNL     1       5.429   4.640  19.131  0.00  0.00    +0.000 A 
ATOM      2  N   UNL     1       4.422   5.438  19.389  0.00  0.00    +0.000 NA
ATOM      3  C   UNL     1       3.327   4.767  19.851  0.00  0.00    +0.000 A 
ATOM      4  C   UNL     1       3.172   3.402  19.988  0.00  0.00    +0.000 A 
ATOM      5  C   UNL     1       1.844   3.185  20.338  0.00  0.00    +0.000 A 
ATOM      6  N   UNL     1       1.194   4.337  20.536  0.00  0.00    +0.000 NA
ATOM      7  N   UNL     1       2.139   5.284  20.304  0.00  0.00    +0.000 N 
ATOM      8  C   UNL     1       1.877   6.645  20.697  0.00  0.00    +0.000 C 
ATOM      9  C   UNL     1       4.284   2.558  19.748  0.00  0.00    +0.000 A 
ATOM     10  O   UNL     1       4.274   1.338  19.835  0.00  0.00    +0.000 OA
ATOM     11  N   UNL     1       5.405   3.282  19.414  0.00  0.00    +0.000 N 
ATOM     12  H   UNL     1       6.227   2.754  19.202  0.00  0.00    +0.000 HD
ENDROOT
BRANCH   1  13
ATOM     13  C   UNL     1       6.729   5.124  18.454  0.00  0.00    +0.000 C 
BRANCH  13  14
ATOM     14  N   UNL     1       6.499   5.880  17.185  0.00  0.00    +0.000 N 
BRANCH  14  15
ATOM     15  C   UNL     1       6.447   5.201  15.948  0.00  0.00    +0.000 A 
ATOM     16  C   UNL     1       7.509   5.342  15.029  0.00  0.00    +0.000 A 
ATOM     17  C   UNL     1       7.481   4.761  13.754  0.00  0.00    +0.000 A 
ATOM     18  C   UNL     1       6.383   4.016  13.350  0.00  0.00    +0.000 A 
ATOM     19  C   UNL     1       5.317   3.855  14.222  0.00  0.00    +0.000 A 
ATOM     20  C   UNL     1       5.322   4.436  15.508  0.00  0.00    +0.000 A 
ATOM     21  C   UNL     1       4.039   4.240  16.284  0.00  0.00    +0.000 C 
ENDBRANCH  14  15
BRANCH  14  23
ATOM     22  C   UNL     1       7.710   8.104  17.588  0.00  0.00    +0.000 C 
ATOM     23  C   UNL     1       6.466   7.351  17.160  0.00  0.00    +0.000 C 
ENDBRANCH  14  23
ENDBRANCH  13  14
ENDBRANCH   1  13
TORSDOF 4
ENDMDL
MODEL 9
REMARK VINA RESULT:      -7.5      0.627      1.582
REMARK  Name = 
REMARK  7 active torsions:
REMARK  status: ('A' for Active; 'I' for Inactive)
REMARK    1  A    between atoms: C_1  and  C_2
REMARK    2  A    between atoms: C_2  and  N_3
REMARK    3  A    between atoms: N_3  and  C_4
REMARK    4  A    between atoms: N_3  and  C_16
REMARK    5  A    between atoms: C_4  and  C_5
REMARK    6  A    between atoms: N_11  and  C_12
REMARK    7  A    between atoms: C_21  and  C_22
REMARK                            x       y       z     vdW  Elec       q    Type
REMARK                         _______ _______ _______ _____ _____    ______ ____
ROOT
ATOM      1  C   UNL     1       4.259   6.079  18.321  0.00  0.00    +0.000 A 
ATOM      2  N   UNL     1       4.494   5.799  17.062  0.00  0.00    +0.000 NA
ATOM      3  C   UNL     1       5.726   5.244  16.870  0.00  0.00    +0.000 A 
ATOM      4  C   UNL     1       6.713   5.037  17.815  0.00  0.00    +0.000 A 
ATOM      5  C   UNL     1       7.839   4.600  17.125  0.00  0.00    +0.000 A 
ATOM      6  N   UNL     1       7.578   4.417  15.826  0.00  0.00    +0.000 NA
ATOM      7  N   UNL     1       6.265   4.746  15.711  0.00  0.00    +0.000 N 
ATOM      8  C   UNL     1       5.561   4.400  14.503  0.00  0.00    +0.000 C 
ATOM      9  C   UNL     1       6.426   5.304  19.176  0.00  0.00    +0.000 A 
ATOM     10  O   UNL     1       7.211   5.161  20.102  0.00  0.00    +0.000 OA
ATOM     11  N   UNL     1       5.130   5.735  19.344  0.00  0.00    +0.000 N 
ATOM     12  H   UNL     1       4.859   5.970  20.277  0.00  0.00    +0.000 HD
ENDROOT
BRANCH   1  13
ATOM     13  C   UNL     1       3.007   6.852  18.786  0.00  0.00    +0.000 C 
BRANCH  13  14
ATOM     14  N   UNL     1       2.123   6.067  19.702  0.00  0.00    +0.000 N 
BRANCH  14  15
ATOM     15  C   UNL     1       1.874   4.699  19.455  0.00  0.00    +0.000 A 
ATOM     16  C   UNL     1       1.384   4.295  18.194  0.00  0.00    +0.000 A 
ATOM     17  C   UNL     1       1.040   2.966  17.914  0.00  0.00    +0.000 A 
ATOM     18  C   UNL     1       1.173   1.989  18.889  0.00  0.00    +0.000 A 
ATOM     19  C   UNL     1       1.649   2.345  20.141  0.00  0.00    +0.000 A 
ATOM     20  C   UNL     1       1.996   3.678  20.448  0.00  0.00    +0.000 A 
ATOM     21  C   UNL     1       2.403   3.900  21.887  0.00  0.00    +0.000 C 
ENDBRANCH  14  15
BRANCH  14  23
ATOM     22  C   UNL     1       1.343   8.230  20.838  0.00  0.00    +0.000 C 
ATOM     23  C   UNL     1       1.374   6.715  20.790  0.00  0.00    +0.000 C 
ENDBRANCH  14  23
ENDBRANCH  13  14
ENDBRANCH   1  13
TORSDOF 4
ENDMDL
