MODEL 1
REMARK VINA RESULT:      -6.8      0.000      0.000
REMARK  Name = 
REMARK  16 active torsions:
REMARK  status: ('A' for Active; 'I' for Inactive)
REMARK    1  A    between atoms: C_1  and  C_2
REMARK    2  A    between atoms: C_2  and  C_3
REMARK    3  A    between atoms: C_3  and  C_4
REMARK    4  A    between atoms: C_4  and  C_5
REMARK    5  A    between atoms: C_5  and  C_6
REMARK    6  A    between atoms: C_6  and  C_7
REMARK    7  A    between atoms: C_7  and  C_8
REMARK    8  A    between atoms: C_8  and  C_9
REMARK    9  A    between atoms: C_9  and  C_10
REMARK   10  A    between atoms: C_10  and  N_11
REMARK   11  A    between atoms: C_12  and  C_13
REMARK   12  A    between atoms: C_13  and  C_14
REMARK   13  A    between atoms: C_14  and  C_15
REMARK   14  A    between atoms: C_15  and  C_16
REMARK   15  A    between atoms: C_16  and  C_17
REMARK   16  A    between atoms: C_17  and  C_18
REMARK                            x       y       z     vdW  Elec       q    Type
REMARK                         _______ _______ _______ _____ _____    ______ ____
ROOT
ATOM      1  N   UNL     1       5.614   5.280  17.310  0.00  0.00    +0.000 N 
ATOM      2  C   UNL     1       4.505   5.172  18.140  0.00  0.00    +0.000 A 
ATOM      3  C   UNL     1       5.016   4.804  19.368  0.00  0.00    +0.000 A 
ATOM      4  N   UNL     1       6.359   4.619  19.309  0.00  0.00    +0.000 NA
ATOM      5  C   UNL     1       6.695   4.812  18.052  0.00  0.00    +0.000 A 
ATOM      6  N   UNL     1       7.926   4.580  17.615  0.00  0.00    +0.000 N 
ATOM      7  H   UNL     1       8.654   4.495  18.315  0.00  0.00    +0.000 HD
ATOM      8  H   UNL     1       8.263   4.642  16.678  0.00  0.00    +0.000 HD
ENDROOT
BRANCH   1   9
ATOM      9  C   UNL     1       5.589   5.789  15.958  0.00  0.00    +0.000 C 
BRANCH   9  10
ATOM     10  C   UNL     1       5.377   4.738  14.858  0.00  0.00    +0.000 C 
BRANCH  10  11
ATOM     11  C   UNL     1       6.651   4.041  14.379  0.00  0.00    +0.000 C 
BRANCH  11  12
ATOM     12  C   UNL     1       7.352   4.780  13.240  0.00  0.00    +0.000 C 
BRANCH  12  13
ATOM     13  C   UNL     1       6.803   4.394  11.887  0.00  0.00    +0.000 C 
BRANCH  13  14
ATOM     14  C   UNL     1       6.800   2.881  11.745  0.00  0.00    +0.000 C 
BRANCH  14  15
ATOM     15  C   UNL     1       5.365   2.398  11.831  0.00  0.00    +0.000 C 
BRANCH  15  16
ATOM     16  C   UNL     1       4.394   3.525  11.538  0.00  0.00    +0.000 C 
BRANCH  16  18
ATOM     17  C   UNL     1       2.966   4.222   9.609  0.00  0.00    +0.000 C 
ATOM     18  C   UNL     1       3.377   3.069  10.501  0.00  0.00    +0.000 C 
ENDBRANCH  16  18
ENDBRANCH  15  16
ENDBRANCH  14  15
ENDBRANCH  13  14
ENDBRANCH  12  13
ENDBRANCH  11  12
ENDBRANCH  10  11
ENDBRANCH   9  10
ENDBRANCH   1   9
BRANCH   2  19
ATOM     19  C   UNL     1       3.085   5.383  17.744  0.00  0.00    +0.000 C 
BRANCH  19  20
ATOM     20  C   UNL     1       2.400   4.041  17.467  0.00  0.00    +0.000 C 
BRANCH  20  21
ATOM     21  C   UNL     1       1.226   3.814  18.417  0.00  0.00    +0.000 C 
BRANCH  21  22
ATOM     22  C   UNL     1       1.398   2.517  19.207  0.00  0.00    +0.000 C 
BRANCH  22  23
ATOM     23  C   UNL     1       1.305   2.763  20.711  0.00  0.00    +0.000 C 
ATOM     24  C   UNL     1       1.750   4.174  21.064  0.00  0.00    +0.000 C 
ENDBRANCH  22  23
ENDBRANCH  21  22
ENDBRANCH  20  21
ENDBRANCH  19  20
ENDBRANCH   2  19
TORSDOF 14
ENDMDL
MODEL 2
REMARK VINA RESULT:      -6.4      0.883      1.114
REMARK  Name = 
REMARK  16 active torsions:
REMARK  status: ('A' for Active; 'I' for Inactive)
REMARK    1  A    between atoms: C_1  and  C_2
REMARK    2  A    between atoms: C_2  and  C_3
REMARK    3  A    between atoms: C_3  and  C_4
REMARK    4  A    between atoms: C_4  and  C_5
REMARK    5  A    between atoms: C_5  and  C_6
REMARK    6  A    between atoms: C_6  and  C_7
REMARK    7  A    between atoms: C_7  and  C_8
REMARK    8  A    between atoms: C_8  and  C_9
REMARK    9  A    between atoms: C_9  and  C_10
REMARK   10  A    between atoms: C_10  and  N_11
REMARK   11  A    between atoms: C_12  and  C_13
REMARK   12  A    between atoms: C_13  and  C_14
REMARK   13  A    between atoms: C_14  and  C_15
REMARK   14  A    between atoms: C_15  and  C_16
REMARK   15  A    between atoms: C_16  and  C_17
REMARK   16  A    between atoms: C_17  and  C_18
REMARK                            x       y       z     vdW  Elec       q    Type
REMARK                         _______ _______ _______ _____ _____    ______ ____
ROOT
ATOM      1  N   UNL     1       5.351   5.795  17.854  0.00  0.00    +0.000 N 
ATOM      2  C   UNL     1       4.385   4.945  18.375  0.00  0.00    +0.000 A 
ATOM      3  C   UNL     1       4.919   4.486  19.561  0.00  0.00    +0.000 A 
ATOM      4  N   UNL     1       6.178   4.956  19.751  0.00  0.00    +0.000 NA
ATOM      5  C   UNL     1       6.464   5.662  18.678  0.00  0.00    +0.000 A 
ATOM      6  N   UNL     1       7.677   6.161  18.474  0.00  0.00    +0.000 N 
ATOM      7  H   UNL     1       8.298   6.200  19.274  0.00  0.00    +0.000 HD
ATOM      8  H   UNL     1       8.006   6.656  17.673  0.00  0.00    +0.000 HD
ENDROOT
BRANCH   1   9
ATOM      9  C   UNL     1       5.175   6.630  16.688  0.00  0.00    +0.000 C 
BRANCH   9  10
ATOM     10  C   UNL     1       5.445   5.949  15.338  0.00  0.00    +0.000 C 
BRANCH  10  11
ATOM     11  C   UNL     1       6.430   4.780  15.391  0.00  0.00    +0.000 C 
BRANCH  11  12
ATOM     12  C   UNL     1       6.431   3.933  14.119  0.00  0.00    +0.000 C 
BRANCH  12  13
ATOM     13  C   UNL     1       6.884   4.719  12.911  0.00  0.00    +0.000 C 
BRANCH  13  14
ATOM     14  C   UNL     1       6.917   3.815  11.691  0.00  0.00    +0.000 C 
BRANCH  14  15
ATOM     15  C   UNL     1       6.188   2.530  12.030  0.00  0.00    +0.000 C 
BRANCH  15  16
ATOM     16  C   UNL     1       5.021   2.304  11.089  0.00  0.00    +0.000 C 
BRANCH  16  18
ATOM     17  C   UNL     1       3.137   3.577  10.052  0.00  0.00    +0.000 C 
ATOM     18  C   UNL     1       3.975   3.390  11.300  0.00  0.00    +0.000 C 
ENDBRANCH  16  18
ENDBRANCH  15  16
ENDBRANCH  14  15
ENDBRANCH  13  14
ENDBRANCH  12  13
ENDBRANCH  11  12
ENDBRANCH  10  11
ENDBRANCH   9  10
ENDBRANCH   1   9
BRANCH   2  19
ATOM     19  C   UNL     1       3.079   4.603  17.745  0.00  0.00    +0.000 C 
BRANCH  19  20
ATOM     20  C   UNL     1       2.971   3.090  17.524  0.00  0.00    +0.000 C 
BRANCH  20  21
ATOM     21  C   UNL     1       2.229   2.416  18.676  0.00  0.00    +0.000 C 
BRANCH  21  22
ATOM     22  C   UNL     1       1.124   3.318  19.223  0.00  0.00    +0.000 C 
BRANCH  22  23
ATOM     23  C   UNL     1       0.987   3.175  20.738  0.00  0.00    +0.000 C 
ATOM     24  C   UNL     1       2.335   2.910  21.388  0.00  0.00    +0.000 C 
ENDBRANCH  22  23
ENDBRANCH  21  22
ENDBRANCH  20  21
ENDBRANCH  19  20
ENDBRANCH   2  19
TORSDOF 14
ENDMDL
MODEL 3
REMARK VINA RESULT:      -6.3      0.924      1.356
REMARK  Name = 
REMARK  16 active torsions:
REMARK  status: ('A' for Active; 'I' for Inactive)
REMARK    1  A    between atoms: C_1  and  C_2
REMARK    2  A    between atoms: C_2  and  C_3
REMARK    3  A    between atoms: C_3  and  C_4
REMARK    4  A    between atoms: C_4  and  C_5
REMARK    5  A    between atoms: C_5  and  C_6
REMARK    6  A    between atoms: C_6  and  C_7
REMARK    7  A    between atoms: C_7  and  C_8
REMARK    8  A    between atoms: C_8  and  C_9
REMARK    9  A    between atoms: C_9  and  C_10
REMARK   10  A    between atoms: C_10  and  N_11
REMARK   11  A    between atoms: C_12  and  C_13
REMARK   12  A    between atoms: C_13  and  C_14
REMARK   13  A    between atoms: C_14  and  C_15
REMARK   14  A    between atoms: C_15  and  C_16
REMARK   15  A    between atoms: C_16  and  C_17
REMARK   16  A    between atoms: C_17  and  C_18
REMARK                            x       y       z     vdW  Elec       q    Type
REMARK                         _______ _______ _______ _____ _____    ______ ____
ROOT
ATOM      1  N   UNL     1       5.685   5.795  18.102  0.00  0.00    +0.000 N 
ATOM      2  C   UNL     1       4.422   5.641  18.658  0.00  0.00    +0.000 A 
ATOM      3  C   UNL     1       4.528   4.537  19.479  0.00  0.00    +0.000 A 
ATOM      4  N   UNL     1       5.761   3.978  19.397  0.00  0.00    +0.000 NA
ATOM      5  C   UNL     1       6.417   4.680  18.498  0.00  0.00    +0.000 A 
ATOM      6  N   UNL     1       7.622   4.321  18.074  0.00  0.00    +0.000 N 
ATOM      7  H   UNL     1       8.124   3.643  18.637  0.00  0.00    +0.000 HD
ATOM      8  H   UNL     1       8.172   4.751  17.362  0.00  0.00    +0.000 HD
ENDROOT
BRANCH   1   9
ATOM      9  C   UNL     1       6.099   6.914  17.287  0.00  0.00    +0.000 C 
BRANCH   9  10
ATOM     10  C   UNL     1       6.238   6.625  15.785  0.00  0.00    +0.000 C 
BRANCH  10  11
ATOM     11  C   UNL     1       5.180   5.681  15.210  0.00  0.00    +0.000 C 
BRANCH  11  12
ATOM     12  C   UNL     1       5.767   4.385  14.651  0.00  0.00    +0.000 C 
BRANCH  12  13
ATOM     13  C   UNL     1       6.760   4.641  13.542  0.00  0.00    +0.000 C 
BRANCH  13  14
ATOM     14  C   UNL     1       6.533   3.655  12.409  0.00  0.00    +0.000 C 
BRANCH  14  15
ATOM     15  C   UNL     1       5.058   3.308  12.368  0.00  0.00    +0.000 C 
BRANCH  15  16
ATOM     16  C   UNL     1       4.663   2.772  11.006  0.00  0.00    +0.000 C 
BRANCH  16  18
ATOM     17  C   UNL     1       3.075   4.177   9.683  0.00  0.00    +0.000 C 
ATOM     18  C   UNL     1       3.200   3.093  10.733  0.00  0.00    +0.000 C 
ENDBRANCH  16  18
ENDBRANCH  15  16
ENDBRANCH  14  15
ENDBRANCH  13  14
ENDBRANCH  12  13
ENDBRANCH  11  12
ENDBRANCH  10  11
ENDBRANCH   9  10
ENDBRANCH   1   9
BRANCH   2  19
ATOM     19  C   UNL     1       3.227   6.487  18.379  0.00  0.00    +0.000 C 
BRANCH  19  20
ATOM     20  C   UNL     1       1.940   5.707  18.666  0.00  0.00    +0.000 C 
BRANCH  20  21
ATOM     21  C   UNL     1       1.783   4.528  17.708  0.00  0.00    +0.000 C 
BRANCH  21  22
ATOM     22  C   UNL     1       1.320   3.274  18.448  0.00  0.00    +0.000 C 
BRANCH  22  23
ATOM     23  C   UNL     1       0.872   3.600  19.871  0.00  0.00    +0.000 C 
ATOM     24  C   UNL     1       1.529   2.670  20.879  0.00  0.00    +0.000 C 
ENDBRANCH  22  23
ENDBRANCH  21  22
ENDBRANCH  20  21
ENDBRANCH  19  20
ENDBRANCH   2  19
TORSDOF 14
ENDMDL
MODEL 4
REMARK VINA RESULT:      -6.3      1.627      6.746
REMARK  Name = 
REMARK  16 active torsions:
REMARK  status: ('A' for Active; 'I' for Inactive)
REMARK    1  A    between atoms: C_1  and  C_2
REMARK    2  A    between atoms: C_2  and  C_3
REMARK    3  A    between atoms: C_3  and  C_4
REMARK    4  A    between atoms: C_4  and  C_5
REMARK    5  A    between atoms: C_5  and  C_6
REMARK    6  A    between atoms: C_6  and  C_7
REMARK    7  A    between atoms: C_7  and  C_8
REMARK    8  A    between atoms: C_8  and  C_9
REMARK    9  A    between atoms: C_9  and  C_10
REMARK   10  A    between atoms: C_10  and  N_11
REMARK   11  A    between atoms: C_12  and  C_13
REMARK   12  A    between atoms: C_13  and  C_14
REMARK   13  A    between atoms: C_14  and  C_15
REMARK   14  A    between atoms: C_15  and  C_16
REMARK   15  A    between atoms: C_16  and  C_17
REMARK   16  A    between atoms: C_17  and  C_18
REMARK                            x       y       z     vdW  Elec       q    Type
REMARK                         _______ _______ _______ _____ _____    ______ ____
ROOT
ATOM      1  N   UNL     1       6.090   6.304  16.937  0.00  0.00    +0.000 N 
ATOM      2  C   UNL     1       6.375   4.954  16.774  0.00  0.00    +0.000 A 
ATOM      3  C   UNL     1       7.521   4.742  17.513  0.00  0.00    +0.000 A 
ATOM      4  N   UNL     1       7.980   5.897  18.056  0.00  0.00    +0.000 NA
ATOM      5  C   UNL     1       7.171   6.843  17.627  0.00  0.00    +0.000 A 
ATOM      6  N   UNL     1       7.410   8.127  17.865  0.00  0.00    +0.000 N 
ATOM      7  H   UNL     1       8.084   8.342  18.591  0.00  0.00    +0.000 HD
ATOM      8  H   UNL     1       6.893   8.914  17.539  0.00  0.00    +0.000 HD
ENDROOT
BRANCH   1   9
ATOM      9  C   UNL     1       4.891   6.958  16.467  0.00  0.00    +0.000 C 
BRANCH   9  10
ATOM     10  C   UNL     1       3.798   7.179  17.524  0.00  0.00    +0.000 C 
BRANCH  10  11
ATOM     11  C   UNL     1       3.237   5.900  18.148  0.00  0.00    +0.000 C 
BRANCH  11  12
ATOM     12  C   UNL     1       3.298   5.895  19.675  0.00  0.00    +0.000 C 
BRANCH  12  13
ATOM     13  C   UNL     1       2.006   5.417  20.295  0.00  0.00    +0.000 C 
BRANCH  13  14
ATOM     14  C   UNL     1       1.253   4.543  19.306  0.00  0.00    +0.000 C 
BRANCH  14  15
ATOM     15  C   UNL     1       1.071   3.172  19.927  0.00  0.00    +0.000 C 
BRANCH  15  16
ATOM     16  C   UNL     1       1.139   2.085  18.871  0.00  0.00    +0.000 C 
BRANCH  16  18
ATOM     17  C   UNL     1       3.523   1.615  18.288  0.00  0.00    +0.000 C 
ATOM     18  C   UNL     1       2.275   2.382  17.903  0.00  0.00    +0.000 C 
ENDBRANCH  16  18
ENDBRANCH  15  16
ENDBRANCH  14  15
ENDBRANCH  13  14
ENDBRANCH  12  13
ENDBRANCH  11  12
ENDBRANCH  10  11
ENDBRANCH   9  10
ENDBRANCH   1   9
BRANCH   2  19
ATOM     19  C   UNL     1       5.605   3.985  15.945  0.00  0.00    +0.000 C 
BRANCH  19  20
ATOM     20  C   UNL     1       6.307   3.751  14.603  0.00  0.00    +0.000 C 
BRANCH  20  21
ATOM     21  C   UNL     1       5.330   3.886  13.438  0.00  0.00    +0.000 C 
BRANCH  21  22
ATOM     22  C   UNL     1       5.995   3.513  12.114  0.00  0.00    +0.000 C 
BRANCH  22  23
ATOM     23  C   UNL     1       5.431   2.209  11.554  0.00  0.00    +0.000 C 
ATOM     24  C   UNL     1       6.546   1.254  11.160  0.00  0.00    +0.000 C 
ENDBRANCH  22  23
ENDBRANCH  21  22
ENDBRANCH  20  21
ENDBRANCH  19  20
ENDBRANCH   2  19
TORSDOF 14
ENDMDL
MODEL 5
REMARK VINA RESULT:      -6.2      1.554      2.315
REMARK  Name = 
REMARK  16 active torsions:
REMARK  status: ('A' for Active; 'I' for Inactive)
REMARK    1  A    between atoms: C_1  and  C_2
REMARK    2  A    between atoms: C_2  and  C_3
REMARK    3  A    between atoms: C_3  and  C_4
REMARK    4  A    between atoms: C_4  and  C_5
REMARK    5  A    between atoms: C_5  and  C_6
REMARK    6  A    between atoms: C_6  and  C_7
REMARK    7  A    between atoms: C_7  and  C_8
REMARK    8  A    between atoms: C_8  and  C_9
REMARK    9  A    between atoms: C_9  and  C_10
REMARK   10  A    between atoms: C_10  and  N_11
REMARK   11  A    between atoms: C_12  and  C_13
REMARK   12  A    between atoms: C_13  and  C_14
REMARK   13  A    between atoms: C_14  and  C_15
REMARK   14  A    between atoms: C_15  and  C_16
REMARK   15  A    between atoms: C_16  and  C_17
REMARK   16  A    between atoms: C_17  and  C_18
REMARK                            x       y       z     vdW  Elec       q    Type
REMARK                         _______ _______ _______ _____ _____    ______ ____
ROOT
ATOM      1  N   UNL     1       4.517   4.737  18.291  0.00  0.00    +0.000 N 
ATOM      2  C   UNL     1       3.725   3.608  18.125  0.00  0.00    +0.000 A 
ATOM      3  C   UNL     1       4.220   2.692  19.029  0.00  0.00    +0.000 A 
ATOM      4  N   UNL     1       5.306   3.178  19.682  0.00  0.00    +0.000 NA
ATOM      5  C   UNL     1       5.534   4.367  19.165  0.00  0.00    +0.000 A 
ATOM      6  N   UNL     1       6.611   5.073  19.486  0.00  0.00    +0.000 N 
ATOM      7  H   UNL     1       7.115   4.789  20.318  0.00  0.00    +0.000 HD
ATOM      8  H   UNL     1       6.900   5.950  19.110  0.00  0.00    +0.000 HD
ENDROOT
BRANCH   1   9
ATOM      9  C   UNL     1       4.278   6.015  17.659  0.00  0.00    +0.000 C 
BRANCH   9  10
ATOM     10  C   UNL     1       4.894   6.189  16.263  0.00  0.00    +0.000 C 
BRANCH  10  11
ATOM     11  C   UNL     1       6.419   6.090  16.215  0.00  0.00    +0.000 C 
BRANCH  11  12
ATOM     12  C   UNL     1       6.921   4.804  15.559  0.00  0.00    +0.000 C 
BRANCH  12  13
ATOM     13  C   UNL     1       6.667   4.789  14.070  0.00  0.00    +0.000 C 
BRANCH  13  14
ATOM     14  C   UNL     1       5.775   3.612  13.711  0.00  0.00    +0.000 C 
BRANCH  14  15
ATOM     15  C   UNL     1       5.844   3.402  12.212  0.00  0.00    +0.000 C 
BRANCH  15  16
ATOM     16  C   UNL     1       7.232   2.961  11.788  0.00  0.00    +0.000 C 
BRANCH  16  18
ATOM     17  C   UNL     1       6.114   0.783  11.290  0.00  0.00    +0.000 C 
ATOM     18  C   UNL     1       7.123   1.803  10.806  0.00  0.00    +0.000 C 
ENDBRANCH  16  18
ENDBRANCH  15  16
ENDBRANCH  14  15
ENDBRANCH  13  14
ENDBRANCH  12  13
ENDBRANCH  11  12
ENDBRANCH  10  11
ENDBRANCH   9  10
ENDBRANCH   1   9
BRANCH   2  19
ATOM     19  C   UNL     1       2.612   3.448  17.147  0.00  0.00    +0.000 C 
BRANCH  19  20
ATOM     20  C   UNL     1       1.273   3.819  17.795  0.00  0.00    +0.000 C 
BRANCH  20  21
ATOM     21  C   UNL     1       0.748   2.680  18.666  0.00  0.00    +0.000 C 
BRANCH  21  22
ATOM     22  C   UNL     1       0.832   3.036  20.149  0.00  0.00    +0.000 C 
BRANCH  22  23
ATOM     23  C   UNL     1       0.989   4.541  20.353  0.00  0.00    +0.000 C 
ATOM     24  C   UNL     1       2.228   4.857  21.176  0.00  0.00    +0.000 C 
ENDBRANCH  22  23
ENDBRANCH  21  22
ENDBRANCH  20  21
ENDBRANCH  19  20
ENDBRANCH   2  19
TORSDOF 14
ENDMDL
MODEL 6
REMARK VINA RESULT:      -6.2      4.460      7.283
REMARK  Name = 
REMARK  16 active torsions:
REMARK  status: ('A' for Active; 'I' for Inactive)
REMARK    1  A    between atoms: C_1  and  C_2
REMARK    2  A    between atoms: C_2  and  C_3
REMARK    3  A    between atoms: C_3  and  C_4
REMARK    4  A    between atoms: C_4  and  C_5
REMARK    5  A    between atoms: C_5  and  C_6
REMARK    6  A    between atoms: C_6  and  C_7
REMARK    7  A    between atoms: C_7  and  C_8
REMARK    8  A    between atoms: C_8  and  C_9
REMARK    9  A    between atoms: C_9  and  C_10
REMARK   10  A    between atoms: C_10  and  N_11
REMARK   11  A    between atoms: C_12  and  C_13
REMARK   12  A    between atoms: C_13  and  C_14
REMARK   13  A    between atoms: C_14  and  C_15
REMARK   14  A    between atoms: C_15  and  C_16
REMARK   15  A    between atoms: C_16  and  C_17
REMARK   16  A    between atoms: C_17  and  C_18
REMARK                            x       y       z     vdW  Elec       q    Type
REMARK                         _______ _______ _______ _____ _____    ______ ____
ROOT
ATOM      1  N   UNL     1       6.600   4.894  17.031  0.00  0.00    +0.000 N 
ATOM      2  C   UNL     1       5.311   4.537  17.408  0.00  0.00    +0.000 A 
ATOM      3  C   UNL     1       4.686   4.174  16.232  0.00  0.00    +0.000 A 
ATOM      4  N   UNL     1       5.501   4.356  15.163  0.00  0.00    +0.000 NA
ATOM      5  C   UNL     1       6.611   4.877  15.640  0.00  0.00    +0.000 A 
ATOM      6  N   UNL     1       7.581   5.305  14.842  0.00  0.00    +0.000 N 
ATOM      7  H   UNL     1       7.555   4.992  13.878  0.00  0.00    +0.000 HD
ATOM      8  H   UNL     1       8.429   5.762  15.102  0.00  0.00    +0.000 HD
ENDROOT
BRANCH   1   9
ATOM      9  C   UNL     1       7.673   5.203  17.948  0.00  0.00    +0.000 C 
BRANCH   9  10
ATOM     10  C   UNL     1       7.710   6.651  18.460  0.00  0.00    +0.000 C 
BRANCH  10  11
ATOM     11  C   UNL     1       7.457   7.718  17.395  0.00  0.00    +0.000 C 
BRANCH  11  12
ATOM     12  C   UNL     1       8.050   9.081  17.752  0.00  0.00    +0.000 C 
BRANCH  12  13
ATOM     13  C   UNL     1       8.891   9.025  19.005  0.00  0.00    +0.000 C 
BRANCH  13  14
ATOM     14  C   UNL     1       9.381  10.419  19.359  0.00  0.00    +0.000 C 
BRANCH  14  15
ATOM     15  C   UNL     1       9.658  11.167  18.071  0.00  0.00    +0.000 C 
BRANCH  15  16
ATOM     16  C   UNL     1      10.443  12.437  18.339  0.00  0.00    +0.000 C 
BRANCH  16  18
ATOM     17  C   UNL     1      11.179  14.026  20.122  0.00  0.00    +0.000 C 
ATOM     18  C   UNL     1      10.398  12.763  19.825  0.00  0.00    +0.000 C 
ENDBRANCH  16  18
ENDBRANCH  15  16
ENDBRANCH  14  15
ENDBRANCH  13  14
ENDBRANCH  12  13
ENDBRANCH  11  12
ENDBRANCH  10  11
ENDBRANCH   9  10
ENDBRANCH   1   9
BRANCH   2  19
ATOM     19  C   UNL     1       4.752   4.581  18.788  0.00  0.00    +0.000 C 
BRANCH  19  20
ATOM     20  C   UNL     1       3.789   5.763  18.938  0.00  0.00    +0.000 C 
BRANCH  20  21
ATOM     21  C   UNL     1       2.336   5.292  18.959  0.00  0.00    +0.000 C 
BRANCH  21  22
ATOM     22  C   UNL     1       1.903   4.900  20.371  0.00  0.00    +0.000 C 
BRANCH  22  23
ATOM     23  C   UNL     1       0.855   3.790  20.344  0.00  0.00    +0.000 C 
ATOM     24  C   UNL     1       1.095   2.837  19.185  0.00  0.00    +0.000 C 
ENDBRANCH  22  23
ENDBRANCH  21  22
ENDBRANCH  20  21
ENDBRANCH  19  20
ENDBRANCH   2  19
TORSDOF 14
ENDMDL
MODEL 7
REMARK VINA RESULT:      -6.2      1.242      6.807
REMARK  Name = 
REMARK  16 active torsions:
REMARK  status: ('A' for Active; 'I' for Inactive)
REMARK    1  A    between atoms: C_1  and  C_2
REMARK    2  A    between atoms: C_2  and  C_3
REMARK    3  A    between atoms: C_3  and  C_4
REMARK    4  A    between atoms: C_4  and  C_5
REMARK    5  A    between atoms: C_5  and  C_6
REMARK    6  A    between atoms: C_6  and  C_7
REMARK    7  A    between atoms: C_7  and  C_8
REMARK    8  A    between atoms: C_8  and  C_9
REMARK    9  A    between atoms: C_9  and  C_10
REMARK   10  A    between atoms: C_10  and  N_11
REMARK   11  A    between atoms: C_12  and  C_13
REMARK   12  A    between atoms: C_13  and  C_14
REMARK   13  A    between atoms: C_14  and  C_15
REMARK   14  A    between atoms: C_15  and  C_16
REMARK   15  A    between atoms: C_16  and  C_17
REMARK   16  A    between atoms: C_17  and  C_18
REMARK                            x       y       z     vdW  Elec       q    Type
REMARK                         _______ _______ _______ _____ _____    ______ ____
ROOT
ATOM      1  N   UNL     1       6.460   6.033  17.219  0.00  0.00    +0.000 N 
ATOM      2  C   UNL     1       6.475   5.069  16.218  0.00  0.00    +0.000 A 
ATOM      3  C   UNL     1       7.383   4.125  16.649  0.00  0.00    +0.000 A 
ATOM      4  N   UNL     1       7.967   4.497  17.816  0.00  0.00    +0.000 NA
ATOM      5  C   UNL     1       7.478   5.685  18.101  0.00  0.00    +0.000 A 
ATOM      6  N   UNL     1       7.937   6.403  19.118  0.00  0.00    +0.000 N 
ATOM      7  H   UNL     1       8.489   5.914  19.813  0.00  0.00    +0.000 HD
ATOM      8  H   UNL     1       7.675   7.329  19.379  0.00  0.00    +0.000 HD
ENDROOT
BRANCH   1   9
ATOM      9  C   UNL     1       5.543   7.148  17.279  0.00  0.00    +0.000 C 
BRANCH   9  10
ATOM     10  C   UNL     1       4.260   6.907  18.088  0.00  0.00    +0.000 C 
BRANCH  10  11
ATOM     11  C   UNL     1       3.651   5.512  17.931  0.00  0.00    +0.000 C 
BRANCH  11  12
ATOM     12  C   UNL     1       2.124   5.523  17.874  0.00  0.00    +0.000 C 
BRANCH  12  13
ATOM     13  C   UNL     1       1.546   4.127  17.857  0.00  0.00    +0.000 C 
BRANCH  13  14
ATOM     14  C   UNL     1       2.668   3.105  17.794  0.00  0.00    +0.000 C 
BRANCH  14  15
ATOM     15  C   UNL     1       2.523   2.166  18.975  0.00  0.00    +0.000 C 
BRANCH  15  16
ATOM     16  C   UNL     1       3.522   2.506  20.065  0.00  0.00    +0.000 C 
BRANCH  16  18
ATOM     17  C   UNL     1       1.291   2.787  21.154  0.00  0.00    +0.000 C 
ATOM     18  C   UNL     1       2.783   3.000  21.301  0.00  0.00    +0.000 C 
ENDBRANCH  16  18
ENDBRANCH  15  16
ENDBRANCH  14  15
ENDBRANCH  13  14
ENDBRANCH  12  13
ENDBRANCH  11  12
ENDBRANCH  10  11
ENDBRANCH   9  10
ENDBRANCH   1   9
BRANCH   2  19
ATOM     19  C   UNL     1       5.688   5.101  14.953  0.00  0.00    +0.000 C 
BRANCH  19  20
ATOM     20  C   UNL     1       6.004   3.871  14.096  0.00  0.00    +0.000 C 
BRANCH  20  21
ATOM     21  C   UNL     1       6.963   4.221  12.960  0.00  0.00    +0.000 C 
BRANCH  21  22
ATOM     22  C   UNL     1       6.505   3.601  11.641  0.00  0.00    +0.000 C 
BRANCH  22  23
ATOM     23  C   UNL     1       5.290   2.697  11.841  0.00  0.00    +0.000 C 
ATOM     24  C   UNL     1       4.074   3.244  11.112  0.00  0.00    +0.000 C 
ENDBRANCH  22  23
ENDBRANCH  21  22
ENDBRANCH  20  21
ENDBRANCH  19  20
ENDBRANCH   2  19
TORSDOF 14
ENDMDL
MODEL 8
REMARK VINA RESULT:      -6.2      3.630      7.855
REMARK  Name = 
REMARK  16 active torsions:
REMARK  status: ('A' for Active; 'I' for Inactive)
REMARK    1  A    between atoms: C_1  and  C_2
REMARK    2  A    between atoms: C_2  and  C_3
REMARK    3  A    between atoms: C_3  and  C_4
REMARK    4  A    between atoms: C_4  and  C_5
REMARK    5  A    between atoms: C_5  and  C_6
REMARK    6  A    between atoms: C_6  and  C_7
REMARK    7  A    between atoms: C_7  and  C_8
REMARK    8  A    between atoms: C_8  and  C_9
REMARK    9  A    between atoms: C_9  and  C_10
REMARK   10  A    between atoms: C_10  and  N_11
REMARK   11  A    between atoms: C_12  and  C_13
REMARK   12  A    between atoms: C_13  and  C_14
REMARK   13  A    between atoms: C_14  and  C_15
REMARK   14  A    between atoms: C_15  and  C_16
REMARK   15  A    between atoms: C_16  and  C_17
REMARK   16  A    between atoms: C_17  and  C_18
REMARK                            x       y       z     vdW  Elec       q    Type
REMARK                         _______ _______ _______ _____ _____    ______ ____
ROOT
ATOM      1  N   UNL     1       2.639   3.936  19.233  0.00  0.00    +0.000 N 
ATOM      2  C   UNL     1       3.208   3.231  18.180  0.00  0.00    +0.000 A 
ATOM      3  C   UNL     1       2.248   2.312  17.809  0.00  0.00    +0.000 A 
ATOM      4  N   UNL     1       1.163   2.377  18.621  0.00  0.00    +0.000 NA
ATOM      5  C   UNL     1       1.445   3.286  19.529  0.00  0.00    +0.000 A 
ATOM      6  N   UNL     1       0.647   3.510  20.565  0.00  0.00    +0.000 N 
ATOM      7  H   UNL     1      -0.298   3.147  20.504  0.00  0.00    +0.000 HD
ATOM      8  H   UNL     1       0.799   4.132  21.330  0.00  0.00    +0.000 HD
ENDROOT
BRANCH   1   9
ATOM      9  C   UNL     1       3.218   5.107  19.852  0.00  0.00    +0.000 C 
BRANCH   9  10
ATOM     10  C   UNL     1       2.443   6.417  19.647  0.00  0.00    +0.000 C 
BRANCH  10  11
ATOM     11  C   UNL     1       2.394   6.917  18.202  0.00  0.00    +0.000 C 
BRANCH  11  12
ATOM     12  C   UNL     1       2.596   8.427  18.078  0.00  0.00    +0.000 C 
BRANCH  12  13
ATOM     13  C   UNL     1       1.291   9.160  17.870  0.00  0.00    +0.000 C 
BRANCH  13  14
ATOM     14  C   UNL     1       1.392  10.563  18.445  0.00  0.00    +0.000 C 
BRANCH  14  15
ATOM     15  C   UNL     1       1.042  10.499  19.919  0.00  0.00    +0.000 C 
BRANCH  15  16
ATOM     16  C   UNL     1      -0.204   9.666  20.145  0.00  0.00    +0.000 C 
BRANCH  16  18
ATOM     17  C   UNL     1       1.281   8.923  22.012  0.00  0.00    +0.000 C 
ATOM     18  C   UNL     1      -0.149   9.027  21.526  0.00  0.00    +0.000 C 
ENDBRANCH  16  18
ENDBRANCH  15  16
ENDBRANCH  14  15
ENDBRANCH  13  14
ENDBRANCH  12  13
ENDBRANCH  11  12
ENDBRANCH  10  11
ENDBRANCH   9  10
ENDBRANCH   1   9
BRANCH   2  19
ATOM     19  C   UNL     1       4.574   3.432  17.621  0.00  0.00    +0.000 C 
BRANCH  19  20
ATOM     20  C   UNL     1       4.517   4.317  16.372  0.00  0.00    +0.000 C 
BRANCH  20  21
ATOM     21  C   UNL     1       5.819   5.093  16.185  0.00  0.00    +0.000 C 
BRANCH  21  22
ATOM     22  C   UNL     1       5.606   6.590  16.409  0.00  0.00    +0.000 C 
BRANCH  22  23
ATOM     23  C   UNL     1       6.606   7.150  17.418  0.00  0.00    +0.000 C 
ATOM     24  C   UNL     1       7.453   6.042  18.024  0.00  0.00    +0.000 C 
ENDBRANCH  22  23
ENDBRANCH  21  22
ENDBRANCH  20  21
ENDBRANCH  19  20
ENDBRANCH   2  19
TORSDOF 14
ENDMDL
MODEL 9
REMARK VINA RESULT:      -6.1      1.434      7.147
REMARK  Name = 
REMARK  16 active torsions:
REMARK  status: ('A' for Active; 'I' for Inactive)
REMARK    1  A    between atoms: C_1  and  C_2
REMARK    2  A    between atoms: C_2  and  C_3
REMARK    3  A    between atoms: C_3  and  C_4
REMARK    4  A    between atoms: C_4  and  C_5
REMARK    5  A    between atoms: C_5  and  C_6
REMARK    6  A    between atoms: C_6  and  C_7
REMARK    7  A    between atoms: C_7  and  C_8
REMARK    8  A    between atoms: C_8  and  C_9
REMARK    9  A    between atoms: C_9  and  C_10
REMARK   10  A    between atoms: C_10  and  N_11
REMARK   11  A    between atoms: C_12  and  C_13
REMARK   12  A    between atoms: C_13  and  C_14
REMARK   13  A    between atoms: C_14  and  C_15
REMARK   14  A    between atoms: C_15  and  C_16
REMARK   15  A    between atoms: C_16  and  C_17
REMARK   16  A    between atoms: C_17  and  C_18
REMARK                            x       y       z     vdW  Elec       q    Type
REMARK                         _______ _______ _______ _____ _____    ______ ____
ROOT
ATOM      1  N   UNL     1       5.191   4.215  17.382  0.00  0.00    +0.000 N 
ATOM      2  C   UNL     1       6.050   4.594  16.358  0.00  0.00    +0.000 A 
ATOM      3  C   UNL     1       7.290   4.694  16.955  0.00  0.00    +0.000 A 
ATOM      4  N   UNL     1       7.216   4.465  18.290  0.00  0.00    +0.000 NA
ATOM      5  C   UNL     1       5.941   4.273  18.552  0.00  0.00    +0.000 A 
ATOM      6  N   UNL     1       5.495   4.149  19.796  0.00  0.00    +0.000 N 
ATOM      7  H   UNL     1       6.184   3.955  20.514  0.00  0.00    +0.000 HD
ATOM      8  H   UNL     1       4.550   4.058  20.099  0.00  0.00    +0.000 HD
ENDROOT
BRANCH   1   9
ATOM      9  C   UNL     1       3.807   3.841  17.204  0.00  0.00    +0.000 C 
BRANCH   9  10
ATOM     10  C   UNL     1       3.493   2.350  17.399  0.00  0.00    +0.000 C 
BRANCH  10  11
ATOM     11  C   UNL     1       2.802   2.005  18.719  0.00  0.00    +0.000 C 
BRANCH  11  12
ATOM     12  C   UNL     1       1.450   2.697  18.893  0.00  0.00    +0.000 C 
BRANCH  12  13
ATOM     13  C   UNL     1       1.139   2.982  20.344  0.00  0.00    +0.000 C 
BRANCH  13  14
ATOM     14  C   UNL     1       1.823   4.268  20.775  0.00  0.00    +0.000 C 
BRANCH  14  15
ATOM     15  C   UNL     1       1.614   5.305  19.688  0.00  0.00    +0.000 C 
BRANCH  15  16
ATOM     16  C   UNL     1       2.698   6.364  19.733  0.00  0.00    +0.000 C 
BRANCH  16  18
ATOM     17  C   UNL     1       2.155   8.115  18.034  0.00  0.00    +0.000 C 
ATOM     18  C   UNL     1       2.082   7.737  19.499  0.00  0.00    +0.000 C 
ENDBRANCH  16  18
ENDBRANCH  15  16
ENDBRANCH  14  15
ENDBRANCH  13  14
ENDBRANCH  12  13
ENDBRANCH  11  12
ENDBRANCH  10  11
ENDBRANCH   9  10
ENDBRANCH   1   9
BRANCH   2  19
ATOM     19  C   UNL     1       5.671   4.857  14.941  0.00  0.00    +0.000 C 
BRANCH  19  20
ATOM     20  C   UNL     1       6.051   3.666  14.055  0.00  0.00    +0.000 C 
BRANCH  20  21
ATOM     21  C   UNL     1       6.500   4.129  12.671  0.00  0.00    +0.000 C 
BRANCH  21  22
ATOM     22  C   UNL     1       6.667   2.944  11.721  0.00  0.00    +0.000 C 
BRANCH  22  23
ATOM     23  C   UNL     1       5.345   2.211  11.506  0.00  0.00    +0.000 C 
ATOM     24  C   UNL     1       4.226   3.185  11.173  0.00  0.00    +0.000 C 
ENDBRANCH  22  23
ENDBRANCH  21  22
ENDBRANCH  20  21
ENDBRANCH  19  20
ENDBRANCH   2  19
TORSDOF 14
ENDMDL
