MODEL 1
REMARK VINA RESULT:      -7.4      0.000      0.000
REMARK  Name = 
REMARK  4 active torsions:
REMARK  status: ('A' for Active; 'I' for Inactive)
REMARK    1  A    between atoms: C_1  and  C_2
REMARK    2  A    between atoms: N_10  and  C_11
REMARK    3  A    between atoms: C_11  and  C_12
REMARK    4  A    between atoms: N_14  and  C_15
REMARK                            x       y       z     vdW  Elec       q    Type
REMARK                         _______ _______ _______ _____ _____    ______ ____
ROOT
ATOM      1  C   UNL     1       6.552   5.089  17.537  0.00  0.00    +0.000 C 
ENDROOT
BRANCH   1  11
ATOM      2  C   UNL     1       4.527   3.271  16.023  0.00  0.00    +0.000 C 
ATOM      3  C   UNL     1       5.644   4.030  15.400  0.00  0.00    +0.000 A 
ATOM      4  C   UNL     1       6.050   4.101  14.078  0.00  0.00    +0.000 A 
ATOM      5 CL   UNL     1       5.326   3.321  12.755  0.00  0.00    +0.000 Cl
ATOM      6  C   UNL     1       7.187   4.936  14.088  0.00  0.00    +0.000 A 
ATOM      7  N   UNL     1       8.046   5.360  12.998  0.00  0.00    +0.000 N 
ATOM      8  O   UNL     1       7.790   4.921  11.867  0.00  0.00    +0.000 OA
ATOM      9  O   UNL     1       8.978   6.137  13.262  0.00  0.00    +0.000 OA
ATOM     10  N   UNL     1       7.484   5.368  15.329  0.00  0.00    +0.000 NA
ATOM     11  N   UNL     1       6.505   4.845  16.102  0.00  0.00    +0.000 N 
ENDBRANCH   1  11
BRANCH   1  12
ATOM     12  C   UNL     1       5.336   5.829  18.058  0.00  0.00    +0.000 C 
ATOM     13  O   UNL     1       5.093   6.986  17.722  0.00  0.00    +0.000 OA
ATOM     14  N   UNL     1       4.493   5.076  18.847  0.00  0.00    +0.000 N 
ATOM     15  H   UNL     1       4.917   4.255  19.283  0.00  0.00    +0.000 HD
BRANCH  14  16
ATOM     16  C   UNL     1       3.278   5.610  19.459  0.00  0.00    +0.000 C 
ATOM     17  C   UNL     1       2.177   5.780  18.406  0.00  0.00    +0.000 C 
ATOM     18  C   UNL     1       1.663   4.441  17.879  0.00  0.00    +0.000 C 
ATOM     19  C   UNL     1       1.208   3.522  19.009  0.00  0.00    +0.000 C 
ATOM     20  C   UNL     1       2.260   3.370  20.107  0.00  0.00    +0.000 C 
ATOM     21  C   UNL     1       2.782   4.718  20.604  0.00  0.00    +0.000 C 
ENDBRANCH  14  16
ENDBRANCH   1  12
TORSDOF 3
ENDMDL
MODEL 2
REMARK VINA RESULT:      -7.3      4.769      6.569
REMARK  Name = 
REMARK  4 active torsions:
REMARK  status: ('A' for Active; 'I' for Inactive)
REMARK    1  A    between atoms: C_1  and  C_2
REMARK    2  A    between atoms: N_10  and  C_11
REMARK    3  A    between atoms: C_11  and  C_12
REMARK    4  A    between atoms: N_14  and  C_15
REMARK                            x       y       z     vdW  Elec       q    Type
REMARK                         _______ _______ _______ _____ _____    ______ ____
ROOT
ATOM      1  C   UNL     1       8.161   7.278  18.465  0.00  0.00    +0.000 C 
ENDROOT
BRANCH   1  11
ATOM      2  C   UNL     1       5.756   5.514  19.358  0.00  0.00    +0.000 C 
ATOM      3  C   UNL     1       6.314   5.585  17.981  0.00  0.00    +0.000 A 
ATOM      4  C   UNL     1       5.941   4.914  16.828  0.00  0.00    +0.000 A 
ATOM      5 CL   UNL     1       4.669   3.800  16.674  0.00  0.00    +0.000 Cl
ATOM      6  C   UNL     1       6.851   5.346  15.842  0.00  0.00    +0.000 A 
ATOM      7  N   UNL     1       6.962   4.974  14.444  0.00  0.00    +0.000 N 
ATOM      8  O   UNL     1       6.167   4.127  14.015  0.00  0.00    +0.000 OA
ATOM      9  O   UNL     1       7.841   5.530  13.764  0.00  0.00    +0.000 OA
ATOM     10  N   UNL     1       7.741   6.232  16.331  0.00  0.00    +0.000 NA
ATOM     11  N   UNL     1       7.365   6.398  17.620  0.00  0.00    +0.000 N 
ENDBRANCH   1  11
BRANCH   1  12
ATOM     12  C   UNL     1       8.085   8.734  18.050  0.00  0.00    +0.000 C 
ATOM     13  O   UNL     1       7.240   9.134  17.252  0.00  0.00    +0.000 OA
ATOM     14  N   UNL     1       8.964   9.570  18.705  0.00  0.00    +0.000 N 
ATOM     15  H   UNL     1       9.782   9.114  19.113  0.00  0.00    +0.000 HD
BRANCH  14  16
ATOM     16  C   UNL     1       9.059  11.003  18.436  0.00  0.00    +0.000 C 
ATOM     17  C   UNL     1       8.918  11.804  19.735  0.00  0.00    +0.000 C 
ATOM     18  C   UNL     1      10.111  11.612  20.669  0.00  0.00    +0.000 C 
ATOM     19  C   UNL     1      11.434  11.920  19.972  0.00  0.00    +0.000 C 
ATOM     20  C   UNL     1      11.588  11.180  18.644  0.00  0.00    +0.000 C 
ATOM     21  C   UNL     1      10.374  11.361  17.733  0.00  0.00    +0.000 C 
ENDBRANCH  14  16
ENDBRANCH   1  12
TORSDOF 3
ENDMDL
MODEL 3
REMARK VINA RESULT:      -7.2      3.789      6.459
REMARK  Name = 
REMARK  4 active torsions:
REMARK  status: ('A' for Active; 'I' for Inactive)
REMARK    1  A    between atoms: C_1  and  C_2
REMARK    2  A    between atoms: N_10  and  C_11
REMARK    3  A    between atoms: C_11  and  C_12
REMARK    4  A    between atoms: N_14  and  C_15
REMARK                            x       y       z     vdW  Elec       q    Type
REMARK                         _______ _______ _______ _____ _____    ______ ____
ROOT
ATOM      1  C   UNL     1       3.076   3.917  18.394  0.00  0.00    +0.000 C 
ENDROOT
BRANCH   1  11
ATOM      2  C   UNL     1       2.023   4.539  21.257  0.00  0.00    +0.000 C 
ATOM      3  C   UNL     1       2.200   5.533  20.164  0.00  0.00    +0.000 A 
ATOM      4  C   UNL     1       1.940   6.893  20.139  0.00  0.00    +0.000 A 
ATOM      5 CL   UNL     1       1.347   7.831  21.424  0.00  0.00    +0.000 Cl
ATOM      6  C   UNL     1       2.257   7.303  18.828  0.00  0.00    +0.000 A 
ATOM      7  N   UNL     1       2.171   8.613  18.211  0.00  0.00    +0.000 N 
ATOM      8  O   UNL     1       1.730   9.541  18.903  0.00  0.00    +0.000 OA
ATOM      9  O   UNL     1       2.547   8.725  17.032  0.00  0.00    +0.000 OA
ATOM     10  N   UNL     1       2.690   6.276  18.070  0.00  0.00    +0.000 NA
ATOM     11  N   UNL     1       2.693   5.221  18.916  0.00  0.00    +0.000 N 
ENDBRANCH   1  11
BRANCH   1  12
ATOM     12  C   UNL     1       4.249   3.977  17.435  0.00  0.00    +0.000 C 
ATOM     13  O   UNL     1       4.154   3.582  16.275  0.00  0.00    +0.000 OA
ATOM     14  N   UNL     1       5.377   4.589  17.937  0.00  0.00    +0.000 N 
ATOM     15  H   UNL     1       5.446   4.616  18.956  0.00  0.00    +0.000 HD
BRANCH  14  16
ATOM     16  C   UNL     1       6.617   4.732  17.177  0.00  0.00    +0.000 C 
ATOM     17  C   UNL     1       6.624   6.055  16.404  0.00  0.00    +0.000 C 
ATOM     18  C   UNL     1       6.718   7.268  17.328  0.00  0.00    +0.000 C 
ATOM     19  C   UNL     1       7.915   7.174  18.271  0.00  0.00    +0.000 C 
ATOM     20  C   UNL     1       7.972   5.844  19.021  0.00  0.00    +0.000 C 
ATOM     21  C   UNL     1       7.851   4.642  18.084  0.00  0.00    +0.000 C 
ENDBRANCH  14  16
ENDBRANCH   1  12
TORSDOF 3
ENDMDL
MODEL 4
REMARK VINA RESULT:      -7.2      3.309      4.118
REMARK  Name = 
REMARK  4 active torsions:
REMARK  status: ('A' for Active; 'I' for Inactive)
REMARK    1  A    between atoms: C_1  and  C_2
REMARK    2  A    between atoms: N_10  and  C_11
REMARK    3  A    between atoms: C_11  and  C_12
REMARK    4  A    between atoms: N_14  and  C_15
REMARK                            x       y       z     vdW  Elec       q    Type
REMARK                         _______ _______ _______ _____ _____    ______ ____
ROOT
ATOM      1  C   UNL     1       4.697   3.341  17.019  0.00  0.00    +0.000 C 
ENDROOT
BRANCH   1  11
ATOM      2  C   UNL     1       5.369   5.730  15.139  0.00  0.00    +0.000 C 
ATOM      3  C   UNL     1       5.923   5.519  16.503  0.00  0.00    +0.000 A 
ATOM      4  C   UNL     1       6.832   6.272  17.227  0.00  0.00    +0.000 A 
ATOM      5 CL   UNL     1       7.567   7.719  16.730  0.00  0.00    +0.000 Cl
ATOM      6  C   UNL     1       7.014   5.566  18.435  0.00  0.00    +0.000 A 
ATOM      7  N   UNL     1       7.861   5.865  19.574  0.00  0.00    +0.000 N 
ATOM      8  O   UNL     1       8.572   6.877  19.506  0.00  0.00    +0.000 OA
ATOM      9  O   UNL     1       7.818   5.093  20.547  0.00  0.00    +0.000 OA
ATOM     10  N   UNL     1       6.272   4.443  18.478  0.00  0.00    +0.000 NA
ATOM     11  N   UNL     1       5.581   4.459  17.315  0.00  0.00    +0.000 N 
ENDBRANCH   1  11
BRANCH   1  12
ATOM     12  C   UNL     1       3.254   3.601  17.402  0.00  0.00    +0.000 C 
ATOM     13  O   UNL     1       2.324   3.283  16.664  0.00  0.00    +0.000 OA
ATOM     14  N   UNL     1       3.074   4.126  18.664  0.00  0.00    +0.000 N 
ATOM     15  H   UNL     1       3.886   4.604  19.060  0.00  0.00    +0.000 HD
BRANCH  14  16
ATOM     16  C   UNL     1       1.763   4.464  19.212  0.00  0.00    +0.000 C 
ATOM     17  C   UNL     1       0.857   3.227  19.237  0.00  0.00    +0.000 C 
ATOM     18  C   UNL     1       1.326   2.183  20.249  0.00  0.00    +0.000 C 
ATOM     19  C   UNL     1       1.489   2.777  21.646  0.00  0.00    +0.000 C 
ATOM     20  C   UNL     1       2.342   4.044  21.653  0.00  0.00    +0.000 C 
ATOM     21  C   UNL     1       1.875   5.067  20.618  0.00  0.00    +0.000 C 
ENDBRANCH  14  16
ENDBRANCH   1  12
TORSDOF 3
ENDMDL
MODEL 5
REMARK VINA RESULT:      -6.9      3.209      6.805
REMARK  Name = 
REMARK  4 active torsions:
REMARK  status: ('A' for Active; 'I' for Inactive)
REMARK    1  A    between atoms: C_1  and  C_2
REMARK    2  A    between atoms: N_10  and  C_11
REMARK    3  A    between atoms: C_11  and  C_12
REMARK    4  A    between atoms: N_14  and  C_15
REMARK                            x       y       z     vdW  Elec       q    Type
REMARK                         _______ _______ _______ _____ _____    ______ ____
ROOT
ATOM      1  C   UNL     1       6.649   4.063  15.993  0.00  0.00    +0.000 C 
ENDROOT
BRANCH   1  11
ATOM      2  C   UNL     1       6.033   6.863  17.205  0.00  0.00    +0.000 C 
ATOM      3  C   UNL     1       5.109   5.698  17.203  0.00  0.00    +0.000 A 
ATOM      4  C   UNL     1       3.831   5.567  17.722  0.00  0.00    +0.000 A 
ATOM      5 CL   UNL     1       2.934   6.772  18.513  0.00  0.00    +0.000 Cl
ATOM      6  C   UNL     1       3.466   4.229  17.464  0.00  0.00    +0.000 A 
ATOM      7  N   UNL     1       2.247   3.513  17.790  0.00  0.00    +0.000 N 
ATOM      8  O   UNL     1       1.375   4.129  18.417  0.00  0.00    +0.000 OA
ATOM      9  O   UNL     1       2.152   2.331  17.419  0.00  0.00    +0.000 OA
ATOM     10  N   UNL     1       4.441   3.555  16.823  0.00  0.00    +0.000 NA
ATOM     11  N   UNL     1       5.410   4.480  16.633  0.00  0.00    +0.000 N 
ENDBRANCH   1  11
BRANCH   1  12
ATOM     12  C   UNL     1       6.762   4.522  14.552  0.00  0.00    +0.000 C 
ATOM     13  O   UNL     1       7.455   5.487  14.236  0.00  0.00    +0.000 OA
ATOM     14  N   UNL     1       6.113   3.722  13.636  0.00  0.00    +0.000 N 
ATOM     15  H   UNL     1       5.361   3.143  14.014  0.00  0.00    +0.000 HD
BRANCH  14  16
ATOM     16  C   UNL     1       6.088   4.004  12.202  0.00  0.00    +0.000 C 
ATOM     17  C   UNL     1       7.415   3.597  11.552  0.00  0.00    +0.000 C 
ATOM     18  C   UNL     1       7.617   2.082  11.540  0.00  0.00    +0.000 C 
ATOM     19  C   UNL     1       6.440   1.357  10.892  0.00  0.00    +0.000 C 
ATOM     20  C   UNL     1       5.093   1.777  11.478  0.00  0.00    +0.000 C 
ATOM     21  C   UNL     1       4.919   3.295  11.507  0.00  0.00    +0.000 C 
ENDBRANCH  14  16
ENDBRANCH   1  12
TORSDOF 3
ENDMDL
MODEL 6
REMARK VINA RESULT:      -6.9      5.508      8.391
REMARK  Name = 
REMARK  4 active torsions:
REMARK  status: ('A' for Active; 'I' for Inactive)
REMARK    1  A    between atoms: C_1  and  C_2
REMARK    2  A    between atoms: N_10  and  C_11
REMARK    3  A    between atoms: C_11  and  C_12
REMARK    4  A    between atoms: N_14  and  C_15
REMARK                            x       y       z     vdW  Elec       q    Type
REMARK                         _______ _______ _______ _____ _____    ______ ____
ROOT
ATOM      1  C   UNL     1       1.442   8.947  17.830  0.00  0.00    +0.000 C 
ENDROOT
BRANCH   1  11
ATOM      2  C   UNL     1       2.174  11.960  18.107  0.00  0.00    +0.000 C 
ATOM      3  C   UNL     1       1.467  11.143  19.129  0.00  0.00    +0.000 A 
ATOM      4  C   UNL     1       1.002  11.489  20.387  0.00  0.00    +0.000 A 
ATOM      5 CL   UNL     1       1.102  13.019  21.116  0.00  0.00    +0.000 Cl
ATOM      6  C   UNL     1       0.458  10.300  20.916  0.00  0.00    +0.000 A 
ATOM      7  N   UNL     1      -0.160  10.047  22.204  0.00  0.00    +0.000 N 
ATOM      8  O   UNL     1      -0.215  10.990  23.005  0.00  0.00    +0.000 OA
ATOM      9  O   UNL     1      -0.599   8.905  22.422  0.00  0.00    +0.000 OA
ATOM     10  N   UNL     1       0.566   9.270  20.055  0.00  0.00    +0.000 NA
ATOM     11  N   UNL     1       1.139   9.816  18.958  0.00  0.00    +0.000 N 
ENDBRANCH   1  11
BRANCH   1  12
ATOM     12  C   UNL     1       2.495   7.903  18.145  0.00  0.00    +0.000 C 
ATOM     13  O   UNL     1       3.672   8.058  17.827  0.00  0.00    +0.000 OA
ATOM     14  N   UNL     1       2.046   6.832  18.888  0.00  0.00    +0.000 N 
ATOM     15  H   UNL     1       1.040   6.663  18.850  0.00  0.00    +0.000 HD
BRANCH  14  16
ATOM     16  C   UNL     1       2.901   5.714  19.279  0.00  0.00    +0.000 C 
ATOM     17  C   UNL     1       2.397   5.084  20.583  0.00  0.00    +0.000 C 
ATOM     18  C   UNL     1       1.059   4.368  20.404  0.00  0.00    +0.000 C 
ATOM     19  C   UNL     1       1.111   3.339  19.277  0.00  0.00    +0.000 C 
ATOM     20  C   UNL     1       1.660   3.917  17.974  0.00  0.00    +0.000 C 
ATOM     21  C   UNL     1       2.985   4.652  18.176  0.00  0.00    +0.000 C 
ENDBRANCH  14  16
ENDBRANCH   1  12
TORSDOF 3
ENDMDL
MODEL 7
REMARK VINA RESULT:      -6.9      3.308      6.175
REMARK  Name = 
REMARK  4 active torsions:
REMARK  status: ('A' for Active; 'I' for Inactive)
REMARK    1  A    between atoms: C_1  and  C_2
REMARK    2  A    between atoms: N_10  and  C_11
REMARK    3  A    between atoms: C_11  and  C_12
REMARK    4  A    between atoms: N_14  and  C_15
REMARK                            x       y       z     vdW  Elec       q    Type
REMARK                         _______ _______ _______ _____ _____    ______ ____
ROOT
ATOM      1  C   UNL     1       3.542   3.471  17.224  0.00  0.00    +0.000 C 
ENDROOT
BRANCH   1  11
ATOM      2  C   UNL     1       2.189   3.172  20.012  0.00  0.00    +0.000 C 
ATOM      3  C   UNL     1       2.417   4.454  19.293  0.00  0.00    +0.000 A 
ATOM      4  C   UNL     1       2.089   5.751  19.649  0.00  0.00    +0.000 A 
ATOM      5 CL   UNL     1       1.328   6.242  21.085  0.00  0.00    +0.000 Cl
ATOM      6  C   UNL     1       2.508   6.547  18.563  0.00  0.00    +0.000 A 
ATOM      7  N   UNL     1       2.412   7.980  18.362  0.00  0.00    +0.000 N 
ATOM      8  O   UNL     1       1.859   8.645  19.250  0.00  0.00    +0.000 OA
ATOM      9  O   UNL     1       2.893   8.453  17.318  0.00  0.00    +0.000 OA
ATOM     10  N   UNL     1       3.065   5.809  17.583  0.00  0.00    +0.000 NA
ATOM     11  N   UNL     1       3.042   4.546  18.069  0.00  0.00    +0.000 N 
ENDBRANCH   1  11
BRANCH   1  12
ATOM     12  C   UNL     1       4.872   3.791  16.571  0.00  0.00    +0.000 C 
ATOM     13  O   UNL     1       5.030   3.709  15.355  0.00  0.00    +0.000 OA
ATOM     14  N   UNL     1       5.840   4.266  17.431  0.00  0.00    +0.000 N 
ATOM     15  H   UNL     1       5.707   4.029  18.415  0.00  0.00    +0.000 HD
BRANCH  14  16
ATOM     16  C   UNL     1       7.192   4.615  17.001  0.00  0.00    +0.000 C 
ATOM     17  C   UNL     1       7.204   5.993  16.331  0.00  0.00    +0.000 C 
ATOM     18  C   UNL     1       6.921   7.123  17.320  0.00  0.00    +0.000 C 
ATOM     19  C   UNL     1       7.869   7.083  18.516  0.00  0.00    +0.000 C 
ATOM     20  C   UNL     1       7.926   5.707  19.178  0.00  0.00    +0.000 C 
ATOM     21  C   UNL     1       8.183   4.587  18.171  0.00  0.00    +0.000 C 
ENDBRANCH  14  16
ENDBRANCH   1  12
TORSDOF 3
ENDMDL
MODEL 8
REMARK VINA RESULT:      -6.7      5.445      8.401
REMARK  Name = 
REMARK  4 active torsions:
REMARK  status: ('A' for Active; 'I' for Inactive)
REMARK    1  A    between atoms: C_1  and  C_2
REMARK    2  A    between atoms: N_10  and  C_11
REMARK    3  A    between atoms: C_11  and  C_12
REMARK    4  A    between atoms: N_14  and  C_15
REMARK                            x       y       z     vdW  Elec       q    Type
REMARK                         _______ _______ _______ _____ _____    ______ ____
ROOT
ATOM      1  C   UNL     1       1.172   9.024  17.741  0.00  0.00    +0.000 C 
ENDROOT
BRANCH   1  11
ATOM      2  C   UNL     1      -1.300  10.916  17.798  0.00  0.00    +0.000 C 
ATOM      3  C   UNL     1      -0.536  10.453  18.988  0.00  0.00    +0.000 A 
ATOM      4  C   UNL     1      -0.708  10.742  20.331  0.00  0.00    +0.000 A 
ATOM      5 CL   UNL     1      -1.913  11.730  21.005  0.00  0.00    +0.000 Cl
ATOM      6  C   UNL     1       0.334  10.058  20.990  0.00  0.00    +0.000 A 
ATOM      7  N   UNL     1       0.671  10.002  22.400  0.00  0.00    +0.000 N 
ATOM      8  O   UNL     1      -0.027  10.664  23.180  0.00  0.00    +0.000 OA
ATOM      9  O   UNL     1       1.631   9.290  22.739  0.00  0.00    +0.000 OA
ATOM     10  N   UNL     1       1.116   9.379  20.127  0.00  0.00    +0.000 NA
ATOM     11  N   UNL     1       0.540   9.595  18.922  0.00  0.00    +0.000 N 
ENDBRANCH   1  11
BRANCH   1  12
ATOM     12  C   UNL     1       2.284   8.048  18.071  0.00  0.00    +0.000 C 
ATOM     13  O   UNL     1       3.457   8.290  17.796  0.00  0.00    +0.000 OA
ATOM     14  N   UNL     1       1.886   6.933  18.777  0.00  0.00    +0.000 N 
ATOM     15  H   UNL     1       0.896   6.696  18.702  0.00  0.00    +0.000 HD
BRANCH  14  16
ATOM     16  C   UNL     1       2.803   5.867  19.175  0.00  0.00    +0.000 C 
ATOM     17  C   UNL     1       2.344   5.227  20.490  0.00  0.00    +0.000 C 
ATOM     18  C   UNL     1       1.045   4.438  20.331  0.00  0.00    +0.000 C 
ATOM     19  C   UNL     1       1.143   3.400  19.217  0.00  0.00    +0.000 C 
ATOM     20  C   UNL     1       1.650   3.990  17.902  0.00  0.00    +0.000 C 
ATOM     21  C   UNL     1       2.935   4.797  18.083  0.00  0.00    +0.000 C 
ENDBRANCH  14  16
ENDBRANCH   1  12
TORSDOF 3
ENDMDL
MODEL 9
REMARK VINA RESULT:      -6.7      2.884      3.471
REMARK  Name = 
REMARK  4 active torsions:
REMARK  status: ('A' for Active; 'I' for Inactive)
REMARK    1  A    between atoms: C_1  and  C_2
REMARK    2  A    between atoms: N_10  and  C_11
REMARK    3  A    between atoms: C_11  and  C_12
REMARK    4  A    between atoms: N_14  and  C_15
REMARK                            x       y       z     vdW  Elec       q    Type
REMARK                         _______ _______ _______ _____ _____    ______ ____
ROOT
ATOM      1  C   UNL     1       3.745   7.520  17.643  0.00  0.00    +0.000 C 
ENDROOT
BRANCH   1  11
ATOM      2  C   UNL     1       4.635   6.764  14.757  0.00  0.00    +0.000 C 
ATOM      3  C   UNL     1       5.330   6.365  16.010  0.00  0.00    +0.000 A 
ATOM      4  C   UNL     1       6.464   5.593  16.198  0.00  0.00    +0.000 A 
ATOM      5 CL   UNL     1       7.417   4.885  14.985  0.00  0.00    +0.000 Cl
ATOM      6  C   UNL     1       6.628   5.517  17.597  0.00  0.00    +0.000 A 
ATOM      7  N   UNL     1       7.634   4.830  18.385  0.00  0.00    +0.000 N 
ATOM      8  O   UNL     1       8.487   4.173  17.772  0.00  0.00    +0.000 OA
ATOM      9  O   UNL     1       7.581   4.945  19.621  0.00  0.00    +0.000 OA
ATOM     10  N   UNL     1       5.667   6.195  18.254  0.00  0.00    +0.000 NA
ATOM     11  N   UNL     1       4.918   6.742  17.269  0.00  0.00    +0.000 N 
ENDBRANCH   1  11
BRANCH   1  12
ATOM     12  C   UNL     1       2.810   6.781  18.580  0.00  0.00    +0.000 C 
ATOM     13  O   UNL     1       2.112   7.378  19.397  0.00  0.00    +0.000 OA
ATOM     14  N   UNL     1       2.740   5.420  18.375  0.00  0.00    +0.000 N 
ATOM     15  H   UNL     1       3.540   5.008  17.892  0.00  0.00    +0.000 HD
BRANCH  14  16
ATOM     16  C   UNL     1       1.911   4.529  19.184  0.00  0.00    +0.000 C 
ATOM     17  C   UNL     1       1.283   3.439  18.308  0.00  0.00    +0.000 C 
ATOM     18  C   UNL     1       2.320   2.453  17.773  0.00  0.00    +0.000 C 
ATOM     19  C   UNL     1       3.158   1.844  18.895  0.00  0.00    +0.000 C 
ATOM     20  C   UNL     1       3.758   2.900  19.822  0.00  0.00    +0.000 C 
ATOM     21  C   UNL     1       2.712   3.894  20.327  0.00  0.00    +0.000 C 
ENDBRANCH  14  16
ENDBRANCH   1  12
TORSDOF 3
ENDMDL
