MODEL 1
REMARK VINA RESULT:      -6.9      0.000      0.000
REMARK  Name = 
REMARK  8 active torsions:
REMARK  status: ('A' for Active; 'I' for Inactive)
REMARK    1  A    between atoms: C_1  and  C_2
REMARK    2  A    between atoms: C_2  and  C_3
REMARK    3  A    between atoms: C_3  and  C_4
REMARK    4  A    between atoms: C_4  and  C_5
REMARK    5  A    between atoms: C_5  and  O_6
REMARK    6  A    between atoms: N_10  and  C_11
REMARK    7  A    between atoms: C_17  and  C_18
REMARK    8  A    between atoms: N_20  and  C_21
REMARK                            x       y       z     vdW  Elec       q    Type
REMARK                         _______ _______ _______ _____ _____    ______ ____
ROOT
ATOM      1  C   UNL     1       6.780   5.173  17.918  0.00  0.00    +0.000 C 
ATOM      2  C   UNL     1       6.662   4.538  16.500  0.00  0.00    +0.000 C 
ATOM      3  C   UNL     1       5.239   4.396  15.966  0.00  0.00    +0.000 C 
ATOM      4  C   UNL     1       4.326   3.748  16.995  0.00  0.00    +0.000 C 
ATOM      5  N   UNL     1       4.408   4.495  18.237  0.00  0.00    +0.000 N 
ATOM      6  C   UNL     1       5.713   4.563  18.885  0.00  0.00    +0.000 C 
ENDROOT
BRANCH   5   7
ATOM      7  C   UNL     1       3.268   4.754  18.974  0.00  0.00    +0.000 A 
ATOM      8  N   UNL     1       2.736   3.732  19.697  0.00  0.00    +0.000 NA
ATOM      9  C   UNL     1       1.818   4.002  20.645  0.00  0.00    +0.000 A 
ATOM     10  N   UNL     1       1.346   5.203  21.024  0.00  0.00    +0.000 NA
ATOM     11  C   UNL     1       1.821   6.176  20.228  0.00  0.00    +0.000 A 
ATOM     12  C   UNL     1       2.699   6.029  19.166  0.00  0.00    +0.000 A 
ATOM     13  C   UNL     1       2.727   7.317  18.561  0.00  0.00    +0.000 A 
ATOM     14  C   UNL     1       3.309   7.721  17.260  0.00  0.00    +0.000 C 
ATOM     15  N   UNL     1       2.071   8.231  19.288  0.00  0.00    +0.000 NA
ATOM     16  N   UNL     1       1.590   7.520  20.330  0.00  0.00    +0.000 N 
ATOM     17  C   UNL     1       0.979   8.209  21.436  0.00  0.00    +0.000 C 
ENDBRANCH   5   7
BRANCH   1  18
ATOM     18  C   UNL     1       6.583   6.726  17.894  0.00  0.00    +0.000 C 
BRANCH  18  20
ATOM     19  C   UNL     1       8.070   8.784  17.936  0.00  0.00    +0.000 C 
ATOM     20  C   UNL     1       7.687   7.517  17.182  0.00  0.00    +0.000 C 
ENDBRANCH  18  20
ENDBRANCH   1  18
BRANCH   1  21
ATOM     21  C   UNL     1       8.185   4.799  18.454  0.00  0.00    +0.000 C 
BRANCH  21  22
ATOM     22  O   UNL     1       8.405   5.258  19.779  0.00  0.00    +0.000 OA
ATOM     23  H   UNL     1       9.270   4.920  20.068  0.00  0.00    +0.000 HD
ENDBRANCH  21  22
ENDBRANCH   1  21
TORSDOF 5
ENDMDL
MODEL 2
REMARK VINA RESULT:      -6.2      2.631      3.555
REMARK  Name = 
REMARK  8 active torsions:
REMARK  status: ('A' for Active; 'I' for Inactive)
REMARK    1  A    between atoms: C_1  and  C_2
REMARK    2  A    between atoms: C_2  and  C_3
REMARK    3  A    between atoms: C_3  and  C_4
REMARK    4  A    between atoms: C_4  and  C_5
REMARK    5  A    between atoms: C_5  and  O_6
REMARK    6  A    between atoms: N_10  and  C_11
REMARK    7  A    between atoms: C_17  and  C_18
REMARK    8  A    between atoms: N_20  and  C_21
REMARK                            x       y       z     vdW  Elec       q    Type
REMARK                         _______ _______ _______ _____ _____    ______ ____
ROOT
ATOM      1  C   UNL     1       6.063   5.232  16.013  0.00  0.00    +0.000 C 
ATOM      2  C   UNL     1       5.383   6.633  16.075  0.00  0.00    +0.000 C 
ATOM      3  C   UNL     1       4.593   6.917  17.349  0.00  0.00    +0.000 C 
ATOM      4  C   UNL     1       3.647   5.772  17.679  0.00  0.00    +0.000 C 
ATOM      5  N   UNL     1       4.402   4.535  17.728  0.00  0.00    +0.000 N 
ATOM      6  C   UNL     1       5.079   4.120  16.504  0.00  0.00    +0.000 C 
ENDROOT
BRANCH   5   7
ATOM      7  C   UNL     1       4.150   3.600  18.716  0.00  0.00    +0.000 A 
ATOM      8  N   UNL     1       5.217   3.002  19.308  0.00  0.00    +0.000 NA
ATOM      9  C   UNL     1       5.038   2.319  20.455  0.00  0.00    +0.000 A 
ATOM     10  N   UNL     1       3.902   2.158  21.156  0.00  0.00    +0.000 NA
ATOM     11  C   UNL     1       2.855   2.679  20.495  0.00  0.00    +0.000 A 
ATOM     12  C   UNL     1       2.882   3.330  19.270  0.00  0.00    +0.000 A 
ATOM     13  C   UNL     1       1.509   3.512  18.946  0.00  0.00    +0.000 A 
ATOM     14  C   UNL     1       0.906   3.945  17.663  0.00  0.00    +0.000 C 
ATOM     15  N   UNL     1       0.701   3.172  19.958  0.00  0.00    +0.000 NA
ATOM     16  N   UNL     1       1.553   2.735  20.909  0.00  0.00    +0.000 N 
ATOM     17  C   UNL     1       1.056   2.456  22.232  0.00  0.00    +0.000 C 
ENDBRANCH   5   7
BRANCH   1  18
ATOM     18  C   UNL     1       7.357   5.158  16.891  0.00  0.00    +0.000 C 
BRANCH  18  20
ATOM     19  C   UNL     1       7.783   5.846  19.298  0.00  0.00    +0.000 C 
ATOM     20  C   UNL     1       7.555   6.322  17.869  0.00  0.00    +0.000 C 
ENDBRANCH  18  20
ENDBRANCH   1  18
BRANCH   1  21
ATOM     21  C   UNL     1       6.386   4.964  14.522  0.00  0.00    +0.000 C 
BRANCH  21  22
ATOM     22  O   UNL     1       7.681   5.412  14.153  0.00  0.00    +0.000 OA
ATOM     23  H   UNL     1       7.962   6.074  14.808  0.00  0.00    +0.000 HD
ENDBRANCH  21  22
ENDBRANCH   1  21
TORSDOF 5
ENDMDL
MODEL 3
REMARK VINA RESULT:      -6.0      2.176      3.253
REMARK  Name = 
REMARK  8 active torsions:
REMARK  status: ('A' for Active; 'I' for Inactive)
REMARK    1  A    between atoms: C_1  and  C_2
REMARK    2  A    between atoms: C_2  and  C_3
REMARK    3  A    between atoms: C_3  and  C_4
REMARK    4  A    between atoms: C_4  and  C_5
REMARK    5  A    between atoms: C_5  and  O_6
REMARK    6  A    between atoms: N_10  and  C_11
REMARK    7  A    between atoms: C_17  and  C_18
REMARK    8  A    between atoms: N_20  and  C_21
REMARK                            x       y       z     vdW  Elec       q    Type
REMARK                         _______ _______ _______ _____ _____    ______ ____
ROOT
ATOM      1  C   UNL     1       6.285   5.105  16.222  0.00  0.00    +0.000 C 
ATOM      2  C   UNL     1       6.093   6.647  16.341  0.00  0.00    +0.000 C 
ATOM      3  C   UNL     1       5.009   7.094  17.317  0.00  0.00    +0.000 C 
ATOM      4  C   UNL     1       3.709   6.342  17.081  0.00  0.00    +0.000 C 
ATOM      5  N   UNL     1       3.973   4.916  17.121  0.00  0.00    +0.000 N 
ATOM      6  C   UNL     1       4.900   4.384  16.128  0.00  0.00    +0.000 C 
ENDROOT
BRANCH   5   7
ATOM      7  C   UNL     1       3.097   4.059  17.761  0.00  0.00    +0.000 A 
ATOM      8  N   UNL     1       2.849   2.857  17.178  0.00  0.00    +0.000 NA
ATOM      9  C   UNL     1       2.247   1.888  17.894  0.00  0.00    +0.000 A 
ATOM     10  N   UNL     1       1.861   1.926  19.182  0.00  0.00    +0.000 NA
ATOM     11  C   UNL     1       2.035   3.156  19.696  0.00  0.00    +0.000 A 
ATOM     12  C   UNL     1       2.559   4.263  19.048  0.00  0.00    +0.000 A 
ATOM     13  C   UNL     1       2.352   5.330  19.967  0.00  0.00    +0.000 A 
ATOM     14  C   UNL     1       2.500   6.788  19.747  0.00  0.00    +0.000 C 
ATOM     15  N   UNL     1       1.907   4.896  21.153  0.00  0.00    +0.000 NA
ATOM     16  N   UNL     1       1.790   3.563  20.978  0.00  0.00    +0.000 N 
ATOM     17  C   UNL     1       1.510   2.722  22.112  0.00  0.00    +0.000 C 
ENDBRANCH   5   7
BRANCH   1  18
ATOM     18  C   UNL     1       7.065   4.505  17.438  0.00  0.00    +0.000 C 
BRANCH  18  20
ATOM     19  C   UNL     1       7.420   5.602  19.701  0.00  0.00    +0.000 C 
ATOM     20  C   UNL     1       7.885   5.512  18.254  0.00  0.00    +0.000 C 
ENDBRANCH  18  20
ENDBRANCH   1  18
BRANCH   1  21
ATOM     21  C   UNL     1       7.046   4.857  14.895  0.00  0.00    +0.000 C 
BRANCH  21  22
ATOM     22  O   UNL     1       6.580   3.709  14.203  0.00  0.00    +0.000 OA
ATOM     23  H   UNL     1       6.467   3.954  13.268  0.00  0.00    +0.000 HD
ENDBRANCH  21  22
ENDBRANCH   1  21
TORSDOF 5
ENDMDL
MODEL 4
REMARK VINA RESULT:      -5.9      2.284      3.880
REMARK  Name = 
REMARK  8 active torsions:
REMARK  status: ('A' for Active; 'I' for Inactive)
REMARK    1  A    between atoms: C_1  and  C_2
REMARK    2  A    between atoms: C_2  and  C_3
REMARK    3  A    between atoms: C_3  and  C_4
REMARK    4  A    between atoms: C_4  and  C_5
REMARK    5  A    between atoms: C_5  and  O_6
REMARK    6  A    between atoms: N_10  and  C_11
REMARK    7  A    between atoms: C_17  and  C_18
REMARK    8  A    between atoms: N_20  and  C_21
REMARK                            x       y       z     vdW  Elec       q    Type
REMARK                         _______ _______ _______ _____ _____    ______ ____
ROOT
ATOM      1  C   UNL     1       6.071   5.445  15.821  0.00  0.00    +0.000 C 
ATOM      2  C   UNL     1       7.283   5.761  16.748  0.00  0.00    +0.000 C 
ATOM      3  C   UNL     1       7.348   4.945  18.035  0.00  0.00    +0.000 C 
ATOM      4  C   UNL     1       6.014   4.955  18.764  0.00  0.00    +0.000 C 
ATOM      5  N   UNL     1       4.973   4.518  17.852  0.00  0.00    +0.000 N 
ATOM      6  C   UNL     1       4.755   5.327  16.658  0.00  0.00    +0.000 C 
ENDROOT
BRANCH   5   7
ATOM      7  C   UNL     1       3.979   3.661  18.284  0.00  0.00    +0.000 A 
ATOM      8  N   UNL     1       3.980   2.393  17.794  0.00  0.00    +0.000 NA
ATOM      9  C   UNL     1       3.227   1.452  18.396  0.00  0.00    +0.000 A 
ATOM     10  N   UNL     1       2.454   1.582  19.489  0.00  0.00    +0.000 NA
ATOM     11  C   UNL     1       2.403   2.865  19.887  0.00  0.00    +0.000 A 
ATOM     12  C   UNL     1       3.055   3.943  19.310  0.00  0.00    +0.000 A 
ATOM     13  C   UNL     1       2.522   5.073  19.992  0.00  0.00    +0.000 A 
ATOM     14  C   UNL     1       2.667   6.511  19.664  0.00  0.00    +0.000 C 
ATOM     15  N   UNL     1       1.746   4.720  21.025  0.00  0.00    +0.000 NA
ATOM     16  N   UNL     1       1.749   3.372  20.976  0.00  0.00    +0.000 N 
ATOM     17  C   UNL     1       1.164   2.622  22.057  0.00  0.00    +0.000 C 
ENDBRANCH   5   7
BRANCH   1  18
ATOM     18  C   UNL     1       6.262   4.112  15.023  0.00  0.00    +0.000 C 
BRANCH  18  20
ATOM     19  C   UNL     1       6.302   3.547  12.548  0.00  0.00    +0.000 C 
ATOM     20  C   UNL     1       5.451   4.002  13.726  0.00  0.00    +0.000 C 
ENDBRANCH  18  20
ENDBRANCH   1  18
BRANCH   1  21
ATOM     21  C   UNL     1       5.924   6.652  14.861  0.00  0.00    +0.000 C 
BRANCH  21  22
ATOM     22  O   UNL     1       4.696   7.343  15.033  0.00  0.00    +0.000 OA
ATOM     23  H   UNL     1       4.271   7.412  14.161  0.00  0.00    +0.000 HD
ENDBRANCH  21  22
ENDBRANCH   1  21
TORSDOF 5
ENDMDL
MODEL 5
REMARK VINA RESULT:      -5.9      6.297      9.177
REMARK  Name = 
REMARK  8 active torsions:
REMARK  status: ('A' for Active; 'I' for Inactive)
REMARK    1  A    between atoms: C_1  and  C_2
REMARK    2  A    between atoms: C_2  and  C_3
REMARK    3  A    between atoms: C_3  and  C_4
REMARK    4  A    between atoms: C_4  and  C_5
REMARK    5  A    between atoms: C_5  and  O_6
REMARK    6  A    between atoms: N_10  and  C_11
REMARK    7  A    between atoms: C_17  and  C_18
REMARK    8  A    between atoms: N_20  and  C_21
REMARK                            x       y       z     vdW  Elec       q    Type
REMARK                         _______ _______ _______ _____ _____    ______ ____
ROOT
ATOM      1  C   UNL     1       0.368  10.314  19.211  0.00  0.00    +0.000 C 
ATOM      2  C   UNL     1       1.168  11.633  19.429  0.00  0.00    +0.000 C 
ATOM      3  C   UNL     1       0.323  12.899  19.532  0.00  0.00    +0.000 C 
ATOM      4  C   UNL     1      -0.682  12.985  18.394  0.00  0.00    +0.000 C 
ATOM      5  N   UNL     1      -1.466  11.765  18.361  0.00  0.00    +0.000 N 
ATOM      6  C   UNL     1      -0.744  10.518  18.130  0.00  0.00    +0.000 C 
ENDROOT
BRANCH   5   7
ATOM      7  C   UNL     1      -2.829  11.814  18.133  0.00  0.00    +0.000 A 
ATOM      8  N   UNL     1      -3.278  11.443  16.905  0.00  0.00    +0.000 NA
ATOM      9  C   UNL     1      -4.590  11.196  16.730  0.00  0.00    +0.000 A 
ATOM     10  N   UNL     1      -5.571  11.233  17.649  0.00  0.00    +0.000 NA
ATOM     11  C   UNL     1      -5.108  11.693  18.823  0.00  0.00    +0.000 A 
ATOM     12  C   UNL     1      -3.806  12.066  19.117  0.00  0.00    +0.000 A 
ATOM     13  C   UNL     1      -3.897  12.641  20.416  0.00  0.00    +0.000 A 
ATOM     14  C   UNL     1      -2.879  13.417  21.162  0.00  0.00    +0.000 C 
ATOM     15  N   UNL     1      -5.110  12.474  20.958  0.00  0.00    +0.000 NA
ATOM     16  N   UNL     1      -5.802  11.834  19.993  0.00  0.00    +0.000 N 
ATOM     17  C   UNL     1      -7.112  11.314  20.287  0.00  0.00    +0.000 C 
ENDBRANCH   5   7
BRANCH   1  18
ATOM     18  C   UNL     1      -0.317   9.808  20.524  0.00  0.00    +0.000 C 
BRANCH  18  20
ATOM     19  C   UNL     1      -0.230   9.713  23.060  0.00  0.00    +0.000 C 
ATOM     20  C   UNL     1       0.575   9.804  21.771  0.00  0.00    +0.000 C 
ENDBRANCH  18  20
ENDBRANCH   1  18
BRANCH   1  21
ATOM     21  C   UNL     1       1.377   9.270  18.671  0.00  0.00    +0.000 C 
BRANCH  21  22
ATOM     22  O   UNL     1       1.926   9.637  17.415  0.00  0.00    +0.000 OA
ATOM     23  H   UNL     1       1.212   9.590  16.756  0.00  0.00    +0.000 HD
ENDBRANCH  21  22
ENDBRANCH   1  21
TORSDOF 5
ENDMDL
MODEL 6
REMARK VINA RESULT:      -5.9      2.494      5.788
REMARK  Name = 
REMARK  8 active torsions:
REMARK  status: ('A' for Active; 'I' for Inactive)
REMARK    1  A    between atoms: C_1  and  C_2
REMARK    2  A    between atoms: C_2  and  C_3
REMARK    3  A    between atoms: C_3  and  C_4
REMARK    4  A    between atoms: C_4  and  C_5
REMARK    5  A    between atoms: C_5  and  O_6
REMARK    6  A    between atoms: N_10  and  C_11
REMARK    7  A    between atoms: C_17  and  C_18
REMARK    8  A    between atoms: N_20  and  C_21
REMARK                            x       y       z     vdW  Elec       q    Type
REMARK                         _______ _______ _______ _____ _____    ______ ____
ROOT
ATOM      1  C   UNL     1       2.133   3.960  20.034  0.00  0.00    +0.000 C 
ATOM      2  C   UNL     1       1.444   5.307  20.405  0.00  0.00    +0.000 C 
ATOM      3  C   UNL     1       2.078   6.552  19.792  0.00  0.00    +0.000 C 
ATOM      4  C   UNL     1       3.583   6.567  20.003  0.00  0.00    +0.000 C 
ATOM      5  N   UNL     1       4.143   5.325  19.503  0.00  0.00    +0.000 N 
ATOM      6  C   UNL     1       3.688   4.091  20.133  0.00  0.00    +0.000 C 
ENDROOT
BRANCH   5   7
ATOM      7  C   UNL     1       5.327   5.329  18.789  0.00  0.00    +0.000 A 
ATOM      8  N   UNL     1       6.421   4.774  19.376  0.00  0.00    +0.000 NA
ATOM      9  C   UNL     1       7.501   4.491  18.624  0.00  0.00    +0.000 A 
ATOM     10  N   UNL     1       7.656   4.658  17.299  0.00  0.00    +0.000 NA
ATOM     11  C   UNL     1       6.596   5.293  16.770  0.00  0.00    +0.000 A 
ATOM     12  C   UNL     1       5.460   5.718  17.441  0.00  0.00    +0.000 A 
ATOM     13  C   UNL     1       4.751   6.480  16.471  0.00  0.00    +0.000 A 
ATOM     14  C   UNL     1       3.580   7.368  16.660  0.00  0.00    +0.000 C 
ATOM     15  N   UNL     1       5.303   6.387  15.254  0.00  0.00    +0.000 NA
ATOM     16  N   UNL     1       6.383   5.603  15.456  0.00  0.00    +0.000 N 
ATOM     17  C   UNL     1       7.131   5.122  14.324  0.00  0.00    +0.000 C 
ENDBRANCH   5   7
BRANCH   1  18
ATOM     18  C   UNL     1       1.776   3.486  18.585  0.00  0.00    +0.000 C 
BRANCH  18  20
ATOM     19  C   UNL     1       3.465   1.709  17.925  0.00  0.00    +0.000 C 
ATOM     20  C   UNL     1       2.018   1.999  18.302  0.00  0.00    +0.000 C 
ENDBRANCH  18  20
ENDBRANCH   1  18
BRANCH   1  21
ATOM     21  C   UNL     1       1.670   2.922  21.088  0.00  0.00    +0.000 C 
BRANCH  21  22
ATOM     22  O   UNL     1       2.674   2.632  22.048  0.00  0.00    +0.000 OA
ATOM     23  H   UNL     1       2.362   2.961  22.909  0.00  0.00    +0.000 HD
ENDBRANCH  21  22
ENDBRANCH   1  21
TORSDOF 5
ENDMDL
MODEL 7
REMARK VINA RESULT:      -5.8      2.129      3.500
REMARK  Name = 
REMARK  8 active torsions:
REMARK  status: ('A' for Active; 'I' for Inactive)
REMARK    1  A    between atoms: C_1  and  C_2
REMARK    2  A    between atoms: C_2  and  C_3
REMARK    3  A    between atoms: C_3  and  C_4
REMARK    4  A    between atoms: C_4  and  C_5
REMARK    5  A    between atoms: C_5  and  O_6
REMARK    6  A    between atoms: N_10  and  C_11
REMARK    7  A    between atoms: C_17  and  C_18
REMARK    8  A    between atoms: N_20  and  C_21
REMARK                            x       y       z     vdW  Elec       q    Type
REMARK                         _______ _______ _______ _____ _____    ______ ____
ROOT
ATOM      1  C   UNL     1       5.383   6.442  17.182  0.00  0.00    +0.000 C 
ATOM      2  C   UNL     1       5.474   5.939  15.711  0.00  0.00    +0.000 C 
ATOM      3  C   UNL     1       4.818   4.587  15.443  0.00  0.00    +0.000 C 
ATOM      4  C   UNL     1       5.258   3.548  16.463  0.00  0.00    +0.000 C 
ATOM      5  N   UNL     1       5.008   4.061  17.797  0.00  0.00    +0.000 N 
ATOM      6  C   UNL     1       5.707   5.282  18.181  0.00  0.00    +0.000 C 
ENDROOT
BRANCH   5   7
ATOM      7  C   UNL     1       4.493   3.234  18.779  0.00  0.00    +0.000 A 
ATOM      8  N   UNL     1       5.365   2.452  19.468  0.00  0.00    +0.000 NA
ATOM      9  C   UNL     1       4.961   1.862  20.610  0.00  0.00    +0.000 A 
ATOM     10  N   UNL     1       3.766   1.963  21.218  0.00  0.00    +0.000 NA
ATOM     11  C   UNL     1       2.903   2.664  20.463  0.00  0.00    +0.000 A 
ATOM     12  C   UNL     1       3.159   3.250  19.233  0.00  0.00    +0.000 A 
ATOM     13  C   UNL     1       1.881   3.698  18.793  0.00  0.00    +0.000 A 
ATOM     14  C   UNL     1       1.481   4.199  17.457  0.00  0.00    +0.000 C 
ATOM     15  N   UNL     1       0.946   3.568  19.743  0.00  0.00    +0.000 NA
ATOM     16  N   UNL     1       1.614   3.001  20.769  0.00  0.00    +0.000 N 
ATOM     17  C   UNL     1       0.971   2.877  22.051  0.00  0.00    +0.000 C 
ENDBRANCH   5   7
BRANCH   1  18
ATOM     18  C   UNL     1       3.966   7.005  17.534  0.00  0.00    +0.000 C 
BRANCH  18  20
ATOM     19  C   UNL     1       2.212   7.532  19.294  0.00  0.00    +0.000 C 
ATOM     20  C   UNL     1       3.551   6.866  19.004  0.00  0.00    +0.000 C 
ENDBRANCH  18  20
ENDBRANCH   1  18
BRANCH   1  21
ATOM     21  C   UNL     1       6.472   7.532  17.344  0.00  0.00    +0.000 C 
BRANCH  21  22
ATOM     22  O   UNL     1       7.692   7.187  16.706  0.00  0.00    +0.000 OA
ATOM     23  H   UNL     1       8.410   7.332  17.346  0.00  0.00    +0.000 HD
ENDBRANCH  21  22
ENDBRANCH   1  21
TORSDOF 5
ENDMDL
MODEL 8
REMARK VINA RESULT:      -5.8      6.690      9.302
REMARK  Name = 
REMARK  8 active torsions:
REMARK  status: ('A' for Active; 'I' for Inactive)
REMARK    1  A    between atoms: C_1  and  C_2
REMARK    2  A    between atoms: C_2  and  C_3
REMARK    3  A    between atoms: C_3  and  C_4
REMARK    4  A    between atoms: C_4  and  C_5
REMARK    5  A    between atoms: C_5  and  O_6
REMARK    6  A    between atoms: N_10  and  C_11
REMARK    7  A    between atoms: C_17  and  C_18
REMARK    8  A    between atoms: N_20  and  C_21
REMARK                            x       y       z     vdW  Elec       q    Type
REMARK                         _______ _______ _______ _____ _____    ______ ____
ROOT
ATOM      1  C   UNL     1       0.539  10.793  19.364  0.00  0.00    +0.000 C 
ATOM      2  C   UNL     1       1.372  11.997  18.831  0.00  0.00    +0.000 C 
ATOM      3  C   UNL     1       0.846  13.375  19.220  0.00  0.00    +0.000 C 
ATOM      4  C   UNL     1      -0.643  13.498  18.934  0.00  0.00    +0.000 C 
ATOM      5  N   UNL     1      -1.341  12.406  19.585  0.00  0.00    +0.000 N 
ATOM      6  C   UNL     1      -0.991  11.052  19.168  0.00  0.00    +0.000 C 
ENDROOT
BRANCH   5   7
ATOM      7  C   UNL     1      -2.544  12.629  20.230  0.00  0.00    +0.000 A 
ATOM      8  N   UNL     1      -3.688  12.418  19.525  0.00  0.00    +0.000 NA
ATOM      9  C   UNL     1      -4.861  12.337  20.182  0.00  0.00    +0.000 A 
ATOM     10  N   UNL     1      -5.076  12.407  21.508  0.00  0.00    +0.000 NA
ATOM     11  C   UNL     1      -3.941  12.708  22.161  0.00  0.00    +0.000 A 
ATOM     12  C   UNL     1      -2.687  12.905  21.604  0.00  0.00    +0.000 A 
ATOM     13  C   UNL     1      -1.897  13.373  22.692  0.00  0.00    +0.000 A 
ATOM     14  C   UNL     1      -0.537  13.961  22.668  0.00  0.00    +0.000 C 
ATOM     15  N   UNL     1      -2.550  13.299  23.859  0.00  0.00    +0.000 NA
ATOM     16  N   UNL     1      -3.765  12.827  23.511  0.00  0.00    +0.000 N 
ATOM     17  C   UNL     1      -4.694  12.435  24.540  0.00  0.00    +0.000 C 
ENDBRANCH   5   7
BRANCH   1  18
ATOM     18  C   UNL     1       0.795  10.515  20.883  0.00  0.00    +0.000 C 
BRANCH  18  20
ATOM     19  C   UNL     1      -0.343   9.852  23.054  0.00  0.00    +0.000 C 
ATOM     20  C   UNL     1      -0.218   9.584  21.560  0.00  0.00    +0.000 C 
ENDBRANCH  18  20
ENDBRANCH   1  18
BRANCH   1  21
ATOM     21  C   UNL     1       0.933   9.568  18.500  0.00  0.00    +0.000 C 
BRANCH  21  22
ATOM     22  O   UNL     1       1.790   9.910  17.422  0.00  0.00    +0.000 OA
ATOM     23  H   UNL     1       2.226   9.094  17.121  0.00  0.00    +0.000 HD
ENDBRANCH  21  22
ENDBRANCH   1  21
TORSDOF 5
ENDMDL
MODEL 9
REMARK VINA RESULT:      -5.7      6.295      9.121
REMARK  Name = 
REMARK  8 active torsions:
REMARK  status: ('A' for Active; 'I' for Inactive)
REMARK    1  A    between atoms: C_1  and  C_2
REMARK    2  A    between atoms: C_2  and  C_3
REMARK    3  A    between atoms: C_3  and  C_4
REMARK    4  A    between atoms: C_4  and  C_5
REMARK    5  A    between atoms: C_5  and  O_6
REMARK    6  A    between atoms: N_10  and  C_11
REMARK    7  A    between atoms: C_17  and  C_18
REMARK    8  A    between atoms: N_20  and  C_21
REMARK                            x       y       z     vdW  Elec       q    Type
REMARK                         _______ _______ _______ _____ _____    ______ ____
ROOT
ATOM      1  C   UNL     1       0.803  10.626  19.282  0.00  0.00    +0.000 C 
ATOM      2  C   UNL     1       1.533  11.884  18.724  0.00  0.00    +0.000 C 
ATOM      3  C   UNL     1       0.747  13.189  18.819  0.00  0.00    +0.000 C 
ATOM      4  C   UNL     1      -0.666  13.022  18.281  0.00  0.00    +0.000 C 
ATOM      5  N   UNL     1      -1.303  11.910  18.960  0.00  0.00    +0.000 N 
ATOM      6  C   UNL     1      -0.686  10.597  18.806  0.00  0.00    +0.000 C 
ENDROOT
BRANCH   5   7
ATOM      7  C   UNL     1      -2.623  11.999  19.363  0.00  0.00    +0.000 A 
ATOM      8  N   UNL     1      -2.872  12.467  20.614  0.00  0.00    +0.000 NA
ATOM      9  C   UNL     1      -4.124  12.844  20.940  0.00  0.00    +0.000 A 
ATOM     10  N   UNL     1      -5.217  12.856  20.157  0.00  0.00    +0.000 NA
ATOM     11  C   UNL     1      -4.955  12.300  18.962  0.00  0.00    +0.000 A 
ATOM     12  C   UNL     1      -3.740  11.793  18.528  0.00  0.00    +0.000 A 
ATOM     13  C   UNL     1      -4.050  11.169  17.287  0.00  0.00    +0.000 A 
ATOM     14  C   UNL     1      -3.211  10.267  16.464  0.00  0.00    +0.000 C 
ATOM     15  N   UNL     1      -5.305  11.422  16.894  0.00  0.00    +0.000 NA
ATOM     16  N   UNL     1      -5.806  12.169  17.901  0.00  0.00    +0.000 N 
ATOM     17  C   UNL     1      -7.094  12.795  17.745  0.00  0.00    +0.000 C 
ENDBRANCH   5   7
BRANCH   1  18
ATOM     18  C   UNL     1       0.815  10.575  20.847  0.00  0.00    +0.000 C 
BRANCH  18  20
ATOM     19  C   UNL     1      -0.281   9.417  22.824  0.00  0.00    +0.000 C 
ATOM     20  C   UNL     1       0.380   9.240  21.463  0.00  0.00    +0.000 C 
ENDBRANCH  18  20
ENDBRANCH   1  18
BRANCH   1  21
ATOM     21  C   UNL     1       1.524   9.394  18.680  0.00  0.00    +0.000 C 
BRANCH  21  22
ATOM     22  O   UNL     1       1.946   9.606  17.342  0.00  0.00    +0.000 OA
ATOM     23  H   UNL     1       2.879   9.882  17.366  0.00  0.00    +0.000 HD
ENDBRANCH  21  22
ENDBRANCH   1  21
TORSDOF 5
ENDMDL
