MODEL 1
REMARK VINA RESULT:      -8.5      0.000      0.000
REMARK  Name = 
REMARK  7 active torsions:
REMARK  status: ('A' for Active; 'I' for Inactive)
REMARK    1  A    between atoms: C_1  and  C_2
REMARK    2  A    between atoms: C_2  and  N_3
REMARK    3  A    between atoms: N_3  and  C_4
REMARK    4  A    between atoms: N_3  and  C_6
REMARK    5  A    between atoms: C_4  and  C_5
REMARK    6  A    between atoms: C_9  and  C_10
REMARK    7  A    between atoms: C_21  and  C_22
REMARK                            x       y       z     vdW  Elec       q    Type
REMARK                         _______ _______ _______ _____ _____    ______ ____
ROOT
ATOM      1  C   UNL     1       3.766   5.293  17.622  0.00  0.00    +0.000 C 
ATOM      2  C   UNL     1       3.210   3.968  18.058  0.00  0.00    +0.000 C 
ATOM      3  C   UNL     1       3.867   3.069  18.802  0.00  0.00    +0.000 C 
ATOM      4  C   UNL     1       2.988   1.925  19.118  0.00  0.00    +0.000 C 
ATOM      5  O   UNL     1       1.763   2.237  18.441  0.00  0.00    +0.000 OA
ATOM      6  C   UNL     1       1.887   3.434  17.796  0.00  0.00    +0.000 C 
ATOM      7  O   UNL     1       1.038   3.950  17.092  0.00  0.00    +0.000 OA
ATOM      8  N   UNL     1       5.177   3.253  19.218  0.00  0.00    +0.000 N 
ATOM      9  C   UNL     1       5.797   4.389  18.818  0.00  0.00    +0.000 A 
ATOM     10  N   UNL     1       7.065   4.793  19.089  0.00  0.00    +0.000 N 
ATOM     11  N   UNL     1       7.361   5.990  18.539  0.00  0.00    +0.000 NA
ATOM     12  C   UNL     1       6.229   6.361  17.917  0.00  0.00    +0.000 A 
ATOM     13  C   UNL     1       6.145   7.669  17.219  0.00  0.00    +0.000 C 
ATOM     14  C   UNL     1       5.213   5.386  18.061  0.00  0.00    +0.000 A 
ATOM     15  H   UNL     1       5.600   2.534  19.798  0.00  0.00    +0.000 HD
ATOM     16  H   UNL     1       7.778   4.325  19.635  0.00  0.00    +0.000 HD
ENDROOT
BRANCH   1  20
ATOM     17  C   UNL     1       1.700   8.588  19.617  0.00  0.00    +0.000 A 
ATOM     18  C   UNL     1       2.047   7.418  20.300  0.00  0.00    +0.000 A 
ATOM     19  C   UNL     1       2.698   6.365  19.667  0.00  0.00    +0.000 A 
ATOM     20  C   UNL     1       3.069   6.449  18.318  0.00  0.00    +0.000 A 
ATOM     21  C   UNL     1       2.750   7.619  17.622  0.00  0.00    +0.000 A 
ATOM     22  C   UNL     1       2.072   8.664  18.266  0.00  0.00    +0.000 A 
BRANCH  17  23
ATOM     23  N   UNL     1       1.013   9.612  20.253  0.00  0.00    +0.000 N 
BRANCH  23  25
ATOM     24  C   UNL     1      -1.009  10.268  18.956  0.00  0.00    +0.000 C 
ATOM     25  C   UNL     1       0.370  10.666  19.465  0.00  0.00    +0.000 C 
ENDBRANCH  23  25
BRANCH  23  26
ATOM     26  C   UNL     1       0.988   9.695  21.716  0.00  0.00    +0.000 C 
ATOM     27  C   UNL     1      -0.349   9.224  22.277  0.00  0.00    +0.000 C 
ENDBRANCH  23  26
ENDBRANCH  17  23
ENDBRANCH   1  20
TORSDOF 4
ENDMDL
MODEL 2
REMARK VINA RESULT:      -8.5      0.127      1.235
REMARK  Name = 
REMARK  7 active torsions:
REMARK  status: ('A' for Active; 'I' for Inactive)
REMARK    1  A    between atoms: C_1  and  C_2
REMARK    2  A    between atoms: C_2  and  N_3
REMARK    3  A    between atoms: N_3  and  C_4
REMARK    4  A    between atoms: N_3  and  C_6
REMARK    5  A    between atoms: C_4  and  C_5
REMARK    6  A    between atoms: C_9  and  C_10
REMARK    7  A    between atoms: C_21  and  C_22
REMARK                            x       y       z     vdW  Elec       q    Type
REMARK                         _______ _______ _______ _____ _____    ______ ____
ROOT
ATOM      1  C   UNL     1       3.759   5.307  17.633  0.00  0.00    +0.000 C 
ATOM      2  C   UNL     1       3.182   4.003  18.108  0.00  0.00    +0.000 C 
ATOM      3  C   UNL     1       3.820   3.123  18.888  0.00  0.00    +0.000 C 
ATOM      4  C   UNL     1       2.924   2.000  19.233  0.00  0.00    +0.000 C 
ATOM      5  O   UNL     1       1.710   2.304  18.532  0.00  0.00    +0.000 OA
ATOM      6  C   UNL     1       1.856   3.477  17.849  0.00  0.00    +0.000 C 
ATOM      7  O   UNL     1       1.020   3.979  17.119  0.00  0.00    +0.000 OA
ATOM      8  N   UNL     1       5.128   3.305  19.312  0.00  0.00    +0.000 N 
ATOM      9  C   UNL     1       5.766   4.419  18.881  0.00  0.00    +0.000 A 
ATOM     10  N   UNL     1       7.036   4.816  19.152  0.00  0.00    +0.000 N 
ATOM     11  N   UNL     1       7.352   5.991  18.565  0.00  0.00    +0.000 NA
ATOM     12  C   UNL     1       6.231   6.355  17.919  0.00  0.00    +0.000 A 
ATOM     13  C   UNL     1       6.171   7.639  17.177  0.00  0.00    +0.000 C 
ATOM     14  C   UNL     1       5.203   5.397  18.084  0.00  0.00    +0.000 A 
ATOM     15  H   UNL     1       5.536   2.600  19.921  0.00  0.00    +0.000 HD
ATOM     16  H   UNL     1       7.737   4.359  19.722  0.00  0.00    +0.000 HD
ENDROOT
BRANCH   1  20
ATOM     17  C   UNL     1       1.713   8.692  19.494  0.00  0.00    +0.000 A 
ATOM     18  C   UNL     1       2.026   7.536  20.216  0.00  0.00    +0.000 A 
ATOM     19  C   UNL     1       2.671   6.454  19.626  0.00  0.00    +0.000 A 
ATOM     20  C   UNL     1       3.069   6.494  18.283  0.00  0.00    +0.000 A 
ATOM     21  C   UNL     1       2.784   7.649  17.548  0.00  0.00    +0.000 A 
ATOM     22  C   UNL     1       2.112   8.723  18.149  0.00  0.00    +0.000 A 
BRANCH  17  23
ATOM     23  N   UNL     1       1.031   9.744  20.087  0.00  0.00    +0.000 N 
BRANCH  23  25
ATOM     24  C   UNL     1      -0.323   9.072  22.066  0.00  0.00    +0.000 C 
ATOM     25  C   UNL     1       0.904   9.808  21.546  0.00  0.00    +0.000 C 
ENDBRANCH  23  25
BRANCH  23  26
ATOM     26  C   UNL     1       0.365  10.758  19.266  0.00  0.00    +0.000 C 
ATOM     27  C   UNL     1      -1.026  10.300  18.839  0.00  0.00    +0.000 C 
ENDBRANCH  23  26
ENDBRANCH  17  23
ENDBRANCH   1  20
TORSDOF 4
ENDMDL
MODEL 3
REMARK VINA RESULT:      -8.3      0.381      1.597
REMARK  Name = 
REMARK  7 active torsions:
REMARK  status: ('A' for Active; 'I' for Inactive)
REMARK    1  A    between atoms: C_1  and  C_2
REMARK    2  A    between atoms: C_2  and  N_3
REMARK    3  A    between atoms: N_3  and  C_4
REMARK    4  A    between atoms: N_3  and  C_6
REMARK    5  A    between atoms: C_4  and  C_5
REMARK    6  A    between atoms: C_9  and  C_10
REMARK    7  A    between atoms: C_21  and  C_22
REMARK                            x       y       z     vdW  Elec       q    Type
REMARK                         _______ _______ _______ _____ _____    ______ ____
ROOT
ATOM      1  C   UNL     1       3.708   5.270  17.627  0.00  0.00    +0.000 C 
ATOM      2  C   UNL     1       3.204   3.915  18.034  0.00  0.00    +0.000 C 
ATOM      3  C   UNL     1       3.906   3.014  18.732  0.00  0.00    +0.000 C 
ATOM      4  C   UNL     1       3.070   1.834  19.033  0.00  0.00    +0.000 C 
ATOM      5  O   UNL     1       1.820   2.128  18.396  0.00  0.00    +0.000 OA
ATOM      6  C   UNL     1       1.892   3.348  17.787  0.00  0.00    +0.000 C 
ATOM      7  O   UNL     1       1.010   3.860  17.120  0.00  0.00    +0.000 OA
ATOM      8  N   UNL     1       5.220   3.225  19.123  0.00  0.00    +0.000 N 
ATOM      9  C   UNL     1       5.795   4.392  18.745  0.00  0.00    +0.000 A 
ATOM     10  N   UNL     1       7.057   4.825  18.999  0.00  0.00    +0.000 N 
ATOM     11  N   UNL     1       7.303   6.048  18.480  0.00  0.00    +0.000 NA
ATOM     12  C   UNL     1       6.144   6.404  17.897  0.00  0.00    +0.000 A 
ATOM     13  C   UNL     1       6.004   7.730  17.245  0.00  0.00    +0.000 C 
ATOM     14  C   UNL     1       5.163   5.393  18.034  0.00  0.00    +0.000 A 
ATOM     15  H   UNL     1       5.679   2.501  19.669  0.00  0.00    +0.000 HD
ATOM     16  H   UNL     1       7.797   4.363  19.512  0.00  0.00    +0.000 HD
ENDROOT
BRANCH   1  20
ATOM     17  C   UNL     1       1.717   8.501  19.795  0.00  0.00    +0.000 A 
ATOM     18  C   UNL     1       2.006   8.602  18.430  0.00  0.00    +0.000 A 
ATOM     19  C   UNL     1       2.645   7.578  17.738  0.00  0.00    +0.000 A 
ATOM     20  C   UNL     1       2.995   6.381  18.378  0.00  0.00    +0.000 A 
ATOM     21  C   UNL     1       2.696   6.252  19.738  0.00  0.00    +0.000 A 
ATOM     22  C   UNL     1       2.073   7.301  20.429  0.00  0.00    +0.000 A 
BRANCH  17  23
ATOM     23  N   UNL     1       1.117   9.549  20.479  0.00  0.00    +0.000 N 
BRANCH  23  25
ATOM     24  C   UNL     1      -0.382   9.239  22.443  0.00  0.00    +0.000 C 
ATOM     25  C   UNL     1       1.028   9.517  21.941  0.00  0.00    +0.000 C 
ENDBRANCH  23  25
BRANCH  23  26
ATOM     26  C   UNL     1       0.496  10.656  19.748  0.00  0.00    +0.000 C 
ATOM     27  C   UNL     1       1.056  12.001  20.198  0.00  0.00    +0.000 C 
ENDBRANCH  23  26
ENDBRANCH  17  23
ENDBRANCH   1  20
TORSDOF 4
ENDMDL
MODEL 4
REMARK VINA RESULT:      -8.0      0.828      1.085
REMARK  Name = 
REMARK  7 active torsions:
REMARK  status: ('A' for Active; 'I' for Inactive)
REMARK    1  A    between atoms: C_1  and  C_2
REMARK    2  A    between atoms: C_2  and  N_3
REMARK    3  A    between atoms: N_3  and  C_4
REMARK    4  A    between atoms: N_3  and  C_6
REMARK    5  A    between atoms: C_4  and  C_5
REMARK    6  A    between atoms: C_9  and  C_10
REMARK    7  A    between atoms: C_21  and  C_22
REMARK                            x       y       z     vdW  Elec       q    Type
REMARK                         _______ _______ _______ _____ _____    ______ ____
ROOT
ATOM      1  C   UNL     1       3.744   5.339  17.684  0.00  0.00    +0.000 C 
ATOM      2  C   UNL     1       3.091   4.111  18.252  0.00  0.00    +0.000 C 
ATOM      3  C   UNL     1       3.642   3.304  19.166  0.00  0.00    +0.000 C 
ATOM      4  C   UNL     1       2.686   2.250  19.563  0.00  0.00    +0.000 C 
ATOM      5  O   UNL     1       1.534   2.509  18.749  0.00  0.00    +0.000 OA
ATOM      6  C   UNL     1       1.768   3.596  17.957  0.00  0.00    +0.000 C 
ATOM      7  O   UNL     1       1.002   4.038  17.118  0.00  0.00    +0.000 OA
ATOM      8  N   UNL     1       4.924   3.495  19.661  0.00  0.00    +0.000 N 
ATOM      9  C   UNL     1       5.629   4.538  19.161  0.00  0.00    +0.000 A 
ATOM     10  N   UNL     1       6.890   4.927  19.479  0.00  0.00    +0.000 N 
ATOM     11  N   UNL     1       7.287   6.022  18.794  0.00  0.00    +0.000 NA
ATOM     12  C   UNL     1       6.226   6.344  18.033  0.00  0.00    +0.000 A 
ATOM     13  C   UNL     1       6.262   7.541  17.156  0.00  0.00    +0.000 C 
ATOM     14  C   UNL     1       5.155   5.438  18.226  0.00  0.00    +0.000 A 
ATOM     15  H   UNL     1       5.264   2.850  20.369  0.00  0.00    +0.000 HD
ATOM     16  H   UNL     1       7.534   4.516  20.143  0.00  0.00    +0.000 HD
ENDROOT
BRANCH   1  20
ATOM     17  C   UNL     1       1.694   8.960  19.021  0.00  0.00    +0.000 A 
ATOM     18  C   UNL     1       1.940   7.893  19.891  0.00  0.00    +0.000 A 
ATOM     19  C   UNL     1       2.587   6.736  19.467  0.00  0.00    +0.000 A 
ATOM     20  C   UNL     1       3.053   6.608  18.152  0.00  0.00    +0.000 A 
ATOM     21  C   UNL     1       2.836   7.673  17.272  0.00  0.00    +0.000 A 
ATOM     22  C   UNL     1       2.162   8.823  17.706  0.00  0.00    +0.000 A 
BRANCH  17  23
ATOM     23  N   UNL     1       1.011  10.089  19.450  0.00  0.00    +0.000 N 
BRANCH  23  25
ATOM     24  C   UNL     1      -1.388  10.281  18.810  0.00  0.00    +0.000 C 
ATOM     25  C   UNL     1      -0.376   9.979  19.907  0.00  0.00    +0.000 C 
ENDBRANCH  23  25
BRANCH  23  26
ATOM     26  C   UNL     1       1.638  11.411  19.376  0.00  0.00    +0.000 C 
ATOM     27  C   UNL     1       1.208  12.295  20.542  0.00  0.00    +0.000 C 
ENDBRANCH  23  26
ENDBRANCH  17  23
ENDBRANCH   1  20
TORSDOF 4
ENDMDL
MODEL 5
REMARK VINA RESULT:      -8.0      0.874      1.282
REMARK  Name = 
REMARK  7 active torsions:
REMARK  status: ('A' for Active; 'I' for Inactive)
REMARK    1  A    between atoms: C_1  and  C_2
REMARK    2  A    between atoms: C_2  and  N_3
REMARK    3  A    between atoms: N_3  and  C_4
REMARK    4  A    between atoms: N_3  and  C_6
REMARK    5  A    between atoms: C_4  and  C_5
REMARK    6  A    between atoms: C_9  and  C_10
REMARK    7  A    between atoms: C_21  and  C_22
REMARK                            x       y       z     vdW  Elec       q    Type
REMARK                         _______ _______ _______ _____ _____    ______ ____
ROOT
ATOM      1  C   UNL     1       3.629   5.387  17.703  0.00  0.00    +0.000 C 
ATOM      2  C   UNL     1       2.975   4.159  18.268  0.00  0.00    +0.000 C 
ATOM      3  C   UNL     1       3.532   3.339  19.166  0.00  0.00    +0.000 C 
ATOM      4  C   UNL     1       2.573   2.289  19.566  0.00  0.00    +0.000 C 
ATOM      5  O   UNL     1       1.413   2.563  18.769  0.00  0.00    +0.000 OA
ATOM      6  C   UNL     1       1.644   3.656  17.984  0.00  0.00    +0.000 C 
ATOM      7  O   UNL     1       0.871   4.112  17.160  0.00  0.00    +0.000 OA
ATOM      8  N   UNL     1       4.821   3.516  19.647  0.00  0.00    +0.000 N 
ATOM      9  C   UNL     1       5.527   4.559  19.148  0.00  0.00    +0.000 A 
ATOM     10  N   UNL     1       6.795   4.936  19.453  0.00  0.00    +0.000 N 
ATOM     11  N   UNL     1       7.191   6.034  18.774  0.00  0.00    +0.000 NA
ATOM     12  C   UNL     1       6.123   6.371  18.030  0.00  0.00    +0.000 A 
ATOM     13  C   UNL     1       6.156   7.576  17.164  0.00  0.00    +0.000 C 
ATOM     14  C   UNL     1       5.049   5.471  18.227  0.00  0.00    +0.000 A 
ATOM     15  H   UNL     1       5.166   2.862  20.345  0.00  0.00    +0.000 HD
ATOM     16  H   UNL     1       7.445   4.514  20.104  0.00  0.00    +0.000 HD
ENDROOT
BRANCH   1  20
ATOM     17  C   UNL     1       1.624   9.010  19.103  0.00  0.00    +0.000 A 
ATOM     18  C   UNL     1       1.892   7.941  19.963  0.00  0.00    +0.000 A 
ATOM     19  C   UNL     1       2.524   6.783  19.520  0.00  0.00    +0.000 A 
ATOM     20  C   UNL     1       2.954   6.657  18.192  0.00  0.00    +0.000 A 
ATOM     21  C   UNL     1       2.715   7.724  17.320  0.00  0.00    +0.000 A 
ATOM     22  C   UNL     1       2.055   8.875  17.774  0.00  0.00    +0.000 A 
BRANCH  17  23
ATOM     23  N   UNL     1       0.955  10.139  19.552  0.00  0.00    +0.000 N 
BRANCH  23  25
ATOM     24  C   UNL     1       1.731  12.335  18.669  0.00  0.00    +0.000 C 
ATOM     25  C   UNL     1       1.700  11.367  19.844  0.00  0.00    +0.000 C 
ENDBRANCH  23  25
BRANCH  23  26
ATOM     26  C   UNL     1      -0.486  10.096  19.815  0.00  0.00    +0.000 C 
ATOM     27  C   UNL     1      -1.290  10.295  18.535  0.00  0.00    +0.000 C 
ENDBRANCH  23  26
ENDBRANCH  17  23
ENDBRANCH   1  20
TORSDOF 4
ENDMDL
MODEL 6
REMARK VINA RESULT:      -7.7      0.814      1.555
REMARK  Name = 
REMARK  7 active torsions:
REMARK  status: ('A' for Active; 'I' for Inactive)
REMARK    1  A    between atoms: C_1  and  C_2
REMARK    2  A    between atoms: C_2  and  N_3
REMARK    3  A    between atoms: N_3  and  C_4
REMARK    4  A    between atoms: N_3  and  C_6
REMARK    5  A    between atoms: C_4  and  C_5
REMARK    6  A    between atoms: C_9  and  C_10
REMARK    7  A    between atoms: C_21  and  C_22
REMARK                            x       y       z     vdW  Elec       q    Type
REMARK                         _______ _______ _______ _____ _____    ______ ____
ROOT
ATOM      1  C   UNL     1       3.683   5.299  17.713  0.00  0.00    +0.000 C 
ATOM      2  C   UNL     1       3.061   4.075  18.323  0.00  0.00    +0.000 C 
ATOM      3  C   UNL     1       3.639   3.304  19.252  0.00  0.00    +0.000 C 
ATOM      4  C   UNL     1       2.709   2.244  19.689  0.00  0.00    +0.000 C 
ATOM      5  O   UNL     1       1.543   2.456  18.881  0.00  0.00    +0.000 OA
ATOM      6  C   UNL     1       1.746   3.525  18.057  0.00  0.00    +0.000 C 
ATOM      7  O   UNL     1       0.962   3.929  17.215  0.00  0.00    +0.000 OA
ATOM      8  N   UNL     1       4.922   3.535  19.727  0.00  0.00    +0.000 N 
ATOM      9  C   UNL     1       5.600   4.578  19.190  0.00  0.00    +0.000 A 
ATOM     10  N   UNL     1       6.856   5.001  19.483  0.00  0.00    +0.000 N 
ATOM     11  N   UNL     1       7.223   6.084  18.763  0.00  0.00    +0.000 NA
ATOM     12  C   UNL     1       6.148   6.363  18.006  0.00  0.00    +0.000 A 
ATOM     13  C   UNL     1       6.150   7.536  17.097  0.00  0.00    +0.000 C 
ATOM     14  C   UNL     1       5.098   5.442  18.236  0.00  0.00    +0.000 A 
ATOM     15  H   UNL     1       5.283   2.917  20.448  0.00  0.00    +0.000 HD
ATOM     16  H   UNL     1       7.516   4.621  20.150  0.00  0.00    +0.000 HD
ENDROOT
BRANCH   1  20
ATOM     17  C   UNL     1       1.699   8.979  18.990  0.00  0.00    +0.000 A 
ATOM     18  C   UNL     1       2.109   8.788  17.667  0.00  0.00    +0.000 A 
ATOM     19  C   UNL     1       2.746   7.620  17.258  0.00  0.00    +0.000 A 
ATOM     20  C   UNL     1       2.972   6.567  18.154  0.00  0.00    +0.000 A 
ATOM     21  C   UNL     1       2.551   6.730  19.478  0.00  0.00    +0.000 A 
ATOM     22  C   UNL     1       1.932   7.921  19.882  0.00  0.00    +0.000 A 
BRANCH  17  23
ATOM     23  N   UNL     1       1.103  10.166  19.390  0.00  0.00    +0.000 N 
BRANCH  23  25
ATOM     24  C   UNL     1       1.473  12.445  20.325  0.00  0.00    +0.000 C 
ATOM     25  C   UNL     1       1.819  11.436  19.239  0.00  0.00    +0.000 C 
ENDBRANCH  23  25
BRANCH  23  26
ATOM     26  C   UNL     1      -0.211  10.158  20.037  0.00  0.00    +0.000 C 
ATOM     27  C   UNL     1      -1.333  10.340  19.020  0.00  0.00    +0.000 C 
ENDBRANCH  23  26
ENDBRANCH  17  23
ENDBRANCH   1  20
TORSDOF 4
ENDMDL
MODEL 7
REMARK VINA RESULT:      -7.5      2.473      3.969
REMARK  Name = 
REMARK  7 active torsions:
REMARK  status: ('A' for Active; 'I' for Inactive)
REMARK    1  A    between atoms: C_1  and  C_2
REMARK    2  A    between atoms: C_2  and  N_3
REMARK    3  A    between atoms: N_3  and  C_4
REMARK    4  A    between atoms: N_3  and  C_6
REMARK    5  A    between atoms: C_4  and  C_5
REMARK    6  A    between atoms: C_9  and  C_10
REMARK    7  A    between atoms: C_21  and  C_22
REMARK                            x       y       z     vdW  Elec       q    Type
REMARK                         _______ _______ _______ _____ _____    ______ ____
ROOT
ATOM      1  C   UNL     1       4.055   4.536  19.466  0.00  0.00    +0.000 C 
ATOM      2  C   UNL     1       5.272   4.584  18.586  0.00  0.00    +0.000 C 
ATOM      3  C   UNL     1       5.424   3.890  17.452  0.00  0.00    +0.000 C 
ATOM      4  C   UNL     1       6.701   4.249  16.800  0.00  0.00    +0.000 C 
ATOM      5  O   UNL     1       7.292   5.194  17.701  0.00  0.00    +0.000 OA
ATOM      6  C   UNL     1       6.465   5.387  18.770  0.00  0.00    +0.000 C 
ATOM      7  O   UNL     1       6.706   6.094  19.733  0.00  0.00    +0.000 OA
ATOM      8  N   UNL     1       4.471   2.998  16.983  0.00  0.00    +0.000 N 
ATOM      9  C   UNL     1       3.361   2.828  17.741  0.00  0.00    +0.000 A 
ATOM     10  N   UNL     1       2.298   2.018  17.500  0.00  0.00    +0.000 N 
ATOM     11  N   UNL     1       1.353   2.098  18.462  0.00  0.00    +0.000 NA
ATOM     12  C   UNL     1       1.832   3.009  19.328  0.00  0.00    +0.000 A 
ATOM     13  C   UNL     1       1.040   3.408  20.518  0.00  0.00    +0.000 C 
ATOM     14  C   UNL     1       3.096   3.497  18.919  0.00  0.00    +0.000 A 
ATOM     15  H   UNL     1       4.651   2.525  16.102  0.00  0.00    +0.000 HD
ATOM     16  H   UNL     1       2.137   1.396  16.719  0.00  0.00    +0.000 HD
ENDROOT
BRANCH   1  20
ATOM     17  C   UNL     1       1.773   8.262  19.336  0.00  0.00    +0.000 A 
ATOM     18  C   UNL     1       1.863   7.498  20.503  0.00  0.00    +0.000 A 
ATOM     19  C   UNL     1       2.583   6.308  20.547  0.00  0.00    +0.000 A 
ATOM     20  C   UNL     1       3.282   5.843  19.424  0.00  0.00    +0.000 A 
ATOM     21  C   UNL     1       3.222   6.604  18.253  0.00  0.00    +0.000 A 
ATOM     22  C   UNL     1       2.473   7.789  18.216  0.00  0.00    +0.000 A 
BRANCH  17  23
ATOM     23  N   UNL     1       1.016   9.424  19.299  0.00  0.00    +0.000 N 
BRANCH  23  25
ATOM     24  C   UNL     1       1.016  11.504  20.668  0.00  0.00    +0.000 C 
ATOM     25  C   UNL     1       0.573  10.053  20.546  0.00  0.00    +0.000 C 
ENDBRANCH  23  25
BRANCH  23  26
ATOM     26  C   UNL     1       0.584   9.991  18.019  0.00  0.00    +0.000 C 
ATOM     27  C   UNL     1      -0.937   9.999  17.900  0.00  0.00    +0.000 C 
ENDBRANCH  23  26
ENDBRANCH  17  23
ENDBRANCH   1  20
TORSDOF 4
ENDMDL
MODEL 8
REMARK VINA RESULT:      -7.5      2.475      3.829
REMARK  Name = 
REMARK  7 active torsions:
REMARK  status: ('A' for Active; 'I' for Inactive)
REMARK    1  A    between atoms: C_1  and  C_2
REMARK    2  A    between atoms: C_2  and  N_3
REMARK    3  A    between atoms: N_3  and  C_4
REMARK    4  A    between atoms: N_3  and  C_6
REMARK    5  A    between atoms: C_4  and  C_5
REMARK    6  A    between atoms: C_9  and  C_10
REMARK    7  A    between atoms: C_21  and  C_22
REMARK                            x       y       z     vdW  Elec       q    Type
REMARK                         _______ _______ _______ _____ _____    ______ ____
ROOT
ATOM      1  C   UNL     1       4.048   4.528  19.471  0.00  0.00    +0.000 C 
ATOM      2  C   UNL     1       5.261   4.577  18.586  0.00  0.00    +0.000 C 
ATOM      3  C   UNL     1       5.409   3.884  17.451  0.00  0.00    +0.000 C 
ATOM      4  C   UNL     1       6.682   4.243  16.793  0.00  0.00    +0.000 C 
ATOM      5  O   UNL     1       7.278   5.188  17.693  0.00  0.00    +0.000 OA
ATOM      6  C   UNL     1       6.455   5.380  18.766  0.00  0.00    +0.000 C 
ATOM      7  O   UNL     1       6.700   6.086  19.728  0.00  0.00    +0.000 OA
ATOM      8  N   UNL     1       4.453   2.993  16.985  0.00  0.00    +0.000 N 
ATOM      9  C   UNL     1       3.347   2.821  17.747  0.00  0.00    +0.000 A 
ATOM     10  N   UNL     1       2.283   2.011  17.511  0.00  0.00    +0.000 N 
ATOM     11  N   UNL     1       1.342   2.090  18.476  0.00  0.00    +0.000 NA
ATOM     12  C   UNL     1       1.825   3.000  19.341  0.00  0.00    +0.000 A 
ATOM     13  C   UNL     1       1.038   3.398  20.535  0.00  0.00    +0.000 C 
ATOM     14  C   UNL     1       3.087   3.489  18.927  0.00  0.00    +0.000 A 
ATOM     15  H   UNL     1       4.630   2.520  16.102  0.00  0.00    +0.000 HD
ATOM     16  H   UNL     1       2.118   1.390  16.729  0.00  0.00    +0.000 HD
ENDROOT
BRANCH   1  20
ATOM     17  C   UNL     1       1.765   8.254  19.354  0.00  0.00    +0.000 A 
ATOM     18  C   UNL     1       1.859   7.487  20.520  0.00  0.00    +0.000 A 
ATOM     19  C   UNL     1       2.579   6.297  20.559  0.00  0.00    +0.000 A 
ATOM     20  C   UNL     1       3.275   5.835  19.434  0.00  0.00    +0.000 A 
ATOM     21  C   UNL     1       3.211   6.598  18.264  0.00  0.00    +0.000 A 
ATOM     22  C   UNL     1       2.462   7.783  18.231  0.00  0.00    +0.000 A 
BRANCH  17  23
ATOM     23  N   UNL     1       1.008   9.416  19.321  0.00  0.00    +0.000 N 
BRANCH  23  25
ATOM     24  C   UNL     1      -0.944   9.969  17.876  0.00  0.00    +0.000 C 
ATOM     25  C   UNL     1       0.570   9.971  18.038  0.00  0.00    +0.000 C 
ENDBRANCH  23  25
BRANCH  23  26
ATOM     26  C   UNL     1       0.705  10.142  20.557  0.00  0.00    +0.000 C 
ATOM     27  C   UNL     1       1.077  11.616  20.439  0.00  0.00    +0.000 C 
ENDBRANCH  23  26
ENDBRANCH  17  23
ENDBRANCH   1  20
TORSDOF 4
ENDMDL
MODEL 9
REMARK VINA RESULT:      -7.4      2.532      4.016
REMARK  Name = 
REMARK  7 active torsions:
REMARK  status: ('A' for Active; 'I' for Inactive)
REMARK    1  A    between atoms: C_1  and  C_2
REMARK    2  A    between atoms: C_2  and  N_3
REMARK    3  A    between atoms: N_3  and  C_4
REMARK    4  A    between atoms: N_3  and  C_6
REMARK    5  A    between atoms: C_4  and  C_5
REMARK    6  A    between atoms: C_9  and  C_10
REMARK    7  A    between atoms: C_21  and  C_22
REMARK                            x       y       z     vdW  Elec       q    Type
REMARK                         _______ _______ _______ _____ _____    ______ ____
ROOT
ATOM      1  C   UNL     1       4.047   4.714  19.281  0.00  0.00    +0.000 C 
ATOM      2  C   UNL     1       5.238   4.665  18.367  0.00  0.00    +0.000 C 
ATOM      3  C   UNL     1       5.352   3.866  17.300  0.00  0.00    +0.000 C 
ATOM      4  C   UNL     1       6.611   4.148  16.581  0.00  0.00    +0.000 C 
ATOM      5  O   UNL     1       7.236   5.168  17.371  0.00  0.00    +0.000 OA
ATOM      6  C   UNL     1       6.442   5.470  18.440  0.00  0.00    +0.000 C 
ATOM      7  O   UNL     1       6.717   6.262  19.324  0.00  0.00    +0.000 OA
ATOM      8  N   UNL     1       4.379   2.944  16.945  0.00  0.00    +0.000 N 
ATOM      9  C   UNL     1       3.290   2.857  17.746  0.00  0.00    +0.000 A 
ATOM     10  N   UNL     1       2.215   2.039  17.614  0.00  0.00    +0.000 N 
ATOM     11  N   UNL     1       1.299   2.219  18.591  0.00  0.00    +0.000 NA
ATOM     12  C   UNL     1       1.810   3.202  19.352  0.00  0.00    +0.000 A 
ATOM     13  C   UNL     1       1.056   3.720  20.521  0.00  0.00    +0.000 C 
ATOM     14  C   UNL     1       3.065   3.637  18.863  0.00  0.00    +0.000 A 
ATOM     15  H   UNL     1       4.530   2.387  16.108  0.00  0.00    +0.000 HD
ATOM     16  H   UNL     1       2.026   1.347  16.900  0.00  0.00    +0.000 HD
ENDROOT
BRANCH   1  20
ATOM     17  C   UNL     1       1.910   8.505  18.881  0.00  0.00    +0.000 A 
ATOM     18  C   UNL     1       2.608   7.940  17.810  0.00  0.00    +0.000 A 
ATOM     19  C   UNL     1       3.295   6.737  17.935  0.00  0.00    +0.000 A 
ATOM     20  C   UNL     1       3.284   6.019  19.138  0.00  0.00    +0.000 A 
ATOM     21  C   UNL     1       2.573   6.556  20.216  0.00  0.00    +0.000 A 
ATOM     22  C   UNL     1       1.905   7.782  20.083  0.00  0.00    +0.000 A 
BRANCH  17  23
ATOM     23  N   UNL     1       1.265   9.727  18.751  0.00  0.00    +0.000 N 
BRANCH  23  25
ATOM     24  C   UNL     1       1.925  12.128  18.803  0.00  0.00    +0.000 C 
ATOM     25  C   UNL     1       1.908  10.822  18.020  0.00  0.00    +0.000 C 
ENDBRANCH  23  25
BRANCH  23  26
ATOM     26  C   UNL     1      -0.024   9.963  19.405  0.00  0.00    +0.000 C 
ATOM     27  C   UNL     1      -1.124  10.234  18.384  0.00  0.00    +0.000 C 
ENDBRANCH  23  26
ENDBRANCH  17  23
ENDBRANCH   1  20
TORSDOF 4
ENDMDL
