MODEL 1
REMARK VINA RESULT:      -7.4      0.000      0.000
REMARK  Name = 
REMARK  7 active torsions:
REMARK  status: ('A' for Active; 'I' for Inactive)
REMARK    1  A    between atoms: O_1  and  C_2
REMARK    2  A    between atoms: C_2  and  C_3
REMARK    3  A    between atoms: C_2  and  C_21
REMARK    4  A    between atoms: C_3  and  C_4
REMARK    5  A    between atoms: C_4  and  N_5
REMARK    6  A    between atoms: N_8  and  C_9
REMARK    7  A    between atoms: C_14  and  C_15
REMARK                            x       y       z     vdW  Elec       q    Type
REMARK                         _______ _______ _______ _____ _____    ______ ____
ROOT
ATOM      1  N   UNL     1       7.266   6.521  17.499  0.00  0.00    +0.000 NA
ATOM      2  C   UNL     1       7.028   5.192  18.095  0.00  0.00    +0.000 C 
ATOM      3  C   UNL     1       6.022   5.245  19.260  0.00  0.00    +0.000 C 
ATOM      4  N   UNL     1       4.691   5.582  18.729  0.00  0.00    +0.000 N 
ATOM      5  C   UNL     1       4.694   6.842  17.934  0.00  0.00    +0.000 C 
ATOM      6  C   UNL     1       5.956   7.040  17.031  0.00  0.00    +0.000 C 
ENDROOT
BRANCH   4   7
ATOM      7  C   UNL     1       3.795   4.545  18.462  0.00  0.00    +0.000 A 
ATOM      8  C   UNL     1       4.118   3.575  17.475  0.00  0.00    +0.000 A 
ATOM      9  C   UNL     1       3.335   2.454  17.197  0.00  0.00    +0.000 A 
ATOM     10  C   UNL     1       2.164   2.257  17.895  0.00  0.00    +0.000 A 
ATOM     11  C   UNL     1       1.799   3.185  18.865  0.00  0.00    +0.000 A 
ATOM     12  C   UNL     1       2.599   4.322  19.175  0.00  0.00    +0.000 A 
BRANCH  12  13
ATOM     13  C   UNL     1       2.063   5.154  20.319  0.00  0.00    +0.000 C 
ATOM     14  F   UNL     1       2.159   6.506  20.219  0.00  0.00    +0.000 F 
ATOM     15  F   UNL     1       0.737   4.901  20.538  0.00  0.00    +0.000 F 
ATOM     16  F   UNL     1       2.677   4.849  21.504  0.00  0.00    +0.000 F 
ENDBRANCH  12  13
ENDBRANCH   4   7
BRANCH   1  17
ATOM     17  C   UNL     1       7.959   7.451  18.412  0.00  0.00    +0.000 C 
BRANCH  17  18
ATOM     18  C   UNL     1       8.017   8.872  17.807  0.00  0.00    +0.000 C 
BRANCH  18  19
ATOM     19  C   UNL     1       9.125   9.769  18.363  0.00  0.00    +0.000 C 
BRANCH  19  20
ATOM     20  C   UNL     1       8.879  11.249  18.171  0.00  0.00    +0.000 A 
ATOM     21  C   UNL     1       7.810  11.722  17.395  0.00  0.00    +0.000 A 
ATOM     22  C   UNL     1       7.595  13.094  17.238  0.00  0.00    +0.000 A 
ATOM     23  C   UNL     1       8.449  13.994  17.858  0.00  0.00    +0.000 A 
ATOM     24  F   UNL     1       8.246  15.307  17.704  0.00  0.00    +0.000 F 
ATOM     25  C   UNL     1       9.509  13.554  18.642  0.00  0.00    +0.000 A 
ATOM     26  C   UNL     1       9.720  12.186  18.804  0.00  0.00    +0.000 A 
ENDBRANCH  19  20
BRANCH  19  27
ATOM     27  O   UNL     1       9.332   9.441  19.738  0.00  0.00    +0.000 OA
ATOM     28  H   UNL     1      10.189   9.821  19.996  0.00  0.00    +0.000 HD
ENDBRANCH  19  27
ENDBRANCH  18  19
ENDBRANCH  17  18
ENDBRANCH   1  17
TORSDOF 7
ENDMDL
MODEL 2
REMARK VINA RESULT:      -7.2      4.617      6.940
REMARK  Name = 
REMARK  7 active torsions:
REMARK  status: ('A' for Active; 'I' for Inactive)
REMARK    1  A    between atoms: O_1  and  C_2
REMARK    2  A    between atoms: C_2  and  C_3
REMARK    3  A    between atoms: C_2  and  C_21
REMARK    4  A    between atoms: C_3  and  C_4
REMARK    5  A    between atoms: C_4  and  N_5
REMARK    6  A    between atoms: N_8  and  C_9
REMARK    7  A    between atoms: C_14  and  C_15
REMARK                            x       y       z     vdW  Elec       q    Type
REMARK                         _______ _______ _______ _____ _____    ______ ____
ROOT
ATOM      1  N   UNL     1       3.664   2.026  19.059  0.00  0.00    +0.000 NA
ATOM      2  C   UNL     1       3.511   2.167  17.598  0.00  0.00    +0.000 C 
ATOM      3  C   UNL     1       3.380   3.639  17.162  0.00  0.00    +0.000 C 
ATOM      4  N   UNL     1       4.660   4.325  17.402  0.00  0.00    +0.000 N 
ATOM      5  C   UNL     1       5.123   4.199  18.811  0.00  0.00    +0.000 C 
ATOM      6  C   UNL     1       4.870   2.796  19.457  0.00  0.00    +0.000 C 
ENDROOT
BRANCH   4   7
ATOM      7  C   UNL     1       5.558   4.456  16.340  0.00  0.00    +0.000 A 
ATOM      8  C   UNL     1       5.393   3.654  15.179  0.00  0.00    +0.000 A 
ATOM      9  C   UNL     1       6.179   3.770  14.032  0.00  0.00    +0.000 A 
ATOM     10  C   UNL     1       7.194   4.700  14.000  0.00  0.00    +0.000 A 
ATOM     11  C   UNL     1       7.403   5.502  15.117  0.00  0.00    +0.000 A 
ATOM     12  C   UNL     1       6.595   5.410  16.287  0.00  0.00    +0.000 A 
BRANCH  12  13
ATOM     13  C   UNL     1       6.936   6.431  17.349  0.00  0.00    +0.000 C 
ATOM     14  F   UNL     1       7.389   5.974  18.545  0.00  0.00    +0.000 F 
ATOM     15  F   UNL     1       7.893   7.304  16.908  0.00  0.00    +0.000 F 
ATOM     16  F   UNL     1       5.862   7.220  17.662  0.00  0.00    +0.000 F 
ENDBRANCH  12  13
ENDBRANCH   4   7
BRANCH   1  17
ATOM     17  C   UNL     1       2.456   2.423  19.810  0.00  0.00    +0.000 C 
BRANCH  17  18
ATOM     18  C   UNL     1       2.738   3.665  20.685  0.00  0.00    +0.000 C 
BRANCH  18  19
ATOM     19  C   UNL     1       1.548   4.606  20.877  0.00  0.00    +0.000 C 
BRANCH  19  20
ATOM     20  C   UNL     1       1.716   5.960  20.222  0.00  0.00    +0.000 A 
ATOM     21  C   UNL     1       2.231   6.090  18.924  0.00  0.00    +0.000 A 
ATOM     22  C   UNL     1       2.370   7.349  18.335  0.00  0.00    +0.000 A 
ATOM     23  C   UNL     1       1.993   8.480  19.044  0.00  0.00    +0.000 A 
ATOM     24  F   UNL     1       2.129   9.685  18.482  0.00  0.00    +0.000 F 
ATOM     25  C   UNL     1       1.468   8.381  20.327  0.00  0.00    +0.000 A 
ATOM     26  C   UNL     1       1.324   7.124  20.913  0.00  0.00    +0.000 A 
ENDBRANCH  19  20
BRANCH  19  27
ATOM     27  O   UNL     1       0.364   3.945  20.428  0.00  0.00    +0.000 OA
ATOM     28  H   UNL     1       0.280   4.123  19.476  0.00  0.00    +0.000 HD
ENDBRANCH  19  27
ENDBRANCH  18  19
ENDBRANCH  17  18
ENDBRANCH   1  17
TORSDOF 7
ENDMDL
MODEL 3
REMARK VINA RESULT:      -7.1      4.860      6.732
REMARK  Name = 
REMARK  7 active torsions:
REMARK  status: ('A' for Active; 'I' for Inactive)
REMARK    1  A    between atoms: O_1  and  C_2
REMARK    2  A    between atoms: C_2  and  C_3
REMARK    3  A    between atoms: C_2  and  C_21
REMARK    4  A    between atoms: C_3  and  C_4
REMARK    5  A    between atoms: C_4  and  N_5
REMARK    6  A    between atoms: N_8  and  C_9
REMARK    7  A    between atoms: C_14  and  C_15
REMARK                            x       y       z     vdW  Elec       q    Type
REMARK                         _______ _______ _______ _____ _____    ______ ____
ROOT
ATOM      1  N   UNL     1       1.777   5.036  19.455  0.00  0.00    +0.000 NA
ATOM      2  C   UNL     1       2.576   5.956  18.622  0.00  0.00    +0.000 C 
ATOM      3  C   UNL     1       4.050   6.015  19.064  0.00  0.00    +0.000 C 
ATOM      4  N   UNL     1       4.687   4.718  18.781  0.00  0.00    +0.000 N 
ATOM      5  C   UNL     1       3.962   3.576  19.403  0.00  0.00    +0.000 C 
ATOM      6  C   UNL     1       2.403   3.692  19.360  0.00  0.00    +0.000 C 
ENDROOT
BRANCH   4   7
ATOM      7  C   UNL     1       5.412   4.574  17.596  0.00  0.00    +0.000 A 
ATOM      8  C   UNL     1       4.741   4.182  16.406  0.00  0.00    +0.000 A 
ATOM      9  C   UNL     1       5.354   4.096  15.156  0.00  0.00    +0.000 A 
ATOM     10  C   UNL     1       6.695   4.388  15.040  0.00  0.00    +0.000 A 
ATOM     11  C   UNL     1       7.400   4.766  16.178  0.00  0.00    +0.000 A 
ATOM     12  C   UNL     1       6.781   4.880  17.457  0.00  0.00    +0.000 A 
BRANCH  12  13
ATOM     13  C   UNL     1       7.706   5.388  18.541  0.00  0.00    +0.000 C 
ATOM     14  F   UNL     1       7.206   5.502  19.799  0.00  0.00    +0.000 F 
ATOM     15  F   UNL     1       8.813   4.594  18.662  0.00  0.00    +0.000 F 
ATOM     16  F   UNL     1       8.199   6.632  18.249  0.00  0.00    +0.000 F 
ENDBRANCH  12  13
ENDBRANCH   4   7
BRANCH   1  17
ATOM     17  C   UNL     1       1.623   5.500  20.848  0.00  0.00    +0.000 C 
BRANCH  17  18
ATOM     18  C   UNL     1       0.736   6.765  20.909  0.00  0.00    +0.000 C 
BRANCH  18  19
ATOM     19  C   UNL     1       1.499   8.091  20.904  0.00  0.00    +0.000 C 
BRANCH  19  20
ATOM     20  C   UNL     1       0.814   9.196  20.130  0.00  0.00    +0.000 A 
ATOM     21  C   UNL     1      -0.229   9.948  20.689  0.00  0.00    +0.000 A 
ATOM     22  C   UNL     1      -0.842  10.970  19.959  0.00  0.00    +0.000 A 
ATOM     23  C   UNL     1      -0.410  11.243  18.670  0.00  0.00    +0.000 A 
ATOM     24  F   UNL     1      -0.998  12.218  17.971  0.00  0.00    +0.000 F 
ATOM     25  C   UNL     1       0.630  10.522  18.095  0.00  0.00    +0.000 A 
ATOM     26  C   UNL     1       1.246   9.506  18.824  0.00  0.00    +0.000 A 
ENDBRANCH  19  20
BRANCH  19  27
ATOM     27  O   UNL     1       1.761   8.474  22.254  0.00  0.00    +0.000 OA
ATOM     28  H   UNL     1       0.922   8.795  22.629  0.00  0.00    +0.000 HD
ENDBRANCH  19  27
ENDBRANCH  18  19
ENDBRANCH  17  18
ENDBRANCH   1  17
TORSDOF 7
ENDMDL
MODEL 4
REMARK VINA RESULT:      -7.1      5.183      7.378
REMARK  Name = 
REMARK  7 active torsions:
REMARK  status: ('A' for Active; 'I' for Inactive)
REMARK    1  A    between atoms: O_1  and  C_2
REMARK    2  A    between atoms: C_2  and  C_3
REMARK    3  A    between atoms: C_2  and  C_21
REMARK    4  A    between atoms: C_3  and  C_4
REMARK    5  A    between atoms: C_4  and  N_5
REMARK    6  A    between atoms: N_8  and  C_9
REMARK    7  A    between atoms: C_14  and  C_15
REMARK                            x       y       z     vdW  Elec       q    Type
REMARK                         _______ _______ _______ _____ _____    ______ ____
ROOT
ATOM      1  N   UNL     1       6.416   6.073  16.879  0.00  0.00    +0.000 NA
ATOM      2  C   UNL     1       4.969   5.963  16.613  0.00  0.00    +0.000 C 
ATOM      3  C   UNL     1       4.438   4.536  16.843  0.00  0.00    +0.000 C 
ATOM      4  N   UNL     1       4.507   4.225  18.281  0.00  0.00    +0.000 N 
ATOM      5  C   UNL     1       5.874   4.412  18.842  0.00  0.00    +0.000 C 
ATOM      6  C   UNL     1       6.643   5.655  18.286  0.00  0.00    +0.000 C 
ENDROOT
BRANCH   4   7
ATOM      7  C   UNL     1       3.361   4.402  19.059  0.00  0.00    +0.000 A 
ATOM      8  C   UNL     1       3.160   5.629  19.745  0.00  0.00    +0.000 A 
ATOM      9  C   UNL     1       2.010   5.938  20.473  0.00  0.00    +0.000 A 
ATOM     10  C   UNL     1       0.998   5.009  20.562  0.00  0.00    +0.000 A 
ATOM     11  C   UNL     1       1.151   3.786  19.917  0.00  0.00    +0.000 A 
ATOM     12  C   UNL     1       2.310   3.466  19.151  0.00  0.00    +0.000 A 
BRANCH  12  13
ATOM     13  C   UNL     1       2.236   2.122  18.462  0.00  0.00    +0.000 C 
ATOM     14  F   UNL     1       2.310   2.100  17.105  0.00  0.00    +0.000 F 
ATOM     15  F   UNL     1       3.231   1.288  18.893  0.00  0.00    +0.000 F 
ATOM     16  F   UNL     1       1.074   1.460  18.757  0.00  0.00    +0.000 F 
ENDBRANCH  12  13
ENDBRANCH   4   7
BRANCH   1  17
ATOM     17  C   UNL     1       7.243   5.319  15.916  0.00  0.00    +0.000 C 
BRANCH  17  18
ATOM     18  C   UNL     1       6.707   5.498  14.477  0.00  0.00    +0.000 C 
BRANCH  18  19
ATOM     19  C   UNL     1       7.613   4.945  13.375  0.00  0.00    +0.000 C 
BRANCH  19  20
ATOM     20  C   UNL     1       7.015   3.788  12.605  0.00  0.00    +0.000 A 
ATOM     21  C   UNL     1       5.636   3.529  12.618  0.00  0.00    +0.000 A 
ATOM     22  C   UNL     1       5.104   2.461  11.892  0.00  0.00    +0.000 A 
ATOM     23  C   UNL     1       5.951   1.650  11.150  0.00  0.00    +0.000 A 
ATOM     24  F   UNL     1       5.442   0.626  10.458  0.00  0.00    +0.000 F 
ATOM     25  C   UNL     1       7.319   1.890  11.108  0.00  0.00    +0.000 A 
ATOM     26  C   UNL     1       7.850   2.960  11.828  0.00  0.00    +0.000 A 
ENDBRANCH  19  20
BRANCH  19  27
ATOM     27  O   UNL     1       7.991   6.017  12.511  0.00  0.00    +0.000 OA
ATOM     28  H   UNL     1       7.292   6.106  11.842  0.00  0.00    +0.000 HD
ENDBRANCH  19  27
ENDBRANCH  18  19
ENDBRANCH  17  18
ENDBRANCH   1  17
TORSDOF 7
ENDMDL
MODEL 5
REMARK VINA RESULT:      -7.0      5.037      6.988
REMARK  Name = 
REMARK  7 active torsions:
REMARK  status: ('A' for Active; 'I' for Inactive)
REMARK    1  A    between atoms: O_1  and  C_2
REMARK    2  A    between atoms: C_2  and  C_3
REMARK    3  A    between atoms: C_2  and  C_21
REMARK    4  A    between atoms: C_3  and  C_4
REMARK    5  A    between atoms: C_4  and  N_5
REMARK    6  A    between atoms: N_8  and  C_9
REMARK    7  A    between atoms: C_14  and  C_15
REMARK                            x       y       z     vdW  Elec       q    Type
REMARK                         _______ _______ _______ _____ _____    ______ ____
ROOT
ATOM      1  N   UNL     1       6.429   6.382  17.733  0.00  0.00    +0.000 NA
ATOM      2  C   UNL     1       5.013   6.330  17.321  0.00  0.00    +0.000 C 
ATOM      3  C   UNL     1       4.489   4.887  17.205  0.00  0.00    +0.000 C 
ATOM      4  N   UNL     1       4.437   4.285  18.547  0.00  0.00    +0.000 N 
ATOM      5  C   UNL     1       5.745   4.350  19.255  0.00  0.00    +0.000 C 
ATOM      6  C   UNL     1       6.538   5.682  19.038  0.00  0.00    +0.000 C 
ENDROOT
BRANCH   4   7
ATOM      7  C   UNL     1       3.224   4.298  19.239  0.00  0.00    +0.000 A 
ATOM      8  C   UNL     1       2.893   5.412  20.056  0.00  0.00    +0.000 A 
ATOM      9  C   UNL     1       1.672   5.562  20.715  0.00  0.00    +0.000 A 
ATOM     10  C   UNL     1       0.716   4.578  20.598  0.00  0.00    +0.000 A 
ATOM     11  C   UNL     1       0.996   3.461  19.817  0.00  0.00    +0.000 A 
ATOM     12  C   UNL     1       2.229   3.305  19.121  0.00  0.00    +0.000 A 
BRANCH  12  13
ATOM     13  C   UNL     1       2.294   2.062  18.262  0.00  0.00    +0.000 C 
ATOM     14  F   UNL     1       2.420   2.224  16.919  0.00  0.00    +0.000 F 
ATOM     15  F   UNL     1       3.340   1.259  18.630  0.00  0.00    +0.000 F 
ATOM     16  F   UNL     1       1.182   1.278  18.414  0.00  0.00    +0.000 F 
ENDBRANCH  12  13
ENDBRANCH   4   7
BRANCH   1  17
ATOM     17  C   UNL     1       7.349   5.843  16.713  0.00  0.00    +0.000 C 
BRANCH  17  18
ATOM     18  C   UNL     1       6.609   5.606  15.377  0.00  0.00    +0.000 C 
BRANCH  18  19
ATOM     19  C   UNL     1       7.411   4.847  14.318  0.00  0.00    +0.000 C 
BRANCH  19  20
ATOM     20  C   UNL     1       6.560   4.112  13.306  0.00  0.00    +0.000 A 
ATOM     21  C   UNL     1       7.133   3.402  12.240  0.00  0.00    +0.000 A 
ATOM     22  C   UNL     1       6.329   2.723  11.321  0.00  0.00    +0.000 A 
ATOM     23  C   UNL     1       4.950   2.752  11.468  0.00  0.00    +0.000 A 
ATOM     24  F   UNL     1       4.180   2.105  10.587  0.00  0.00    +0.000 F 
ATOM     25  C   UNL     1       4.355   3.436  12.521  0.00  0.00    +0.000 A 
ATOM     26  C   UNL     1       5.157   4.109  13.442  0.00  0.00    +0.000 A 
ENDBRANCH  19  20
BRANCH  19  27
ATOM     27  O   UNL     1       8.315   5.756  13.689  0.00  0.00    +0.000 OA
ATOM     28  H   UNL     1       8.068   5.802  12.750  0.00  0.00    +0.000 HD
ENDBRANCH  19  27
ENDBRANCH  18  19
ENDBRANCH  17  18
ENDBRANCH   1  17
TORSDOF 7
ENDMDL
MODEL 6
REMARK VINA RESULT:      -7.0      6.334      9.562
REMARK  Name = 
REMARK  7 active torsions:
REMARK  status: ('A' for Active; 'I' for Inactive)
REMARK    1  A    between atoms: O_1  and  C_2
REMARK    2  A    between atoms: C_2  and  C_3
REMARK    3  A    between atoms: C_2  and  C_21
REMARK    4  A    between atoms: C_3  and  C_4
REMARK    5  A    between atoms: C_4  and  N_5
REMARK    6  A    between atoms: N_8  and  C_9
REMARK    7  A    between atoms: C_14  and  C_15
REMARK                            x       y       z     vdW  Elec       q    Type
REMARK                         _______ _______ _______ _____ _____    ______ ____
ROOT
ATOM      1  N   UNL     1       1.135  10.486  18.243  0.00  0.00    +0.000 NA
ATOM      2  C   UNL     1      -0.248  10.009  18.440  0.00  0.00    +0.000 C 
ATOM      3  C   UNL     1      -0.626   9.906  19.929  0.00  0.00    +0.000 C 
ATOM      4  N   UNL     1      -0.687  11.261  20.503  0.00  0.00    +0.000 N 
ATOM      5  C   UNL     1       0.573  12.028  20.297  0.00  0.00    +0.000 C 
ATOM      6  C   UNL     1       1.245  11.814  18.901  0.00  0.00    +0.000 C 
ENDROOT
BRANCH   4   7
ATOM      7  C   UNL     1      -1.929  11.894  20.592  0.00  0.00    +0.000 A 
ATOM      8  C   UNL     1      -2.673  12.149  19.410  0.00  0.00    +0.000 A 
ATOM      9  C   UNL     1      -3.958  12.693  19.398  0.00  0.00    +0.000 A 
ATOM     10  C   UNL     1      -4.561  13.027  20.590  0.00  0.00    +0.000 A 
ATOM     11  C   UNL     1      -3.869  12.807  21.776  0.00  0.00    +0.000 A 
ATOM     12  C   UNL     1      -2.565  12.231  21.805  0.00  0.00    +0.000 A 
BRANCH  12  13
ATOM     13  C   UNL     1      -2.029  11.999  23.200  0.00  0.00    +0.000 C 
ATOM     14  F   UNL     1      -1.423  10.810  23.456  0.00  0.00    +0.000 F 
ATOM     15  F   UNL     1      -1.113  12.954  23.545  0.00  0.00    +0.000 F 
ATOM     16  F   UNL     1      -3.012  12.099  24.148  0.00  0.00    +0.000 F 
ENDBRANCH  12  13
ENDBRANCH   4   7
BRANCH   1  17
ATOM     17  C   UNL     1       2.152   9.526  18.713  0.00  0.00    +0.000 C 
BRANCH  17  18
ATOM     18  C   UNL     1       2.314   8.364  17.707  0.00  0.00    +0.000 C 
BRANCH  18  19
ATOM     19  C   UNL     1       3.231   7.230  18.169  0.00  0.00    +0.000 C 
BRANCH  19  20
ATOM     20  C   UNL     1       2.498   6.012  18.686  0.00  0.00    +0.000 A 
ATOM     21  C   UNL     1       2.141   4.953  17.837  0.00  0.00    +0.000 A 
ATOM     22  C   UNL     1       1.472   3.833  18.337  0.00  0.00    +0.000 A 
ATOM     23  C   UNL     1       1.159   3.770  19.687  0.00  0.00    +0.000 A 
ATOM     24  F   UNL     1       0.516   2.700  20.164  0.00  0.00    +0.000 F 
ATOM     25  C   UNL     1       1.511   4.798  20.553  0.00  0.00    +0.000 A 
ATOM     26  C   UNL     1       2.184   5.913  20.057  0.00  0.00    +0.000 A 
ENDBRANCH  19  20
BRANCH  19  27
ATOM     27  O   UNL     1       4.124   6.899  17.105  0.00  0.00    +0.000 OA
ATOM     28  H   UNL     1       3.706   7.195  16.278  0.00  0.00    +0.000 HD
ENDBRANCH  19  27
ENDBRANCH  18  19
ENDBRANCH  17  18
ENDBRANCH   1  17
TORSDOF 7
ENDMDL
MODEL 7
REMARK VINA RESULT:      -7.0      4.824      6.707
REMARK  Name = 
REMARK  7 active torsions:
REMARK  status: ('A' for Active; 'I' for Inactive)
REMARK    1  A    between atoms: O_1  and  C_2
REMARK    2  A    between atoms: C_2  and  C_3
REMARK    3  A    between atoms: C_2  and  C_21
REMARK    4  A    between atoms: C_3  and  C_4
REMARK    5  A    between atoms: C_4  and  N_5
REMARK    6  A    between atoms: N_8  and  C_9
REMARK    7  A    between atoms: C_14  and  C_15
REMARK                            x       y       z     vdW  Elec       q    Type
REMARK                         _______ _______ _______ _____ _____    ______ ____
ROOT
ATOM      1  N   UNL     1       1.764   5.202  19.425  0.00  0.00    +0.000 NA
ATOM      2  C   UNL     1       2.620   6.107  18.632  0.00  0.00    +0.000 C 
ATOM      3  C   UNL     1       4.088   6.082  19.097  0.00  0.00    +0.000 C 
ATOM      4  N   UNL     1       4.667   4.765  18.785  0.00  0.00    +0.000 N 
ATOM      5  C   UNL     1       3.878   3.641  19.361  0.00  0.00    +0.000 C 
ATOM      6  C   UNL     1       2.327   3.833  19.297  0.00  0.00    +0.000 C 
ENDROOT
BRANCH   4   7
ATOM      7  C   UNL     1       5.403   4.620  17.607  0.00  0.00    +0.000 A 
ATOM      8  C   UNL     1       4.747   4.215  16.414  0.00  0.00    +0.000 A 
ATOM      9  C   UNL     1       5.372   4.128  15.170  0.00  0.00    +0.000 A 
ATOM     10  C   UNL     1       6.711   4.432  15.064  0.00  0.00    +0.000 A 
ATOM     11  C   UNL     1       7.402   4.824  16.206  0.00  0.00    +0.000 A 
ATOM     12  C   UNL     1       6.771   4.939  17.479  0.00  0.00    +0.000 A 
BRANCH  12  13
ATOM     13  C   UNL     1       7.681   5.463  18.568  0.00  0.00    +0.000 C 
ATOM     14  F   UNL     1       8.182   6.718  18.426  0.00  0.00    +0.000 F 
ATOM     15  F   UNL     1       7.053   5.458  19.783  0.00  0.00    +0.000 F 
ATOM     16  F   UNL     1       8.782   4.667  18.740  0.00  0.00    +0.000 F 
ENDBRANCH  12  13
ENDBRANCH   4   7
BRANCH   1  17
ATOM     17  C   UNL     1       1.610   5.632  20.828  0.00  0.00    +0.000 C 
BRANCH  17  18
ATOM     18  C   UNL     1       0.724   6.895  20.920  0.00  0.00    +0.000 C 
BRANCH  18  19
ATOM     19  C   UNL     1       1.486   8.222  20.916  0.00  0.00    +0.000 C 
BRANCH  19  20
ATOM     20  C   UNL     1       0.785   9.337  20.171  0.00  0.00    +0.000 A 
ATOM     21  C   UNL     1       1.062   9.608  18.823  0.00  0.00    +0.000 A 
ATOM     22  C   UNL     1       0.396  10.637  18.151  0.00  0.00    +0.000 A 
ATOM     23  C   UNL     1      -0.549  11.394  18.827  0.00  0.00    +0.000 A 
ATOM     24  F   UNL     1      -1.184  12.380  18.186  0.00  0.00    +0.000 F 
ATOM     25  C   UNL     1      -0.853  11.139  20.159  0.00  0.00    +0.000 A 
ATOM     26  C   UNL     1      -0.193  10.110  20.828  0.00  0.00    +0.000 A 
ENDBRANCH  19  20
BRANCH  19  27
ATOM     27  O   UNL     1       1.777   8.588  22.265  0.00  0.00    +0.000 OA
ATOM     28  H   UNL     1       0.996   9.053  22.610  0.00  0.00    +0.000 HD
ENDBRANCH  19  27
ENDBRANCH  18  19
ENDBRANCH  17  18
ENDBRANCH   1  17
TORSDOF 7
ENDMDL
MODEL 8
REMARK VINA RESULT:      -6.9      4.464      6.656
REMARK  Name = 
REMARK  7 active torsions:
REMARK  status: ('A' for Active; 'I' for Inactive)
REMARK    1  A    between atoms: O_1  and  C_2
REMARK    2  A    between atoms: C_2  and  C_3
REMARK    3  A    between atoms: C_2  and  C_21
REMARK    4  A    between atoms: C_3  and  C_4
REMARK    5  A    between atoms: C_4  and  N_5
REMARK    6  A    between atoms: N_8  and  C_9
REMARK    7  A    between atoms: C_14  and  C_15
REMARK                            x       y       z     vdW  Elec       q    Type
REMARK                         _______ _______ _______ _____ _____    ______ ____
ROOT
ATOM      1  N   UNL     1       2.891   2.559  18.758  0.00  0.00    +0.000 NA
ATOM      2  C   UNL     1       2.771   3.149  17.411  0.00  0.00    +0.000 C 
ATOM      3  C   UNL     1       3.299   4.595  17.356  0.00  0.00    +0.000 C 
ATOM      4  N   UNL     1       4.758   4.580  17.553  0.00  0.00    +0.000 N 
ATOM      5  C   UNL     1       5.160   3.884  18.806  0.00  0.00    +0.000 C 
ATOM      6  C   UNL     1       4.326   2.603  19.137  0.00  0.00    +0.000 C 
ENDROOT
BRANCH   4   7
ATOM      7  C   UNL     1       5.585   4.606  16.427  0.00  0.00    +0.000 A 
ATOM      8  C   UNL     1       5.267   3.797  15.303  0.00  0.00    +0.000 A 
ATOM      9  C   UNL     1       5.975   3.817  14.101  0.00  0.00    +0.000 A 
ATOM     10  C   UNL     1       7.063   4.652  13.972  0.00  0.00    +0.000 A 
ATOM     11  C   UNL     1       7.421   5.457  15.048  0.00  0.00    +0.000 A 
ATOM     12  C   UNL     1       6.694   5.463  16.274  0.00  0.00    +0.000 A 
BRANCH  12  13
ATOM     13  C   UNL     1       7.199   6.473  17.280  0.00  0.00    +0.000 C 
ATOM     14  F   UNL     1       8.068   7.423  16.844  0.00  0.00    +0.000 F 
ATOM     15  F   UNL     1       6.165   7.164  17.852  0.00  0.00    +0.000 F 
ATOM     16  F   UNL     1       7.840   5.872  18.330  0.00  0.00    +0.000 F 
ENDBRANCH  12  13
ENDBRANCH   4   7
BRANCH   1  17
ATOM     17  C   UNL     1       2.014   3.204  19.755  0.00  0.00    +0.000 C 
BRANCH  17  18
ATOM     18  C   UNL     1       1.699   4.661  19.345  0.00  0.00    +0.000 C 
BRANCH  18  19
ATOM     19  C   UNL     1       2.431   5.733  20.154  0.00  0.00    +0.000 C 
BRANCH  19  20
ATOM     20  C   UNL     1       1.942   7.142  19.899  0.00  0.00    +0.000 A 
ATOM     21  C   UNL     1       1.241   7.866  20.876  0.00  0.00    +0.000 A 
ATOM     22  C   UNL     1       0.807   9.169  20.623  0.00  0.00    +0.000 A 
ATOM     23  C   UNL     1       1.074   9.752  19.393  0.00  0.00    +0.000 A 
ATOM     24  F   UNL     1       0.655  10.998  19.150  0.00  0.00    +0.000 F 
ATOM     25  C   UNL     1       1.776   9.064  18.411  0.00  0.00    +0.000 A 
ATOM     26  C   UNL     1       2.216   7.765  18.665  0.00  0.00    +0.000 A 
ENDBRANCH  19  20
BRANCH  19  27
ATOM     27  O   UNL     1       2.360   5.391  21.539  0.00  0.00    +0.000 OA
ATOM     28  H   UNL     1       3.273   5.266  21.849  0.00  0.00    +0.000 HD
ENDBRANCH  19  27
ENDBRANCH  18  19
ENDBRANCH  17  18
ENDBRANCH   1  17
TORSDOF 7
ENDMDL
MODEL 9
REMARK VINA RESULT:      -6.9      4.422      6.939
REMARK  Name = 
REMARK  7 active torsions:
REMARK  status: ('A' for Active; 'I' for Inactive)
REMARK    1  A    between atoms: O_1  and  C_2
REMARK    2  A    between atoms: C_2  and  C_3
REMARK    3  A    between atoms: C_2  and  C_21
REMARK    4  A    between atoms: C_3  and  C_4
REMARK    5  A    between atoms: C_4  and  N_5
REMARK    6  A    between atoms: N_8  and  C_9
REMARK    7  A    between atoms: C_14  and  C_15
REMARK                            x       y       z     vdW  Elec       q    Type
REMARK                         _______ _______ _______ _____ _____    ______ ____
ROOT
ATOM      1  N   UNL     1       2.137   4.990  19.515  0.00  0.00    +0.000 NA
ATOM      2  C   UNL     1       2.480   5.737  18.289  0.00  0.00    +0.000 C 
ATOM      3  C   UNL     1       3.836   6.457  18.402  0.00  0.00    +0.000 C 
ATOM      4  N   UNL     1       4.910   5.452  18.456  0.00  0.00    +0.000 N 
ATOM      5  C   UNL     1       4.711   4.459  19.548  0.00  0.00    +0.000 C 
ATOM      6  C   UNL     1       3.227   4.011  19.759  0.00  0.00    +0.000 C 
ENDROOT
BRANCH   4   7
ATOM      7  C   UNL     1       5.578   5.124  17.274  0.00  0.00    +0.000 A 
ATOM      8  C   UNL     1       5.079   4.079  16.452  0.00  0.00    +0.000 A 
ATOM      9  C   UNL     1       5.619   3.734  15.213  0.00  0.00    +0.000 A 
ATOM     10  C   UNL     1       6.714   4.421  14.738  0.00  0.00    +0.000 A 
ATOM     11  C   UNL     1       7.248   5.447  15.512  0.00  0.00    +0.000 A 
ATOM     12  C   UNL     1       6.693   5.825  16.769  0.00  0.00    +0.000 A 
BRANCH  12  13
ATOM     13  C   UNL     1       7.371   7.019  17.403  0.00  0.00    +0.000 C 
ATOM     14  F   UNL     1       7.977   6.839  18.606  0.00  0.00    +0.000 F 
ATOM     15  F   UNL     1       8.338   7.534  16.584  0.00  0.00    +0.000 F 
ATOM     16  F   UNL     1       6.498   8.053  17.606  0.00  0.00    +0.000 F 
ENDBRANCH  12  13
ENDBRANCH   4   7
BRANCH   1  17
ATOM     17  C   UNL     1       1.881   5.866  20.675  0.00  0.00    +0.000 C 
BRANCH  17  18
ATOM     18  C   UNL     1       0.971   7.050  20.277  0.00  0.00    +0.000 C 
BRANCH  18  19
ATOM     19  C   UNL     1       1.492   8.431  20.681  0.00  0.00    +0.000 C 
BRANCH  19  20
ATOM     20  C   UNL     1       0.579   9.574  20.296  0.00  0.00    +0.000 A 
ATOM     21  C   UNL     1      -0.022  10.394  21.262  0.00  0.00    +0.000 A 
ATOM     22  C   UNL     1      -0.854  11.450  20.884  0.00  0.00    +0.000 A 
ATOM     23  C   UNL     1      -1.085  11.689  19.537  0.00  0.00    +0.000 A 
ATOM     24  F   UNL     1      -1.884  12.698  19.175  0.00  0.00    +0.000 F 
ATOM     25  C   UNL     1      -0.493  10.902  18.557  0.00  0.00    +0.000 A 
ATOM     26  C   UNL     1       0.343   9.851  18.934  0.00  0.00    +0.000 A 
ENDBRANCH  19  20
BRANCH  19  27
ATOM     27  O   UNL     1       1.769   8.424  22.082  0.00  0.00    +0.000 OA
ATOM     28  H   UNL     1       1.118   9.009  22.506  0.00  0.00    +0.000 HD
ENDBRANCH  19  27
ENDBRANCH  18  19
ENDBRANCH  17  18
ENDBRANCH   1  17
TORSDOF 7
ENDMDL
