MODEL 1
REMARK VINA RESULT:      -7.5      0.000      0.000
REMARK  Name = 
REMARK  5 active torsions:
REMARK  status: ('A' for Active; 'I' for Inactive)
REMARK    1  A    between atoms: C_6  and  C_7
REMARK    2  A    between atoms: C_6  and  C_8
REMARK    3  A    between atoms: C_12  and  C_13
REMARK    4  A    between atoms: C_14  and  C_15
REMARK    5  A    between atoms: C_15  and  C_16
REMARK                            x       y       z     vdW  Elec       q    Type
REMARK                         _______ _______ _______ _____ _____    ______ ____
ROOT
ATOM      1  C   UNK A   2      -2.722  15.045  22.796  0.00  0.00    +0.000 C 
ATOM      2  C   UNK A   2      -2.037  13.799  23.269  0.00  0.00    +0.000 C 
ATOM      3  C   UNK A   2      -0.752  13.561  22.522  0.00  0.00    +0.000 C 
ATOM      4  C   UNK A   2      -0.727  12.023  22.349  0.00  0.00    +0.000 C 
ATOM      5  O   UNK A   2      -0.884  11.236  23.280  0.00  0.00    +0.000 OA
ATOM      6  N   PRO A   1      -0.556  11.623  21.051  0.00  0.00    +0.000 N 
ATOM      7  CD  PRO A   1      -0.524  10.237  20.660  0.00  0.00    +0.000 C 
ATOM      8  CG  PRO A   1      -0.029  10.240  19.224  0.00  0.00    +0.000 C 
ATOM      9  CB  PRO A   1       0.153  11.713  18.836  0.00  0.00    +0.000 C 
ATOM     10  CA  PRO A   1       0.168  12.494  20.144  0.00  0.00    +0.000 C 
ATOM     11  C   PRO A   1      -0.511  13.896  20.084  0.00  0.00    +0.000 C 
ATOM     12  O   PRO A   1      -0.629  14.540  19.045  0.00  0.00    +0.000 OA
ATOM     13  N   UNK A   2      -0.924  14.369  21.324  0.00  0.00    +0.000 N 
ATOM     14  C   UNK A   2      -1.913  15.436  21.498  0.00  0.00    +0.000 C 
ATOM     15  N   UNK A   2      -1.286  16.753  21.728  0.00  0.00    +0.000 N 
ATOM     16  C   UNK A   2      -1.606  17.107  23.063  0.00  0.00    +0.000 A 
ATOM     17  C   UNK A   2      -1.154  18.231  23.740  0.00  0.00    +0.000 A 
ATOM     18  C   UNK A   2      -1.296  18.281  25.134  0.00  0.00    +0.000 A 
ATOM     19  C   UNK A   2      -1.950  17.253  25.821  0.00  0.00    +0.000 A 
ATOM     20  C   UNK A   2      -2.546  16.230  25.106  0.00  0.00    +0.000 A 
ATOM     21  C   UNK A   2      -2.374  16.161  23.731  0.00  0.00    +0.000 A 
ATOM     22  H   UNK A   2      -1.687  17.463  21.113  0.00  0.00    +0.000 HD
ENDROOT
BRANCH   1  23
ATOM     23  C   UNK A   2      -4.208  14.870  22.387  0.00  0.00    +0.000 C 
BRANCH  23  37
ATOM     24  C   UNK A   2      -6.532  14.080  24.004  0.00  0.00    +0.000 C 
ATOM     25  C   UNK A   2      -6.202  13.363  22.909  0.00  0.00    +0.000 C 
ATOM     26  C   UNK A   2      -7.107  12.207  22.571  0.00  0.00    +0.000 C 
ATOM     27  C   UNK A   2      -7.431  12.141  21.080  0.00  0.00    +0.000 C 
ATOM     28  C   UNK A   2      -6.134  11.873  20.314  0.00  0.00    +0.000 C 
ATOM     29  C   UNK A   2      -6.277  11.241  18.860  0.00  0.00    +0.000 C 
ATOM     30  C   UNK A   2      -7.112   9.945  18.966  0.00  0.00    +0.000 C 
ATOM     31  C   UNK A   2      -6.965  12.077  17.754  0.00  0.00    +0.000 C 
ATOM     32  C   UNK A   2      -4.868  10.833  18.353  0.00  0.00    +0.000 C 
ATOM     33  C   UNK A   2      -3.798  11.892  18.560  0.00  0.00    +0.000 C 
ATOM     34  C   UNK A   2      -3.794  12.423  19.982  0.00  0.00    +0.000 C 
ATOM     35  C   UNK A   2      -5.116  13.069  20.472  0.00  0.00    +0.000 C 
ATOM     36  C   UNK A   2      -5.537  14.254  19.568  0.00  0.00    +0.000 C 
ATOM     37  C   UNK A   2      -4.908  13.504  22.042  0.00  0.00    +0.000 C 
ENDBRANCH  23  37
ENDBRANCH   1  23
TORSDOF 2
ENDMDL
MODEL 2
REMARK VINA RESULT:      -7.4      2.985      6.426
REMARK  Name = 
REMARK  5 active torsions:
REMARK  status: ('A' for Active; 'I' for Inactive)
REMARK    1  A    between atoms: C_6  and  C_7
REMARK    2  A    between atoms: C_6  and  C_8
REMARK    3  A    between atoms: C_12  and  C_13
REMARK    4  A    between atoms: C_14  and  C_15
REMARK    5  A    between atoms: C_15  and  C_16
REMARK                            x       y       z     vdW  Elec       q    Type
REMARK                         _______ _______ _______ _____ _____    ______ ____
ROOT
ATOM      1  C   UNK A   2      -1.805  13.139  21.447  0.00  0.00    +0.000 C 
ATOM      2  C   UNK A   2      -2.053  12.424  20.155  0.00  0.00    +0.000 C 
ATOM      3  C   UNK A   2      -1.745  10.955  20.272  0.00  0.00    +0.000 C 
ATOM      4  C   UNK A   2      -1.106  10.620  18.902  0.00  0.00    +0.000 C 
ATOM      5  O   UNK A   2      -1.624  10.910  17.825  0.00  0.00    +0.000 OA
ATOM      6  N   PRO A   1       0.115  10.010  19.005  0.00  0.00    +0.000 N 
ATOM      7  CD  PRO A   1       0.896   9.631  17.856  0.00  0.00    +0.000 C 
ATOM      8  CG  PRO A   1       2.001   8.742  18.401  0.00  0.00    +0.000 C 
ATOM      9  CB  PRO A   1       1.810   8.706  19.923  0.00  0.00    +0.000 C 
ATOM     10  CA  PRO A   1       0.395   9.209  20.182  0.00  0.00    +0.000 C 
ATOM     11  C   PRO A   1       0.225  10.066  21.473  0.00  0.00    +0.000 C 
ATOM     12  O   PRO A   1       0.977   9.980  22.439  0.00  0.00    +0.000 OA
ATOM     13  N   UNK A   2      -0.887  10.899  21.445  0.00  0.00    +0.000 N 
ATOM     14  C   UNK A   2      -1.052  12.062  22.322  0.00  0.00    +0.000 C 
ATOM     15  N   UNK A   2      -1.890  11.762  23.501  0.00  0.00    +0.000 N 
ATOM     16  C   UNK A   2      -3.079  12.515  23.334  0.00  0.00    +0.000 A 
ATOM     17  C   UNK A   2      -4.192  12.479  24.162  0.00  0.00    +0.000 A 
ATOM     18  C   UNK A   2      -5.395  13.032  23.701  0.00  0.00    +0.000 A 
ATOM     19  C   UNK A   2      -5.453  13.676  22.460  0.00  0.00    +0.000 A 
ATOM     20  C   UNK A   2      -4.292  13.854  21.731  0.00  0.00    +0.000 A 
ATOM     21  C   UNK A   2      -3.109  13.275  22.171  0.00  0.00    +0.000 A 
ATOM     22  H   UNK A   2      -1.440  12.077  24.361  0.00  0.00    +0.000 HD
ENDROOT
BRANCH   1  23
ATOM     23  C   UNK A   2      -0.889  14.386  21.350  0.00  0.00    +0.000 C 
BRANCH  23  37
ATOM     24  C   UNK A   2      -2.288  16.816  20.469  0.00  0.00    +0.000 C 
ATOM     25  C   UNK A   2      -1.171  16.415  19.826  0.00  0.00    +0.000 C 
ATOM     26  C   UNK A   2      -0.694  17.298  18.702  0.00  0.00    +0.000 C 
ATOM     27  C   UNK A   2       0.816  17.521  18.741  0.00  0.00    +0.000 C 
ATOM     28  C   UNK A   2       1.509  16.176  18.516  0.00  0.00    +0.000 C 
ATOM     29  C   UNK A   2       3.010  16.222  17.986  0.00  0.00    +0.000 C 
ATOM     30  C   UNK A   2       3.049  17.065  16.692  0.00  0.00    +0.000 C 
ATOM     31  C   UNK A   2       4.100  16.831  18.900  0.00  0.00    +0.000 C 
ATOM     32  C   UNK A   2       3.448  14.782  17.603  0.00  0.00    +0.000 C 
ATOM     33  C   UNK A   2       3.097  13.726  18.638  0.00  0.00    +0.000 C 
ATOM     34  C   UNK A   2       1.645  13.817  19.070  0.00  0.00    +0.000 C 
ATOM     35  C   UNK A   2       1.201  15.168  19.691  0.00  0.00    +0.000 C 
ATOM     36  C   UNK A   2       2.049  15.523  20.938  0.00  0.00    +0.000 C 
ATOM     37  C   UNK A   2      -0.405  15.065  20.016  0.00  0.00    +0.000 C 
ENDBRANCH  23  37
ENDBRANCH   1  23
TORSDOF 2
ENDMDL
MODEL 3
REMARK VINA RESULT:      -7.3      2.999      7.353
REMARK  Name = 
REMARK  5 active torsions:
REMARK  status: ('A' for Active; 'I' for Inactive)
REMARK    1  A    between atoms: C_6  and  C_7
REMARK    2  A    between atoms: C_6  and  C_8
REMARK    3  A    between atoms: C_12  and  C_13
REMARK    4  A    between atoms: C_14  and  C_15
REMARK    5  A    between atoms: C_15  and  C_16
REMARK                            x       y       z     vdW  Elec       q    Type
REMARK                         _______ _______ _______ _____ _____    ______ ____
ROOT
ATOM      1  C   UNK A   2      -1.856  13.300  21.133  0.00  0.00    +0.000 C 
ATOM      2  C   UNK A   2      -2.501  12.977  22.446  0.00  0.00    +0.000 C 
ATOM      3  C   UNK A   2      -3.894  12.441  22.257  0.00  0.00    +0.000 C 
ATOM      4  C   UNK A   2      -4.675  13.069  23.437  0.00  0.00    +0.000 C 
ATOM      5  O   UNK A   2      -4.299  13.004  24.607  0.00  0.00    +0.000 OA
ATOM      6  N   PRO A   1      -5.802  13.741  23.050  0.00  0.00    +0.000 N 
ATOM      7  CD  PRO A   1      -6.666  14.419  23.983  0.00  0.00    +0.000 C 
ATOM      8  CG  PRO A   1      -7.916  14.761  23.191  0.00  0.00    +0.000 C 
ATOM      9  CB  PRO A   1      -7.660  14.281  21.756  0.00  0.00    +0.000 C 
ATOM     10  CA  PRO A   1      -6.481  13.320  21.838  0.00  0.00    +0.000 C 
ATOM     11  C   PRO A   1      -5.503  13.371  20.625  0.00  0.00    +0.000 C 
ATOM     12  O   PRO A   1      -5.837  13.757  19.509  0.00  0.00    +0.000 OA
ATOM     13  N   UNK A   2      -4.231  12.891  20.915  0.00  0.00    +0.000 N 
ATOM     14  C   UNK A   2      -3.047  13.186  20.104  0.00  0.00    +0.000 C 
ATOM     15  N   UNK A   2      -2.730  12.101  19.153  0.00  0.00    +0.000 N 
ATOM     16  C   UNK A   2      -1.505  11.542  19.597  0.00  0.00    +0.000 A 
ATOM     17  C   UNK A   2      -0.868  10.437  19.052  0.00  0.00    +0.000 A 
ATOM     18  C   UNK A   2       0.157   9.820  19.785  0.00  0.00    +0.000 A 
ATOM     19  C   UNK A   2       0.581  10.355  21.006  0.00  0.00    +0.000 A 
ATOM     20  C   UNK A   2       0.052  11.556  21.442  0.00  0.00    +0.000 A 
ATOM     21  C   UNK A   2      -0.987  12.146  20.736  0.00  0.00    +0.000 A 
ATOM     22  H   UNK A   2      -2.583  12.468  18.212  0.00  0.00    +0.000 HD
ENDROOT
BRANCH   1  23
ATOM     23  C   UNK A   2      -1.270  14.731  21.016  0.00  0.00    +0.000 C 
BRANCH  23  37
ATOM     24  C   UNK A   2      -2.396  17.248  19.997  0.00  0.00    +0.000 C 
ATOM     25  C   UNK A   2      -1.262  16.753  19.458  0.00  0.00    +0.000 C 
ATOM     26  C   UNK A   2      -0.623  17.582  18.373  0.00  0.00    +0.000 C 
ATOM     27  C   UNK A   2       0.891  17.689  18.542  0.00  0.00    +0.000 C 
ATOM     28  C   UNK A   2       1.495  16.292  18.389  0.00  0.00    +0.000 C 
ATOM     29  C   UNK A   2       3.035  16.216  17.991  0.00  0.00    +0.000 C 
ATOM     30  C   UNK A   2       3.251  17.035  16.699  0.00  0.00    +0.000 C 
ATOM     31  C   UNK A   2       4.086  16.752  18.993  0.00  0.00    +0.000 C 
ATOM     32  C   UNK A   2       3.392  14.742  17.659  0.00  0.00    +0.000 C 
ATOM     33  C   UNK A   2       2.872  13.730  18.667  0.00  0.00    +0.000 C 
ATOM     34  C   UNK A   2       1.400  13.938  18.970  0.00  0.00    +0.000 C 
ATOM     35  C   UNK A   2       1.010  15.327  19.540  0.00  0.00    +0.000 C 
ATOM     36  C   UNK A   2       1.771  15.634  20.854  0.00  0.00    +0.000 C 
ATOM     37  C   UNK A   2      -0.622  15.352  19.725  0.00  0.00    +0.000 C 
ENDBRANCH  23  37
ENDBRANCH   1  23
TORSDOF 2
ENDMDL
MODEL 4
REMARK VINA RESULT:      -7.3      2.578      5.567
REMARK  Name = 
REMARK  5 active torsions:
REMARK  status: ('A' for Active; 'I' for Inactive)
REMARK    1  A    between atoms: C_6  and  C_7
REMARK    2  A    between atoms: C_6  and  C_8
REMARK    3  A    between atoms: C_12  and  C_13
REMARK    4  A    between atoms: C_14  and  C_15
REMARK    5  A    between atoms: C_15  and  C_16
REMARK                            x       y       z     vdW  Elec       q    Type
REMARK                         _______ _______ _______ _____ _____    ______ ____
ROOT
ATOM      1  C   UNK A   2      -0.798  13.561  19.829  0.00  0.00    +0.000 C 
ATOM      2  C   UNK A   2      -0.258  14.584  18.877  0.00  0.00    +0.000 C 
ATOM      3  C   UNK A   2       1.246  14.638  18.925  0.00  0.00    +0.000 C 
ATOM      4  C   UNK A   2       1.548  16.148  18.776  0.00  0.00    +0.000 C 
ATOM      5  O   UNK A   2       1.079  16.846  17.878  0.00  0.00    +0.000 OA
ATOM      6  N   PRO A   1       2.354  16.644  19.765  0.00  0.00    +0.000 N 
ATOM      7  CD  PRO A   1       2.743  18.029  19.833  0.00  0.00    +0.000 C 
ATOM      8  CG  PRO A   1       3.845  18.082  20.877  0.00  0.00    +0.000 C 
ATOM      9  CB  PRO A   1       3.994  16.653  21.416  0.00  0.00    +0.000 C 
ATOM     10  CA  PRO A   1       3.297  15.748  20.408  0.00  0.00    +0.000 C 
ATOM     11  C   PRO A   1       2.549  14.527  21.024  0.00  0.00    +0.000 C 
ATOM     12  O   PRO A   1       2.845  14.036  22.109  0.00  0.00    +0.000 OA
ATOM     13  N   UNK A   2       1.549  14.015  20.205  0.00  0.00    +0.000 N 
ATOM     14  C   UNK A   2       0.463  13.158  20.688  0.00  0.00    +0.000 C 
ATOM     15  N   UNK A   2       0.734  11.724  20.459  0.00  0.00    +0.000 N 
ATOM     16  C   UNK A   2      -0.212  11.300  19.493  0.00  0.00    +0.000 A 
ATOM     17  C   UNK A   2      -0.278  10.041  18.911  0.00  0.00    +0.000 A 
ATOM     18  C   UNK A   2      -1.057   9.870  17.758  0.00  0.00    +0.000 A 
ATOM     19  C   UNK A   2      -1.817  10.929  17.249  0.00  0.00    +0.000 A 
ATOM     20  C   UNK A   2      -1.873  12.122  17.945  0.00  0.00    +0.000 A 
ATOM     21  C   UNK A   2      -1.073  12.303  19.065  0.00  0.00    +0.000 A 
ATOM     22  H   UNK A   2       0.578  11.181  21.308  0.00  0.00    +0.000 HD
ENDROOT
BRANCH   1  23
ATOM     23  C   UNK A   2      -1.886  14.075  20.807  0.00  0.00    +0.000 C 
BRANCH  23  37
ATOM     24  C   UNK A   2      -1.724  13.590  23.702  0.00  0.00    +0.000 C 
ATOM     25  C   UNK A   2      -2.821  13.205  23.018  0.00  0.00    +0.000 C 
ATOM     26  C   UNK A   2      -3.927  12.578  23.828  0.00  0.00    +0.000 C 
ATOM     27  C   UNK A   2      -5.304  13.112  23.439  0.00  0.00    +0.000 C 
ATOM     28  C   UNK A   2      -5.589  12.708  21.992  0.00  0.00    +0.000 C 
ATOM     29  C   UNK A   2      -7.117  12.667  21.546  0.00  0.00    +0.000 C 
ATOM     30  C   UNK A   2      -7.889  11.748  22.518  0.00  0.00    +0.000 C 
ATOM     31  C   UNK A   2      -7.915  13.992  21.519  0.00  0.00    +0.000 C 
ATOM     32  C   UNK A   2      -7.208  12.018  20.138  0.00  0.00    +0.000 C 
ATOM     33  C   UNK A   2      -6.194  12.549  19.138  0.00  0.00    +0.000 C 
ATOM     34  C   UNK A   2      -4.787  12.554  19.707  0.00  0.00    +0.000 C 
ATOM     35  C   UNK A   2      -4.575  13.393  20.995  0.00  0.00    +0.000 C 
ATOM     36  C   UNK A   2      -4.960  14.877  20.774  0.00  0.00    +0.000 C 
ATOM     37  C   UNK A   2      -3.014  13.199  21.466  0.00  0.00    +0.000 C 
ENDBRANCH  23  37
ENDBRANCH   1  23
TORSDOF 2
ENDMDL
MODEL 5
REMARK VINA RESULT:      -7.0      8.890     11.507
REMARK  Name = 
REMARK  5 active torsions:
REMARK  status: ('A' for Active; 'I' for Inactive)
REMARK    1  A    between atoms: C_6  and  C_7
REMARK    2  A    between atoms: C_6  and  C_8
REMARK    3  A    between atoms: C_12  and  C_13
REMARK    4  A    between atoms: C_14  and  C_15
REMARK    5  A    between atoms: C_15  and  C_16
REMARK                            x       y       z     vdW  Elec       q    Type
REMARK                         _______ _______ _______ _____ _____    ______ ____
ROOT
ATOM      1  C   UNK A   2       9.299  15.584  19.637  0.00  0.00    +0.000 C 
ATOM      2  C   UNK A   2      10.209  14.484  20.090  0.00  0.00    +0.000 C 
ATOM      3  C   UNK A   2      10.431  13.470  19.000  0.00  0.00    +0.000 C 
ATOM      4  C   UNK A   2      10.458  12.128  19.769  0.00  0.00    +0.000 C 
ATOM      5  O   UNK A   2      11.170  11.926  20.752  0.00  0.00    +0.000 OA
ATOM      6  N   PRO A   1       9.582  11.198  19.277  0.00  0.00    +0.000 N 
ATOM      7  CD  PRO A   1       9.428   9.888  19.856  0.00  0.00    +0.000 C 
ATOM      8  CG  PRO A   1       8.602   9.104  18.850  0.00  0.00    +0.000 C 
ATOM      9  CB  PRO A   1       8.267  10.081  17.716  0.00  0.00    +0.000 C 
ATOM     10  CA  PRO A   1       9.228  11.252  17.871  0.00  0.00    +0.000 C 
ATOM     11  C   PRO A   1       8.631  12.648  17.516  0.00  0.00    +0.000 C 
ATOM     12  O   PRO A   1       7.681  12.797  16.754  0.00  0.00    +0.000 OA
ATOM     13  N   UNK A   2       9.307  13.709  18.107  0.00  0.00    +0.000 N 
ATOM     14  C   UNK A   2       8.736  15.050  18.263  0.00  0.00    +0.000 C 
ATOM     15  N   UNK A   2       9.173  15.975  17.198  0.00  0.00    +0.000 N 
ATOM     16  C   UNK A   2       9.993  16.940  17.835  0.00  0.00    +0.000 A 
ATOM     17  C   UNK A   2      10.693  17.960  17.206  0.00  0.00    +0.000 A 
ATOM     18  C   UNK A   2      11.697  18.630  17.920  0.00  0.00    +0.000 A 
ATOM     19  C   UNK A   2      11.935  18.329  19.265  0.00  0.00    +0.000 A 
ATOM     20  C   UNK A   2      11.108  17.434  19.919  0.00  0.00    +0.000 A 
ATOM     21  C   UNK A   2      10.139  16.745  19.203  0.00  0.00    +0.000 A 
ATOM     22  H   UNK A   2       8.377  16.464  16.787  0.00  0.00    +0.000 HD
ENDROOT
BRANCH   1  23
ATOM     23  C   UNK A   2       8.087  15.864  20.563  0.00  0.00    +0.000 C 
BRANCH  23  37
ATOM     24  C   UNK A   2       7.610  14.559  23.153  0.00  0.00    +0.000 C 
ATOM     25  C   UNK A   2       6.668  14.500  22.189  0.00  0.00    +0.000 C 
ATOM     26  C   UNK A   2       5.391  13.784  22.546  0.00  0.00    +0.000 C 
ATOM     27  C   UNK A   2       4.151  14.543  22.080  0.00  0.00    +0.000 C 
ATOM     28  C   UNK A   2       4.164  14.600  20.552  0.00  0.00    +0.000 C 
ATOM     29  C   UNK A   2       2.766  14.844  19.831  0.00  0.00    +0.000 C 
ATOM     30  C   UNK A   2       1.767  13.770  20.316  0.00  0.00    +0.000 C 
ATOM     31  C   UNK A   2       2.046  16.196  20.050  0.00  0.00    +0.000 C 
ATOM     32  C   UNK A   2       2.950  14.637  18.303  0.00  0.00    +0.000 C 
ATOM     33  C   UNK A   2       4.174  15.324  17.721  0.00  0.00    +0.000 C 
ATOM     34  C   UNK A   2       5.426  15.024  18.523  0.00  0.00    +0.000 C 
ATOM     35  C   UNK A   2       5.394  15.434  20.019  0.00  0.00    +0.000 C 
ATOM     36  C   UNK A   2       5.125  16.951  20.185  0.00  0.00    +0.000 C 
ATOM     37  C   UNK A   2       6.810  14.956  20.700  0.00  0.00    +0.000 C 
ENDBRANCH  23  37
ENDBRANCH   1  23
TORSDOF 2
ENDMDL
MODEL 6
REMARK VINA RESULT:      -6.8      1.634      6.098
REMARK  Name = 
REMARK  5 active torsions:
REMARK  status: ('A' for Active; 'I' for Inactive)
REMARK    1  A    between atoms: C_6  and  C_7
REMARK    2  A    between atoms: C_6  and  C_8
REMARK    3  A    between atoms: C_12  and  C_13
REMARK    4  A    between atoms: C_14  and  C_15
REMARK    5  A    between atoms: C_15  and  C_16
REMARK                            x       y       z     vdW  Elec       q    Type
REMARK                         _______ _______ _______ _____ _____    ______ ____
ROOT
ATOM      1  C   UNK A   2      -0.996  11.073  19.430  0.00  0.00    +0.000 C 
ATOM      2  C   UNK A   2      -0.444  12.395  18.993  0.00  0.00    +0.000 C 
ATOM      3  C   UNK A   2       0.194  13.131  20.142  0.00  0.00    +0.000 C 
ATOM      4  C   UNK A   2      -0.195  14.604  19.874  0.00  0.00    +0.000 C 
ATOM      5  O   UNK A   2      -0.014  15.166  18.795  0.00  0.00    +0.000 OA
ATOM      6  N   PRO A   1      -0.801  15.211  20.941  0.00  0.00    +0.000 N 
ATOM      7  CD  PRO A   1      -1.264  16.575  20.903  0.00  0.00    +0.000 C 
ATOM      8  CG  PRO A   1      -1.586  16.926  22.345  0.00  0.00    +0.000 C 
ATOM      9  CB  PRO A   1      -1.325  15.655  23.165  0.00  0.00    +0.000 C 
ATOM     10  CA  PRO A   1      -0.480  14.749  22.279  0.00  0.00    +0.000 C 
ATOM     11  C   PRO A   1      -0.783  13.226  22.411  0.00  0.00    +0.000 C 
ATOM     12  O   PRO A   1      -1.278  12.725  23.417  0.00  0.00    +0.000 OA
ATOM     13  N   UNK A   2      -0.393  12.481  21.304  0.00  0.00    +0.000 N 
ATOM     14  C   UNK A   2      -0.905  11.142  21.005  0.00  0.00    +0.000 C 
ATOM     15  N   UNK A   2       0.011  10.075  21.458  0.00  0.00    +0.000 N 
ATOM     16  C   UNK A   2       0.502   9.459  20.279  0.00  0.00    +0.000 A 
ATOM     17  C   UNK A   2       1.461   8.457  20.220  0.00  0.00    +0.000 A 
ATOM     18  C   UNK A   2       2.067   8.175  18.987  0.00  0.00    +0.000 A 
ATOM     19  C   UNK A   2       1.658   8.837  17.825  0.00  0.00    +0.000 A 
ATOM     20  C   UNK A   2       0.582   9.703  17.878  0.00  0.00    +0.000 A 
ATOM     21  C   UNK A   2       0.007  10.010  19.103  0.00  0.00    +0.000 A 
ATOM     22  H   UNK A   2      -0.489   9.365  21.995  0.00  0.00    +0.000 HD
ENDROOT
BRANCH   1  23
ATOM     23  C   UNK A   2      -2.480  10.819  19.058  0.00  0.00    +0.000 C 
BRANCH  23  37
ATOM     24  C   UNK A   2      -3.709  10.438  16.415  0.00  0.00    +0.000 C 
ATOM     25  C   UNK A   2      -4.145  11.428  17.220  0.00  0.00    +0.000 C 
ATOM     26  C   UNK A   2      -5.292  12.256  16.700  0.00  0.00    +0.000 C 
ATOM     27  C   UNK A   2      -6.355  12.508  17.766  0.00  0.00    +0.000 C 
ATOM     28  C   UNK A   2      -5.731  13.345  18.884  0.00  0.00    +0.000 C 
ATOM     29  C   UNK A   2      -6.733  14.172  19.805  0.00  0.00    +0.000 C 
ATOM     30  C   UNK A   2      -7.614  15.062  18.900  0.00  0.00    +0.000 C 
ATOM     31  C   UNK A   2      -7.727  13.395  20.702  0.00  0.00    +0.000 C 
ATOM     32  C   UNK A   2      -5.906  15.123  20.711  0.00  0.00    +0.000 C 
ATOM     33  C   UNK A   2      -4.710  14.467  21.380  0.00  0.00    +0.000 C 
ATOM     34  C   UNK A   2      -3.860  13.694  20.389  0.00  0.00    +0.000 C 
ATOM     35  C   UNK A   2      -4.578  12.555  19.617  0.00  0.00    +0.000 C 
ATOM     36  C   UNK A   2      -5.179  11.506  20.586  0.00  0.00    +0.000 C 
ATOM     37  C   UNK A   2      -3.500  11.909  18.561  0.00  0.00    +0.000 C 
ENDBRANCH  23  37
ENDBRANCH   1  23
TORSDOF 2
ENDMDL
MODEL 7
REMARK VINA RESULT:      -6.8      2.714      6.060
REMARK  Name = 
REMARK  5 active torsions:
REMARK  status: ('A' for Active; 'I' for Inactive)
REMARK    1  A    between atoms: C_6  and  C_7
REMARK    2  A    between atoms: C_6  and  C_8
REMARK    3  A    between atoms: C_12  and  C_13
REMARK    4  A    between atoms: C_14  and  C_15
REMARK    5  A    between atoms: C_15  and  C_16
REMARK                            x       y       z     vdW  Elec       q    Type
REMARK                         _______ _______ _______ _____ _____    ______ ____
ROOT
ATOM      1  C   UNK A   2      -2.895  15.420  21.366  0.00  0.00    +0.000 C 
ATOM      2  C   UNK A   2      -3.308  14.361  20.390  0.00  0.00    +0.000 C 
ATOM      3  C   UNK A   2      -3.062  12.981  20.939  0.00  0.00    +0.000 C 
ATOM      4  C   UNK A   2      -2.583  12.190  19.699  0.00  0.00    +0.000 C 
ATOM      5  O   UNK A   2      -3.194  12.171  18.631  0.00  0.00    +0.000 OA
ATOM      6  N   PRO A   1      -1.390  11.547  19.889  0.00  0.00    +0.000 N 
ATOM      7  CD  PRO A   1      -0.749  10.770  18.859  0.00  0.00    +0.000 C 
ATOM      8  CG  PRO A   1       0.360  10.010  19.566  0.00  0.00    +0.000 C 
ATOM      9  CB  PRO A   1       0.323  10.462  21.032  0.00  0.00    +0.000 C 
ATOM     10  CA  PRO A   1      -1.031  11.130  21.232  0.00  0.00    +0.000 C 
ATOM     11  C   PRO A   1      -1.026  12.356  22.196  0.00  0.00    +0.000 C 
ATOM     12  O   PRO A   1      -0.185  12.515  23.075  0.00  0.00    +0.000 OA
ATOM     13  N   UNK A   2      -2.093  13.225  21.997  0.00  0.00    +0.000 N 
ATOM     14  C   UNK A   2      -2.111  14.611  22.472  0.00  0.00    +0.000 C 
ATOM     15  N   UNK A   2      -2.838  14.758  23.750  0.00  0.00    +0.000 N 
ATOM     16  C   UNK A   2      -3.999  15.513  23.450  0.00  0.00    +0.000 A 
ATOM     17  C   UNK A   2      -5.022  15.824  24.335  0.00  0.00    +0.000 A 
ATOM     18  C   UNK A   2      -6.238  16.299  23.822  0.00  0.00    +0.000 A 
ATOM     19  C   UNK A   2      -6.389  16.530  22.450  0.00  0.00    +0.000 A 
ATOM     20  C   UNK A   2      -5.301  16.381  21.611  0.00  0.00    +0.000 A 
ATOM     21  C   UNK A   2      -4.110  15.875  22.113  0.00  0.00    +0.000 A 
ATOM     22  H   UNK A   2      -2.287  15.287  24.427  0.00  0.00    +0.000 HD
ENDROOT
BRANCH   1  23
ATOM     23  C   UNK A   2      -1.933  16.499  20.806  0.00  0.00    +0.000 C 
BRANCH  23  37
ATOM     24  C   UNK A   2      -2.192  18.448  18.621  0.00  0.00    +0.000 C 
ATOM     25  C   UNK A   2      -1.184  17.552  18.604  0.00  0.00    +0.000 C 
ATOM     26  C   UNK A   2      -0.218  17.656  17.452  0.00  0.00    +0.000 C 
ATOM     27  C   UNK A   2       1.236  17.529  17.901  0.00  0.00    +0.000 C 
ATOM     28  C   UNK A   2       1.445  16.126  18.474  0.00  0.00    +0.000 C 
ATOM     29  C   UNK A   2       2.940  15.578  18.504  0.00  0.00    +0.000 C 
ATOM     30  C   UNK A   2       3.524  15.663  17.076  0.00  0.00    +0.000 C 
ATOM     31  C   UNK A   2       3.972  16.293  19.408  0.00  0.00    +0.000 C 
ATOM     32  C   UNK A   2       2.912  14.076  18.894  0.00  0.00    +0.000 C 
ATOM     33  C   UNK A   2       2.019  13.754  20.080  0.00  0.00    +0.000 C 
ATOM     34  C   UNK A   2       0.636  14.360  19.929  0.00  0.00    +0.000 C 
ATOM     35  C   UNK A   2       0.580  15.903  19.776  0.00  0.00    +0.000 C 
ATOM     36  C   UNK A   2       1.237  16.616  20.984  0.00  0.00    +0.000 C 
ATOM     37  C   UNK A   2      -0.991  16.328  19.558  0.00  0.00    +0.000 C 
ENDBRANCH  23  37
ENDBRANCH   1  23
TORSDOF 2
ENDMDL
MODEL 8
REMARK VINA RESULT:      -6.7      5.921      9.907
REMARK  Name = 
REMARK  5 active torsions:
REMARK  status: ('A' for Active; 'I' for Inactive)
REMARK    1  A    between atoms: C_6  and  C_7
REMARK    2  A    between atoms: C_6  and  C_8
REMARK    3  A    between atoms: C_12  and  C_13
REMARK    4  A    between atoms: C_14  and  C_15
REMARK    5  A    between atoms: C_15  and  C_16
REMARK                            x       y       z     vdW  Elec       q    Type
REMARK                         _______ _______ _______ _____ _____    ______ ____
ROOT
ATOM      1  C   UNK A   2       2.785  15.087  19.476  0.00  0.00    +0.000 C 
ATOM      2  C   UNK A   2       2.457  13.815  18.757  0.00  0.00    +0.000 C 
ATOM      3  C   UNK A   2       1.102  13.292  19.155  0.00  0.00    +0.000 C 
ATOM      4  C   UNK A   2       1.315  11.760  19.196  0.00  0.00    +0.000 C 
ATOM      5  O   UNK A   2       1.814  11.121  18.271  0.00  0.00    +0.000 OA
ATOM      6  N   PRO A   1       0.935  11.188  20.380  0.00  0.00    +0.000 N 
ATOM      7  CD  PRO A   1       1.065   9.778  20.642  0.00  0.00    +0.000 C 
ATOM      8  CG  PRO A   1       0.270   9.535  21.914  0.00  0.00    +0.000 C 
ATOM      9  CB  PRO A   1      -0.254  10.906  22.361  0.00  0.00    +0.000 C 
ATOM     10  CA  PRO A   1      -0.118  11.823  21.152  0.00  0.00    +0.000 C 
ATOM     11  C   PRO A   1       0.268  13.297  21.482  0.00  0.00    +0.000 C 
ATOM     12  O   PRO A   1       0.035  13.825  22.566  0.00  0.00    +0.000 OA
ATOM     13  N   UNK A   2       0.855  13.971  20.418  0.00  0.00    +0.000 N 
ATOM     14  C   UNK A   2       1.651  15.192  20.569  0.00  0.00    +0.000 C 
ATOM     15  N   UNK A   2       0.866  16.413  20.299  0.00  0.00    +0.000 N 
ATOM     16  C   UNK A   2       1.405  16.967  19.111  0.00  0.00    +0.000 A 
ATOM     17  C   UNK A   2       0.921  18.078  18.435  0.00  0.00    +0.000 A 
ATOM     18  C   UNK A   2       1.358  18.313  17.124  0.00  0.00    +0.000 A 
ATOM     19  C   UNK A   2       2.323  17.487  16.536  0.00  0.00    +0.000 A 
ATOM     20  C   UNK A   2       2.918  16.493  17.290  0.00  0.00    +0.000 A 
ATOM     21  C   UNK A   2       2.459  16.238  18.575  0.00  0.00    +0.000 A 
ATOM     22  H   UNK A   2       0.985  17.099  21.046  0.00  0.00    +0.000 HD
ENDROOT
BRANCH   1  23
ATOM     23  C   UNK A   2       4.149  15.099  20.214  0.00  0.00    +0.000 C 
BRANCH  23  37
ATOM     24  C   UNK A   2       4.353  17.828  21.288  0.00  0.00    +0.000 C 
ATOM     25  C   UNK A   2       5.390  17.295  20.609  0.00  0.00    +0.000 C 
ATOM     26  C   UNK A   2       6.623  18.154  20.491  0.00  0.00    +0.000 C 
ATOM     27  C   UNK A   2       7.905  17.367  20.752  0.00  0.00    +0.000 C 
ATOM     28  C   UNK A   2       8.051  16.305  19.660  0.00  0.00    +0.000 C 
ATOM     29  C   UNK A   2       9.517  15.741  19.399  0.00  0.00    +0.000 C 
ATOM     30  C   UNK A   2      10.459  16.932  19.114  0.00  0.00    +0.000 C 
ATOM     31  C   UNK A   2      10.211  14.934  20.523  0.00  0.00    +0.000 C 
ATOM     32  C   UNK A   2       9.493  14.864  18.118  0.00  0.00    +0.000 C 
ATOM     33  C   UNK A   2       8.336  13.880  18.056  0.00  0.00    +0.000 C 
ATOM     34  C   UNK A   2       7.007  14.550  18.350  0.00  0.00    +0.000 C 
ATOM     35  C   UNK A   2       6.883  15.245  19.731  0.00  0.00    +0.000 C 
ATOM     36  C   UNK A   2       7.134  14.248  20.891  0.00  0.00    +0.000 C 
ATOM     37  C   UNK A   2       5.405  15.954  19.805  0.00  0.00    +0.000 C 
ENDBRANCH  23  37
ENDBRANCH   1  23
TORSDOF 2
ENDMDL
MODEL 9
REMARK VINA RESULT:      -6.7      2.386      5.837
REMARK  Name = 
REMARK  5 active torsions:
REMARK  status: ('A' for Active; 'I' for Inactive)
REMARK    1  A    between atoms: C_6  and  C_7
REMARK    2  A    between atoms: C_6  and  C_8
REMARK    3  A    between atoms: C_12  and  C_13
REMARK    4  A    between atoms: C_14  and  C_15
REMARK    5  A    between atoms: C_15  and  C_16
REMARK                            x       y       z     vdW  Elec       q    Type
REMARK                         _______ _______ _______ _____ _____    ______ ____
ROOT
ATOM      1  C   UNK A   2      -3.284  14.685  22.628  0.00  0.00    +0.000 C 
ATOM      2  C   UNK A   2      -4.083  14.706  21.362  0.00  0.00    +0.000 C 
ATOM      3  C   UNK A   2      -5.544  14.458  21.629  0.00  0.00    +0.000 C 
ATOM      4  C   UNK A   2      -5.977  13.585  20.427  0.00  0.00    +0.000 C 
ATOM      5  O   UNK A   2      -5.757  13.890  19.256  0.00  0.00    +0.000 OA
ATOM      6  N   PRO A   1      -6.592  12.418  20.794  0.00  0.00    +0.000 N 
ATOM      7  CD  PRO A   1      -7.056  11.447  19.836  0.00  0.00    +0.000 C 
ATOM      8  CG  PRO A   1      -7.916  10.482  20.634  0.00  0.00    +0.000 C 
ATOM      9  CB  PRO A   1      -7.847  10.951  22.093  0.00  0.00    +0.000 C 
ATOM     10  CA  PRO A   1      -7.313  12.378  22.052  0.00  0.00    +0.000 C 
ATOM     11  C   PRO A   1      -6.368  12.763  23.230  0.00  0.00    +0.000 C 
ATOM     12  O   PRO A   1      -6.395  12.204  24.323  0.00  0.00    +0.000 OA
ATOM     13  N   UNK A   2      -5.527  13.832  22.943  0.00  0.00    +0.000 N 
ATOM     14  C   UNK A   2      -4.306  14.130  23.696  0.00  0.00    +0.000 C 
ATOM     15  N   UNK A   2      -4.516  15.177  24.716  0.00  0.00    +0.000 N 
ATOM     16  C   UNK A   2      -3.764  16.298  24.283  0.00  0.00    +0.000 A 
ATOM     17  C   UNK A   2      -3.733  17.545  24.891  0.00  0.00    +0.000 A 
ATOM     18  C   UNK A   2      -3.201  18.630  24.179  0.00  0.00    +0.000 A 
ATOM     19  C   UNK A   2      -2.642  18.444  22.910  0.00  0.00    +0.000 A 
ATOM     20  C   UNK A   2      -2.527  17.164  22.399  0.00  0.00    +0.000 A 
ATOM     21  C   UNK A   2      -3.086  16.096  23.087  0.00  0.00    +0.000 A 
ATOM     22  H   UNK A   2      -4.148  14.886  25.622  0.00  0.00    +0.000 HD
ENDROOT
BRANCH   1  23
ATOM     23  C   UNK A   2      -2.056  13.738  22.621  0.00  0.00    +0.000 C 
BRANCH  23  37
ATOM     24  C   UNK A   2       0.461  15.253  22.738  0.00  0.00    +0.000 C 
ATOM     25  C   UNK A   2       0.281  14.325  21.776  0.00  0.00    +0.000 C 
ATOM     26  C   UNK A   2       1.439  14.104  20.837  0.00  0.00    +0.000 C 
ATOM     27  C   UNK A   2       1.705  12.621  20.584  0.00  0.00    +0.000 C 
ATOM     28  C   UNK A   2       0.490  12.027  19.869  0.00  0.00    +0.000 C 
ATOM     29  C   UNK A   2       0.730  10.690  19.038  0.00  0.00    +0.000 C 
ATOM     30  C   UNK A   2       1.875  10.935  18.030  0.00  0.00    +0.000 C 
ATOM     31  C   UNK A   2       1.130   9.405  19.802  0.00  0.00    +0.000 C 
ATOM     32  C   UNK A   2      -0.547  10.383  18.209  0.00  0.00    +0.000 C 
ATOM     33  C   UNK A   2      -1.844  10.506  18.990  0.00  0.00    +0.000 C 
ATOM     34  C   UNK A   2      -1.924  11.815  19.753  0.00  0.00    +0.000 C 
ATOM     35  C   UNK A   2      -0.795  12.075  20.784  0.00  0.00    +0.000 C 
ATOM     36  C   UNK A   2      -0.734  10.954  21.852  0.00  0.00    +0.000 C 
ATOM     37  C   UNK A   2      -1.041  13.563  21.432  0.00  0.00    +0.000 C 
ENDBRANCH  23  37
ENDBRANCH   1  23
TORSDOF 2
ENDMDL
