MODEL 1
REMARK VINA RESULT:      -7.5      0.000      0.000
REMARK  Name = 
REMARK  11 active torsions:
REMARK  status: ('A' for Active; 'I' for Inactive)
REMARK    1  A    between atoms: C_1  and  O_2
REMARK    2  A    between atoms: O_2  and  C_3
REMARK    3  A    between atoms: C_6  and  C_7
REMARK    4  A    between atoms: C_12  and  O_13
REMARK    5  A    between atoms: O_13  and  C_14
REMARK    6  A    between atoms: N_19  and  C_20
REMARK    7  A    between atoms: C_23  and  O_24
REMARK    8  A    between atoms: O_24  and  C_25
REMARK    9  A    between atoms: C_25  and  C_26
REMARK   10  A    between atoms: C_26  and  C_27
REMARK   11  A    between atoms: C_27  and  N_28
REMARK                            x       y       z     vdW  Elec       q    Type
REMARK                         _______ _______ _______ _____ _____    ______ ____
ROOT
ATOM      1  C   UNL     1      -1.510  11.851  19.594  0.00  0.00    +0.000 A 
ATOM      2  C   UNL     1      -2.312  12.778  20.140  0.00  0.00    +0.000 A 
ATOM      3  C   UNL     1      -1.827  13.572  21.263  0.00  0.00    +0.000 A 
ATOM      4  C   UNL     1      -2.700  14.369  22.005  0.00  0.00    +0.000 A 
ATOM      5  C   UNL     1      -2.218  15.109  23.085  0.00  0.00    +0.000 A 
ATOM      6  C   UNL     1      -0.859  15.094  23.419  0.00  0.00    +0.000 A 
ATOM      7  C   UNL     1       0.020  14.317  22.665  0.00  0.00    +0.000 A 
ATOM      8  C   UNL     1      -0.471  13.540  21.603  0.00  0.00    +0.000 A 
ATOM      9  C   UNL     1       0.426  12.574  20.909  0.00  0.00    +0.000 A 
ATOM     10  O   UNL     1       1.622  12.573  21.197  0.00  0.00    +0.000 OA
ATOM     11  N   UNL     1      -0.194  11.674  20.016  0.00  0.00    +0.000 N 
ENDROOT
BRANCH   1  15
ATOM     12  C   UNL     1      -3.235  10.115  16.062  0.00  0.00    +0.000 A 
ATOM     13  C   UNL     1      -2.554  11.331  16.016  0.00  0.00    +0.000 A 
ATOM     14  C   UNL     1      -1.938  11.848  17.157  0.00  0.00    +0.000 A 
ATOM     15  C   UNL     1      -2.016  11.167  18.379  0.00  0.00    +0.000 A 
ATOM     16  C   UNL     1      -2.681   9.936  18.421  0.00  0.00    +0.000 A 
ATOM     17  C   UNL     1      -3.284   9.406  17.265  0.00  0.00    +0.000 A 
BRANCH  12  19
ATOM     18  C   UNL     1      -3.077   9.872  13.705  0.00  0.00    +0.000 C 
ATOM     19  O   UNL     1      -3.849   9.769  14.893  0.00  0.00    +0.000 OA
ENDBRANCH  12  19
ENDBRANCH   1  15
BRANCH  11  20
ATOM     20  C   UNL     1       0.489  10.448  19.774  0.00  0.00    +0.000 A 
ATOM     21  C   UNL     1       1.115  10.269  18.535  0.00  0.00    +0.000 A 
ATOM     22  C   UNL     1       1.839   9.108  18.272  0.00  0.00    +0.000 A 
ATOM     23  C   UNL     1       1.973   8.131  19.259  0.00  0.00    +0.000 A 
ATOM     24  C   UNL     1       1.302   8.291  20.478  0.00  0.00    +0.000 A 
ATOM     25  C   UNL     1       0.542   9.438  20.732  0.00  0.00    +0.000 A 
BRANCH  23  26
ATOM     26  O   UNL     1       2.735   6.999  19.144  0.00  0.00    +0.000 OA
BRANCH  26  27
ATOM     27  C   UNL     1       3.334   6.775  17.863  0.00  0.00    +0.000 C 
BRANCH  27  28
ATOM     28  C   UNL     1       3.613   5.289  17.668  0.00  0.00    +0.000 C 
BRANCH  28  29
ATOM     29  C   UNL     1       2.337   4.449  17.763  0.00  0.00    +0.000 C 
BRANCH  29  30
ATOM     30  N   UNL     1       2.472   3.301  18.679  0.00  0.00    +0.000 NA
ATOM     31  C   UNL     1       1.149   2.898  19.192  0.00  0.00    +0.000 C 
ATOM     32  C   UNL     1       0.871   3.838  20.353  0.00  0.00    +0.000 C 
ATOM     33  C   UNL     1       2.246   4.117  20.939  0.00  0.00    +0.000 C 
ATOM     34  C   UNL     1       3.237   3.608  19.899  0.00  0.00    +0.000 C 
ENDBRANCH  29  30
ENDBRANCH  28  29
ENDBRANCH  27  28
ENDBRANCH  26  27
ENDBRANCH  23  26
ENDBRANCH  11  20
BRANCH   6  35
ATOM     35  O   UNL     1      -0.539  15.849  24.511  0.00  0.00    +0.000 OA
ATOM     36  C   UNL     1      -0.056  17.166  24.276  0.00  0.00    +0.000 C 
ENDBRANCH   6  35
TORSDOF 9
ENDMDL
MODEL 2
REMARK VINA RESULT:      -7.3      1.271      2.242
REMARK  Name = 
REMARK  11 active torsions:
REMARK  status: ('A' for Active; 'I' for Inactive)
REMARK    1  A    between atoms: C_1  and  O_2
REMARK    2  A    between atoms: O_2  and  C_3
REMARK    3  A    between atoms: C_6  and  C_7
REMARK    4  A    between atoms: C_12  and  O_13
REMARK    5  A    between atoms: O_13  and  C_14
REMARK    6  A    between atoms: N_19  and  C_20
REMARK    7  A    between atoms: C_23  and  O_24
REMARK    8  A    between atoms: O_24  and  C_25
REMARK    9  A    between atoms: C_25  and  C_26
REMARK   10  A    between atoms: C_26  and  C_27
REMARK   11  A    between atoms: C_27  and  N_28
REMARK                            x       y       z     vdW  Elec       q    Type
REMARK                         _______ _______ _______ _____ _____    ______ ____
ROOT
ATOM      1  C   UNL     1      -1.648  11.666  19.606  0.00  0.00    +0.000 A 
ATOM      2  C   UNL     1      -2.499  12.489  20.239  0.00  0.00    +0.000 A 
ATOM      3  C   UNL     1      -2.040  13.230  21.408  0.00  0.00    +0.000 A 
ATOM      4  C   UNL     1      -2.948  13.903  22.228  0.00  0.00    +0.000 A 
ATOM      5  C   UNL     1      -2.490  14.593  23.351  0.00  0.00    +0.000 A 
ATOM      6  C   UNL     1      -1.125  14.653  23.652  0.00  0.00    +0.000 A 
ATOM      7  C   UNL     1      -0.213  14.001  22.821  0.00  0.00    +0.000 A 
ATOM      8  C   UNL     1      -0.677  13.271  21.715  0.00  0.00    +0.000 A 
ATOM      9  C   UNL     1       0.268  12.428  20.928  0.00  0.00    +0.000 A 
ATOM     10  O   UNL     1       1.468  12.494  21.190  0.00  0.00    +0.000 OA
ATOM     11  N   UNL     1      -0.311  11.555  19.983  0.00  0.00    +0.000 N 
ENDROOT
BRANCH   1  15
ATOM     12  C   UNL     1      -3.319  10.102  15.969  0.00  0.00    +0.000 A 
ATOM     13  C   UNL     1      -2.614  11.305  15.986  0.00  0.00    +0.000 A 
ATOM     14  C   UNL     1      -2.016  11.766  17.161  0.00  0.00    +0.000 A 
ATOM     15  C   UNL     1      -2.137  11.039  18.353  0.00  0.00    +0.000 A 
ATOM     16  C   UNL     1      -2.826   9.821  18.332  0.00  0.00    +0.000 A 
ATOM     17  C   UNL     1      -3.411   9.348  17.142  0.00  0.00    +0.000 A 
BRANCH  12  19
ATOM     18  C   UNL     1      -3.096   9.903  13.613  0.00  0.00    +0.000 C 
ATOM     19  O   UNL     1      -3.911   9.813  14.773  0.00  0.00    +0.000 OA
ENDBRANCH  12  19
ENDBRANCH   1  15
BRANCH  11  20
ATOM     20  C   UNL     1       0.451  10.404  19.634  0.00  0.00    +0.000 A 
ATOM     21  C   UNL     1       1.076  10.375  18.381  0.00  0.00    +0.000 A 
ATOM     22  C   UNL     1       1.873   9.294  18.016  0.00  0.00    +0.000 A 
ATOM     23  C   UNL     1       2.083   8.247  18.913  0.00  0.00    +0.000 A 
ATOM     24  C   UNL     1       1.414   8.254  20.144  0.00  0.00    +0.000 A 
ATOM     25  C   UNL     1       0.581   9.321  20.500  0.00  0.00    +0.000 A 
BRANCH  23  26
ATOM     26  O   UNL     1       2.918   7.183  18.697  0.00  0.00    +0.000 OA
BRANCH  26  27
ATOM     27  C   UNL     1       2.808   6.101  19.627  0.00  0.00    +0.000 C 
BRANCH  27  28
ATOM     28  C   UNL     1       3.921   5.087  19.386  0.00  0.00    +0.000 C 
BRANCH  28  29
ATOM     29  C   UNL     1       4.120   4.801  17.896  0.00  0.00    +0.000 C 
BRANCH  29  30
ATOM     30  N   UNL     1       5.525   4.940  17.467  0.00  0.00    +0.000 NA
ATOM     31  C   UNL     1       5.793   6.324  17.035  0.00  0.00    +0.000 C 
ATOM     32  C   UNL     1       5.310   6.390  15.596  0.00  0.00    +0.000 C 
ATOM     33  C   UNL     1       5.569   4.993  15.055  0.00  0.00    +0.000 C 
ATOM     34  C   UNL     1       5.861   4.135  16.281  0.00  0.00    +0.000 C 
ENDBRANCH  29  30
ENDBRANCH  28  29
ENDBRANCH  27  28
ENDBRANCH  26  27
ENDBRANCH  23  26
ENDBRANCH  11  20
BRANCH   6  35
ATOM     35  O   UNL     1      -0.830  15.346  24.792  0.00  0.00    +0.000 OA
ATOM     36  C   UNL     1      -0.391  16.691  24.643  0.00  0.00    +0.000 C 
ENDBRANCH   6  35
TORSDOF 9
ENDMDL
MODEL 3
REMARK VINA RESULT:      -7.2      0.805      1.327
REMARK  Name = 
REMARK  11 active torsions:
REMARK  status: ('A' for Active; 'I' for Inactive)
REMARK    1  A    between atoms: C_1  and  O_2
REMARK    2  A    between atoms: O_2  and  C_3
REMARK    3  A    between atoms: C_6  and  C_7
REMARK    4  A    between atoms: C_12  and  O_13
REMARK    5  A    between atoms: O_13  and  C_14
REMARK    6  A    between atoms: N_19  and  C_20
REMARK    7  A    between atoms: C_23  and  O_24
REMARK    8  A    between atoms: O_24  and  C_25
REMARK    9  A    between atoms: C_25  and  C_26
REMARK   10  A    between atoms: C_26  and  C_27
REMARK   11  A    between atoms: C_27  and  N_28
REMARK                            x       y       z     vdW  Elec       q    Type
REMARK                         _______ _______ _______ _____ _____    ______ ____
ROOT
ATOM      1  C   UNL     1      -1.665  11.607  19.553  0.00  0.00    +0.000 A 
ATOM      2  C   UNL     1      -2.566  12.303  20.263  0.00  0.00    +0.000 A 
ATOM      3  C   UNL     1      -2.143  12.993  21.476  0.00  0.00    +0.000 A 
ATOM      4  C   UNL     1      -3.083  13.521  22.363  0.00  0.00    +0.000 A 
ATOM      5  C   UNL     1      -2.656  14.164  23.525  0.00  0.00    +0.000 A 
ATOM      6  C   UNL     1      -1.294  14.320  23.803  0.00  0.00    +0.000 A 
ATOM      7  C   UNL     1      -0.352  13.813  22.908  0.00  0.00    +0.000 A 
ATOM      8  C   UNL     1      -0.780  13.130  21.758  0.00  0.00    +0.000 A 
ATOM      9  C   UNL     1       0.212  12.433  20.892  0.00  0.00    +0.000 A 
ATOM     10  O   UNL     1       1.409  12.583  21.134  0.00  0.00    +0.000 OA
ATOM     11  N   UNL     1      -0.314  11.585  19.895  0.00  0.00    +0.000 N 
ENDROOT
BRANCH   1  15
ATOM     12  C   UNL     1      -3.280  10.191  15.831  0.00  0.00    +0.000 A 
ATOM     13  C   UNL     1      -2.621  11.416  15.917  0.00  0.00    +0.000 A 
ATOM     14  C   UNL     1      -2.040  11.832  17.117  0.00  0.00    +0.000 A 
ATOM     15  C   UNL     1      -2.132  11.035  18.266  0.00  0.00    +0.000 A 
ATOM     16  C   UNL     1      -2.774   9.794  18.174  0.00  0.00    +0.000 A 
ATOM     17  C   UNL     1      -3.342   9.369  16.959  0.00  0.00    +0.000 A 
BRANCH  12  19
ATOM     18  C   UNL     1      -2.991   9.754  13.515  0.00  0.00    +0.000 C 
ATOM     19  O   UNL     1      -3.862   9.948  14.620  0.00  0.00    +0.000 OA
ENDBRANCH  12  19
ENDBRANCH   1  15
BRANCH  11  20
ATOM     20  C   UNL     1       0.533  10.534  19.443  0.00  0.00    +0.000 A 
ATOM     21  C   UNL     1       0.645   9.384  20.233  0.00  0.00    +0.000 A 
ATOM     22  C   UNL     1       1.422   8.309  19.807  0.00  0.00    +0.000 A 
ATOM     23  C   UNL     1       2.066   8.360  18.571  0.00  0.00    +0.000 A 
ATOM     24  C   UNL     1       1.995   9.533  17.809  0.00  0.00    +0.000 A 
ATOM     25  C   UNL     1       1.247  10.630  18.250  0.00  0.00    +0.000 A 
BRANCH  23  26
ATOM     26  O   UNL     1       2.776   7.330  18.013  0.00  0.00    +0.000 OA
BRANCH  26  27
ATOM     27  C   UNL     1       3.788   6.747  18.840  0.00  0.00    +0.000 C 
BRANCH  27  28
ATOM     28  C   UNL     1       4.142   5.354  18.331  0.00  0.00    +0.000 C 
BRANCH  28  29
ATOM     29  C   UNL     1       3.561   4.254  19.224  0.00  0.00    +0.000 C 
BRANCH  29  30
ATOM     30  N   UNL     1       2.258   4.620  19.811  0.00  0.00    +0.000 NA
ATOM     31  C   UNL     1       2.296   4.466  21.277  0.00  0.00    +0.000 C 
ATOM     32  C   UNL     1       2.035   2.989  21.527  0.00  0.00    +0.000 C 
ATOM     33  C   UNL     1       1.104   2.583  20.397  0.00  0.00    +0.000 C 
ATOM     34  C   UNL     1       1.157   3.733  19.398  0.00  0.00    +0.000 C 
ENDBRANCH  29  30
ENDBRANCH  28  29
ENDBRANCH  27  28
ENDBRANCH  26  27
ENDBRANCH  23  26
ENDBRANCH  11  20
BRANCH   6  35
ATOM     35  O   UNL     1      -1.029  14.949  24.987  0.00  0.00    +0.000 OA
ATOM     36  C   UNL     1      -0.725  16.338  24.933  0.00  0.00    +0.000 C 
ENDBRANCH   6  35
TORSDOF 9
ENDMDL
MODEL 4
REMARK VINA RESULT:      -7.1      1.149      2.269
REMARK  Name = 
REMARK  11 active torsions:
REMARK  status: ('A' for Active; 'I' for Inactive)
REMARK    1  A    between atoms: C_1  and  O_2
REMARK    2  A    between atoms: O_2  and  C_3
REMARK    3  A    between atoms: C_6  and  C_7
REMARK    4  A    between atoms: C_12  and  O_13
REMARK    5  A    between atoms: O_13  and  C_14
REMARK    6  A    between atoms: N_19  and  C_20
REMARK    7  A    between atoms: C_23  and  O_24
REMARK    8  A    between atoms: O_24  and  C_25
REMARK    9  A    between atoms: C_25  and  C_26
REMARK   10  A    between atoms: C_26  and  C_27
REMARK   11  A    between atoms: C_27  and  N_28
REMARK                            x       y       z     vdW  Elec       q    Type
REMARK                         _______ _______ _______ _____ _____    ______ ____
ROOT
ATOM      1  C   UNL     1      -1.389  11.892  19.573  0.00  0.00    +0.000 A 
ATOM      2  C   UNL     1      -2.211  12.765  20.175  0.00  0.00    +0.000 A 
ATOM      3  C   UNL     1      -1.702  13.592  21.264  0.00  0.00    +0.000 A 
ATOM      4  C   UNL     1      -2.573  14.330  22.067  0.00  0.00    +0.000 A 
ATOM      5  C   UNL     1      -2.067  15.103  23.112  0.00  0.00    +0.000 A 
ATOM      6  C   UNL     1      -0.690  15.178  23.351  0.00  0.00    +0.000 A 
ATOM      7  C   UNL     1       0.184  14.460  22.535  0.00  0.00    +0.000 A 
ATOM      8  C   UNL     1      -0.327  13.650  21.509  0.00  0.00    +0.000 A 
ATOM      9  C   UNL     1       0.582  12.744  20.751  0.00  0.00    +0.000 A 
ATOM     10  O   UNL     1       1.792  12.823  20.956  0.00  0.00    +0.000 OA
ATOM     11  N   UNL     1      -0.037  11.803  19.901  0.00  0.00    +0.000 N 
ENDROOT
BRANCH   1  15
ATOM     12  C   UNL     1      -3.216  10.060  16.142  0.00  0.00    +0.000 A 
ATOM     13  C   UNL     1      -2.514  11.259  16.037  0.00  0.00    +0.000 A 
ATOM     14  C   UNL     1      -1.865  11.807  17.146  0.00  0.00    +0.000 A 
ATOM     15  C   UNL     1      -1.932  11.173  18.394  0.00  0.00    +0.000 A 
ATOM     16  C   UNL     1      -2.618   9.957  18.495  0.00  0.00    +0.000 A 
ATOM     17  C   UNL     1      -3.254   9.397  17.371  0.00  0.00    +0.000 A 
BRANCH  12  19
ATOM     18  C   UNL     1      -3.268  10.073  13.768  0.00  0.00    +0.000 C 
ATOM     19  O   UNL     1      -3.860   9.682  14.998  0.00  0.00    +0.000 OA
ENDBRANCH  12  19
ENDBRANCH   1  15
BRANCH  11  20
ATOM     20  C   UNL     1       0.707  10.625  19.610  0.00  0.00    +0.000 A 
ATOM     21  C   UNL     1       0.747   9.608  20.571  0.00  0.00    +0.000 A 
ATOM     22  C   UNL     1       1.420   8.417  20.309  0.00  0.00    +0.000 A 
ATOM     23  C   UNL     1       2.028   8.217  19.071  0.00  0.00    +0.000 A 
ATOM     24  C   UNL     1       2.031   9.256  18.132  0.00  0.00    +0.000 A 
ATOM     25  C   UNL     1       1.389  10.470  18.405  0.00  0.00    +0.000 A 
BRANCH  23  26
ATOM     26  O   UNL     1       2.634   7.055  18.672  0.00  0.00    +0.000 OA
BRANCH  26  27
ATOM     27  C   UNL     1       2.131   5.852  19.263  0.00  0.00    +0.000 C 
BRANCH  27  28
ATOM     28  C   UNL     1       3.220   4.786  19.289  0.00  0.00    +0.000 C 
BRANCH  28  29
ATOM     29  C   UNL     1       4.620   5.399  19.350  0.00  0.00    +0.000 C 
BRANCH  29  30
ATOM     30  N   UNL     1       5.505   4.920  18.271  0.00  0.00    +0.000 NA
ATOM     31  C   UNL     1       6.589   5.891  18.029  0.00  0.00    +0.000 C 
ATOM     32  C   UNL     1       5.982   6.941  17.114  0.00  0.00    +0.000 C 
ATOM     33  C   UNL     1       4.985   6.165  16.270  0.00  0.00    +0.000 C 
ATOM     34  C   UNL     1       4.836   4.816  16.964  0.00  0.00    +0.000 C 
ENDBRANCH  29  30
ENDBRANCH  28  29
ENDBRANCH  27  28
ENDBRANCH  26  27
ENDBRANCH  23  26
ENDBRANCH  11  20
BRANCH   6  35
ATOM     35  O   UNL     1      -0.346  15.956  24.420  0.00  0.00    +0.000 OA
ATOM     36  C   UNL     1       0.566  17.022  24.186  0.00  0.00    +0.000 C 
ENDBRANCH   6  35
TORSDOF 9
ENDMDL
MODEL 5
REMARK VINA RESULT:      -7.1      0.913      1.389
REMARK  Name = 
REMARK  11 active torsions:
REMARK  status: ('A' for Active; 'I' for Inactive)
REMARK    1  A    between atoms: C_1  and  O_2
REMARK    2  A    between atoms: O_2  and  C_3
REMARK    3  A    between atoms: C_6  and  C_7
REMARK    4  A    between atoms: C_12  and  O_13
REMARK    5  A    between atoms: O_13  and  C_14
REMARK    6  A    between atoms: N_19  and  C_20
REMARK    7  A    between atoms: C_23  and  O_24
REMARK    8  A    between atoms: O_24  and  C_25
REMARK    9  A    between atoms: C_25  and  C_26
REMARK   10  A    between atoms: C_26  and  C_27
REMARK   11  A    between atoms: C_27  and  N_28
REMARK                            x       y       z     vdW  Elec       q    Type
REMARK                         _______ _______ _______ _____ _____    ______ ____
ROOT
ATOM      1  C   UNL     1      -1.666  11.615  19.519  0.00  0.00    +0.000 A 
ATOM      2  C   UNL     1      -2.537  12.361  20.215  0.00  0.00    +0.000 A 
ATOM      3  C   UNL     1      -2.078  13.077  21.399  0.00  0.00    +0.000 A 
ATOM      4  C   UNL     1      -2.991  13.664  22.278  0.00  0.00    +0.000 A 
ATOM      5  C   UNL     1      -2.531  14.332  23.413  0.00  0.00    +0.000 A 
ATOM      6  C   UNL     1      -1.161  14.455  23.671  0.00  0.00    +0.000 A 
ATOM      7  C   UNL     1      -0.246  13.890  22.783  0.00  0.00    +0.000 A 
ATOM      8  C   UNL     1      -0.708  13.182  21.662  0.00  0.00    +0.000 A 
ATOM      9  C   UNL     1       0.251  12.426  20.808  0.00  0.00    +0.000 A 
ATOM     10  O   UNL     1       1.455  12.548  21.032  0.00  0.00    +0.000 OA
ATOM     11  N   UNL     1      -0.312  11.562  19.846  0.00  0.00    +0.000 N 
ENDROOT
BRANCH   1  15
ATOM     12  C   UNL     1      -3.365  10.128  15.862  0.00  0.00    +0.000 A 
ATOM     13  C   UNL     1      -2.652  11.326  15.898  0.00  0.00    +0.000 A 
ATOM     14  C   UNL     1      -2.045  11.761  17.078  0.00  0.00    +0.000 A 
ATOM     15  C   UNL     1      -2.165  11.014  18.257  0.00  0.00    +0.000 A 
ATOM     16  C   UNL     1      -2.861   9.800  18.216  0.00  0.00    +0.000 A 
ATOM     17  C   UNL     1      -3.455   9.353  17.021  0.00  0.00    +0.000 A 
BRANCH  12  19
ATOM     18  C   UNL     1      -3.126   9.844  13.516  0.00  0.00    +0.000 C 
ATOM     19  O   UNL     1      -3.964   9.865  14.664  0.00  0.00    +0.000 OA
ENDBRANCH  12  19
ENDBRANCH   1  15
BRANCH  11  20
ATOM     20  C   UNL     1       0.498  10.471  19.421  0.00  0.00    +0.000 A 
ATOM     21  C   UNL     1       0.629   9.368  20.273  0.00  0.00    +0.000 A 
ATOM     22  C   UNL     1       1.369   8.257  19.878  0.00  0.00    +0.000 A 
ATOM     23  C   UNL     1       1.956   8.222  18.614  0.00  0.00    +0.000 A 
ATOM     24  C   UNL     1       1.867   9.348  17.786  0.00  0.00    +0.000 A 
ATOM     25  C   UNL     1       1.156  10.483  18.194  0.00  0.00    +0.000 A 
BRANCH  23  26
ATOM     26  O   UNL     1       2.624   7.149  18.087  0.00  0.00    +0.000 OA
BRANCH  26  27
ATOM     27  C   UNL     1       4.052   7.199  18.168  0.00  0.00    +0.000 C 
BRANCH  27  28
ATOM     28  C   UNL     1       4.629   5.788  18.127  0.00  0.00    +0.000 C 
BRANCH  28  29
ATOM     29  C   UNL     1       4.155   4.942  19.311  0.00  0.00    +0.000 C 
BRANCH  29  30
ATOM     30  N   UNL     1       4.405   3.500  19.123  0.00  0.00    +0.000 NA
ATOM     31  C   UNL     1       3.950   3.071  17.786  0.00  0.00    +0.000 C 
ATOM     32  C   UNL     1       2.457   2.830  17.935  0.00  0.00    +0.000 C 
ATOM     33  C   UNL     1       2.304   2.338  19.365  0.00  0.00    +0.000 C 
ATOM     34  C   UNL     1       3.635   2.644  20.041  0.00  0.00    +0.000 C 
ENDBRANCH  29  30
ENDBRANCH  28  29
ENDBRANCH  27  28
ENDBRANCH  26  27
ENDBRANCH  23  26
ENDBRANCH  11  20
BRANCH   6  35
ATOM     35  O   UNL     1      -0.864  15.115  24.829  0.00  0.00    +0.000 OA
ATOM     36  C   UNL     1      -0.483  16.481  24.722  0.00  0.00    +0.000 C 
ENDBRANCH   6  35
TORSDOF 9
ENDMDL
MODEL 6
REMARK VINA RESULT:      -7.0      1.192      1.705
REMARK  Name = 
REMARK  11 active torsions:
REMARK  status: ('A' for Active; 'I' for Inactive)
REMARK    1  A    between atoms: C_1  and  O_2
REMARK    2  A    between atoms: O_2  and  C_3
REMARK    3  A    between atoms: C_6  and  C_7
REMARK    4  A    between atoms: C_12  and  O_13
REMARK    5  A    between atoms: O_13  and  C_14
REMARK    6  A    between atoms: N_19  and  C_20
REMARK    7  A    between atoms: C_23  and  O_24
REMARK    8  A    between atoms: O_24  and  C_25
REMARK    9  A    between atoms: C_25  and  C_26
REMARK   10  A    between atoms: C_26  and  C_27
REMARK   11  A    between atoms: C_27  and  N_28
REMARK                            x       y       z     vdW  Elec       q    Type
REMARK                         _______ _______ _______ _____ _____    ______ ____
ROOT
ATOM      1  C   UNL     1      -2.370  12.033  20.088  0.00  0.00    +0.000 A 
ATOM      2  C   UNL     1      -3.337  12.814  20.594  0.00  0.00    +0.000 A 
ATOM      3  C   UNL     1      -3.130  13.465  21.882  0.00  0.00    +0.000 A 
ATOM      4  C   UNL     1      -4.189  14.084  22.548  0.00  0.00    +0.000 A 
ATOM      5  C   UNL     1      -3.973  14.688  23.787  0.00  0.00    +0.000 A 
ATOM      6  C   UNL     1      -2.697  14.715  24.362  0.00  0.00    +0.000 A 
ATOM      7  C   UNL     1      -1.632  14.118  23.688  0.00  0.00    +0.000 A 
ATOM      8  C   UNL     1      -1.857  13.473  22.461  0.00  0.00    +0.000 A 
ATOM      9  C   UNL     1      -0.767  12.682  21.822  0.00  0.00    +0.000 A 
ATOM     10  O   UNL     1       0.355  12.719  22.325  0.00  0.00    +0.000 OA
ATOM     11  N   UNL     1      -1.137  11.884  20.719  0.00  0.00    +0.000 N 
ENDROOT
BRANCH   1  15
ATOM     12  C   UNL     1      -2.805  10.216  16.218  0.00  0.00    +0.000 A 
ATOM     13  C   UNL     1      -3.434   9.686  17.344  0.00  0.00    +0.000 A 
ATOM     14  C   UNL     1      -3.341  10.327  18.582  0.00  0.00    +0.000 A 
ATOM     15  C   UNL     1      -2.591  11.502  18.720  0.00  0.00    +0.000 A 
ATOM     16  C   UNL     1      -1.979  12.047  17.585  0.00  0.00    +0.000 A 
ATOM     17  C   UNL     1      -2.090  11.410  16.335  0.00  0.00    +0.000 A 
BRANCH  12  19
ATOM     18  C   UNL     1      -3.697   9.975  14.030  0.00  0.00    +0.000 C 
ATOM     19  O   UNL     1      -2.920   9.447  15.096  0.00  0.00    +0.000 OA
ENDBRANCH  12  19
ENDBRANCH   1  15
BRANCH  11  20
ATOM     20  C   UNL     1      -0.312  10.756  20.448  0.00  0.00    +0.000 A 
ATOM     21  C   UNL     1       0.556  10.814  19.351  0.00  0.00    +0.000 A 
ATOM     22  C   UNL     1       1.418   9.755  19.078  0.00  0.00    +0.000 A 
ATOM     23  C   UNL     1       1.446   8.643  19.919  0.00  0.00    +0.000 A 
ATOM     24  C   UNL     1       0.540   8.565  20.984  0.00  0.00    +0.000 A 
ATOM     25  C   UNL     1      -0.355   9.610  21.240  0.00  0.00    +0.000 A 
BRANCH  23  26
ATOM     26  O   UNL     1       2.315   7.591  19.800  0.00  0.00    +0.000 OA
BRANCH  26  27
ATOM     27  C   UNL     1       2.693   7.238  18.465  0.00  0.00    +0.000 C 
BRANCH  27  28
ATOM     28  C   UNL     1       2.238   5.818  18.149  0.00  0.00    +0.000 C 
BRANCH  28  29
ATOM     29  C   UNL     1       3.202   4.770  18.709  0.00  0.00    +0.000 C 
BRANCH  29  30
ATOM     30  N   UNL     1       2.668   4.073  19.895  0.00  0.00    +0.000 NA
ATOM     31  C   UNL     1       3.130   2.672  19.916  0.00  0.00    +0.000 C 
ATOM     32  C   UNL     1       2.173   1.926  19.001  0.00  0.00    +0.000 C 
ATOM     33  C   UNL     1       0.851   2.657  19.174  0.00  0.00    +0.000 C 
ATOM     34  C   UNL     1       1.201   3.954  19.896  0.00  0.00    +0.000 C 
ENDBRANCH  29  30
ENDBRANCH  28  29
ENDBRANCH  27  28
ENDBRANCH  26  27
ENDBRANCH  23  26
ENDBRANCH  11  20
BRANCH   6  35
ATOM     35  O   UNL     1      -2.643  15.321  25.585  0.00  0.00    +0.000 OA
ATOM     36  C   UNL     1      -1.371  15.770  26.035  0.00  0.00    +0.000 C 
ENDBRANCH   6  35
TORSDOF 9
ENDMDL
MODEL 7
REMARK VINA RESULT:      -7.0      1.486      2.352
REMARK  Name = 
REMARK  11 active torsions:
REMARK  status: ('A' for Active; 'I' for Inactive)
REMARK    1  A    between atoms: C_1  and  O_2
REMARK    2  A    between atoms: O_2  and  C_3
REMARK    3  A    between atoms: C_6  and  C_7
REMARK    4  A    between atoms: C_12  and  O_13
REMARK    5  A    between atoms: O_13  and  C_14
REMARK    6  A    between atoms: N_19  and  C_20
REMARK    7  A    between atoms: C_23  and  O_24
REMARK    8  A    between atoms: O_24  and  C_25
REMARK    9  A    between atoms: C_25  and  C_26
REMARK   10  A    between atoms: C_26  and  C_27
REMARK   11  A    between atoms: C_27  and  N_28
REMARK                            x       y       z     vdW  Elec       q    Type
REMARK                         _______ _______ _______ _____ _____    ______ ____
ROOT
ATOM      1  C   UNL     1      -1.696  11.926  19.695  0.00  0.00    +0.000 A 
ATOM      2  C   UNL     1      -2.525  12.845  20.213  0.00  0.00    +0.000 A 
ATOM      3  C   UNL     1      -2.076  13.662  21.335  0.00  0.00    +0.000 A 
ATOM      4  C   UNL     1      -2.978  14.452  22.049  0.00  0.00    +0.000 A 
ATOM      5  C   UNL     1      -2.530  15.215  23.129  0.00  0.00    +0.000 A 
ATOM      6  C   UNL     1      -1.178  15.228  23.489  0.00  0.00    +0.000 A 
ATOM      7  C   UNL     1      -0.271  14.457  22.762  0.00  0.00    +0.000 A 
ATOM      8  C   UNL     1      -0.727  13.658  21.702  0.00  0.00    +0.000 A 
ATOM      9  C   UNL     1       0.201  12.699  21.037  0.00  0.00    +0.000 A 
ATOM     10  O   UNL     1       1.390  12.724  21.349  0.00  0.00    +0.000 OA
ATOM     11  N   UNL     1      -0.386  11.777  20.145  0.00  0.00    +0.000 N 
ENDROOT
BRANCH   1  15
ATOM     12  C   UNL     1      -3.298  10.135  16.132  0.00  0.00    +0.000 A 
ATOM     13  C   UNL     1      -2.532  11.299  16.079  0.00  0.00    +0.000 A 
ATOM     14  C   UNL     1      -1.959  11.831  17.237  0.00  0.00    +0.000 A 
ATOM     15  C   UNL     1      -2.166  11.217  18.479  0.00  0.00    +0.000 A 
ATOM     16  C   UNL     1      -2.916  10.036  18.530  0.00  0.00    +0.000 A 
ATOM     17  C   UNL     1      -3.476   9.491  17.359  0.00  0.00    +0.000 A 
BRANCH  12  19
ATOM     18  C   UNL     1      -3.044   9.913  13.781  0.00  0.00    +0.000 C 
ATOM     19  O   UNL     1      -3.854   9.772  14.940  0.00  0.00    +0.000 OA
ENDBRANCH  12  19
ENDBRANCH   1  15
BRANCH  11  20
ATOM     20  C   UNL     1       0.324  10.561  19.932  0.00  0.00    +0.000 A 
ATOM     21  C   UNL     1       1.031  10.404  18.735  0.00  0.00    +0.000 A 
ATOM     22  C   UNL     1       1.781   9.253  18.505  0.00  0.00    +0.000 A 
ATOM     23  C   UNL     1       1.860   8.265  19.485  0.00  0.00    +0.000 A 
ATOM     24  C   UNL     1       1.110   8.402  20.660  0.00  0.00    +0.000 A 
ATOM     25  C   UNL     1       0.323   9.539  20.879  0.00  0.00    +0.000 A 
BRANCH  23  26
ATOM     26  O   UNL     1       2.639   7.141  19.405  0.00  0.00    +0.000 OA
BRANCH  26  27
ATOM     27  C   UNL     1       2.589   6.431  18.164  0.00  0.00    +0.000 C 
BRANCH  27  28
ATOM     28  C   UNL     1       3.438   5.168  18.247  0.00  0.00    +0.000 C 
BRANCH  28  29
ATOM     29  C   UNL     1       4.872   5.470  18.690  0.00  0.00    +0.000 C 
BRANCH  29  30
ATOM     30  N   UNL     1       5.855   5.311  17.601  0.00  0.00    +0.000 NA
ATOM     31  C   UNL     1       7.165   4.912  18.149  0.00  0.00    +0.000 C 
ATOM     32  C   UNL     1       7.818   6.210  18.597  0.00  0.00    +0.000 C 
ATOM     33  C   UNL     1       7.301   7.243  17.610  0.00  0.00    +0.000 C 
ATOM     34  C   UNL     1       6.146   6.563  16.883  0.00  0.00    +0.000 C 
ENDBRANCH  29  30
ENDBRANCH  28  29
ENDBRANCH  27  28
ENDBRANCH  26  27
ENDBRANCH  23  26
ENDBRANCH  11  20
BRANCH   6  35
ATOM     35  O   UNL     1      -0.893  16.002  24.577  0.00  0.00    +0.000 OA
ATOM     36  C   UNL     1       0.212  16.892  24.474  0.00  0.00    +0.000 C 
ENDBRANCH   6  35
TORSDOF 9
ENDMDL
MODEL 8
REMARK VINA RESULT:      -7.0      0.829      1.199
REMARK  Name = 
REMARK  11 active torsions:
REMARK  status: ('A' for Active; 'I' for Inactive)
REMARK    1  A    between atoms: C_1  and  O_2
REMARK    2  A    between atoms: O_2  and  C_3
REMARK    3  A    between atoms: C_6  and  C_7
REMARK    4  A    between atoms: C_12  and  O_13
REMARK    5  A    between atoms: O_13  and  C_14
REMARK    6  A    between atoms: N_19  and  C_20
REMARK    7  A    between atoms: C_23  and  O_24
REMARK    8  A    between atoms: O_24  and  C_25
REMARK    9  A    between atoms: C_25  and  C_26
REMARK   10  A    between atoms: C_26  and  C_27
REMARK   11  A    between atoms: C_27  and  N_28
REMARK                            x       y       z     vdW  Elec       q    Type
REMARK                         _______ _______ _______ _____ _____    ______ ____
ROOT
ATOM      1  C   UNL     1      -1.371  11.965  19.574  0.00  0.00    +0.000 A 
ATOM      2  C   UNL     1      -2.128  12.941  20.100  0.00  0.00    +0.000 A 
ATOM      3  C   UNL     1      -1.582  13.774  21.165  0.00  0.00    +0.000 A 
ATOM      4  C   UNL     1      -2.407  14.632  21.895  0.00  0.00    +0.000 A 
ATOM      5  C   UNL     1      -1.868  15.409  22.921  0.00  0.00    +0.000 A 
ATOM      6  C   UNL     1      -0.499  15.369  23.210  0.00  0.00    +0.000 A 
ATOM      7  C   UNL     1       0.332  14.531  22.467  0.00  0.00    +0.000 A 
ATOM      8  C   UNL     1      -0.217  13.718  21.462  0.00  0.00    +0.000 A 
ATOM      9  C   UNL     1       0.628  12.693  20.787  0.00  0.00    +0.000 A 
ATOM     10  O   UNL     1       1.833  12.671  21.036  0.00  0.00    +0.000 OA
ATOM     11  N   UNL     1      -0.047  11.769  19.961  0.00  0.00    +0.000 N 
ENDROOT
BRANCH   1  15
ATOM     12  C   UNL     1      -3.260  10.116  16.187  0.00  0.00    +0.000 A 
ATOM     13  C   UNL     1      -2.525  11.293  16.055  0.00  0.00    +0.000 A 
ATOM     14  C   UNL     1      -1.857  11.845  17.151  0.00  0.00    +0.000 A 
ATOM     15  C   UNL     1      -1.938  11.238  18.412  0.00  0.00    +0.000 A 
ATOM     16  C   UNL     1      -2.657  10.044  18.539  0.00  0.00    +0.000 A 
ATOM     17  C   UNL     1      -3.312   9.479  17.429  0.00  0.00    +0.000 A 
BRANCH  12  19
ATOM     18  C   UNL     1      -3.302  10.054  13.813  0.00  0.00    +0.000 C 
ATOM     19  O   UNL     1      -3.917   9.733  15.053  0.00  0.00    +0.000 OA
ENDBRANCH  12  19
ENDBRANCH   1  15
BRANCH  11  20
ATOM     20  C   UNL     1       0.593  10.514  19.758  0.00  0.00    +0.000 A 
ATOM     21  C   UNL     1       1.252  10.292  18.544  0.00  0.00    +0.000 A 
ATOM     22  C   UNL     1       1.936   9.099  18.320  0.00  0.00    +0.000 A 
ATOM     23  C   UNL     1       1.996   8.131  19.323  0.00  0.00    +0.000 A 
ATOM     24  C   UNL     1       1.291   8.335  20.516  0.00  0.00    +0.000 A 
ATOM     25  C   UNL     1       0.571   9.516  20.730  0.00  0.00    +0.000 A 
BRANCH  23  26
ATOM     26  O   UNL     1       2.714   6.967  19.248  0.00  0.00    +0.000 OA
BRANCH  26  27
ATOM     27  C   UNL     1       2.663   6.279  17.994  0.00  0.00    +0.000 C 
BRANCH  27  28
ATOM     28  C   UNL     1       4.062   5.837  17.581  0.00  0.00    +0.000 C 
BRANCH  28  29
ATOM     29  C   UNL     1       4.228   4.318  17.658  0.00  0.00    +0.000 C 
BRANCH  29  30
ATOM     30  N   UNL     1       3.113   3.653  18.360  0.00  0.00    +0.000 NA
ATOM     31  C   UNL     1       3.481   3.378  19.761  0.00  0.00    +0.000 C 
ATOM     32  C   UNL     1       4.273   2.082  19.715  0.00  0.00    +0.000 C 
ATOM     33  C   UNL     1       3.649   1.309  18.564  0.00  0.00    +0.000 C 
ATOM     34  C   UNL     1       2.788   2.322  17.820  0.00  0.00    +0.000 C 
ENDBRANCH  29  30
ENDBRANCH  28  29
ENDBRANCH  27  28
ENDBRANCH  26  27
ENDBRANCH  23  26
ENDBRANCH  11  20
BRANCH   6  35
ATOM     35  O   UNL     1      -0.121  16.167  24.253  0.00  0.00    +0.000 OA
ATOM     36  C   UNL     1      -1.130  16.957  24.869  0.00  0.00    +0.000 C 
ENDBRANCH   6  35
TORSDOF 9
ENDMDL
MODEL 9
REMARK VINA RESULT:      -7.0      2.991      3.879
REMARK  Name = 
REMARK  11 active torsions:
REMARK  status: ('A' for Active; 'I' for Inactive)
REMARK    1  A    between atoms: C_1  and  O_2
REMARK    2  A    between atoms: O_2  and  C_3
REMARK    3  A    between atoms: C_6  and  C_7
REMARK    4  A    between atoms: C_12  and  O_13
REMARK    5  A    between atoms: O_13  and  C_14
REMARK    6  A    between atoms: N_19  and  C_20
REMARK    7  A    between atoms: C_23  and  O_24
REMARK    8  A    between atoms: O_24  and  C_25
REMARK    9  A    between atoms: C_25  and  C_26
REMARK   10  A    between atoms: C_26  and  C_27
REMARK   11  A    between atoms: C_27  and  N_28
REMARK                            x       y       z     vdW  Elec       q    Type
REMARK                         _______ _______ _______ _____ _____    ______ ____
ROOT
ATOM      1  C   UNL     1      -0.199  13.130  18.825  0.00  0.00    +0.000 A 
ATOM      2  C   UNL     1      -0.236  14.466  18.707  0.00  0.00    +0.000 A 
ATOM      3  C   UNL     1       1.014  15.213  18.630  0.00  0.00    +0.000 A 
ATOM      4  C   UNL     1       1.024  16.604  18.748  0.00  0.00    +0.000 A 
ATOM      5  C   UNL     1       2.233  17.298  18.687  0.00  0.00    +0.000 A 
ATOM      6  C   UNL     1       3.440  16.622  18.475  0.00  0.00    +0.000 A 
ATOM      7  C   UNL     1       3.431  15.235  18.334  0.00  0.00    +0.000 A 
ATOM      8  C   UNL     1       2.220  14.532  18.437  0.00  0.00    +0.000 A 
ATOM      9  C   UNL     1       2.222  13.042  18.466  0.00  0.00    +0.000 A 
ATOM     10  O   UNL     1       3.284  12.454  18.267  0.00  0.00    +0.000 OA
ATOM     11  N   UNL     1       1.000  12.420  18.799  0.00  0.00    +0.000 N 
ENDROOT
BRANCH   1  15
ATOM     12  C   UNL     1      -4.068  11.306  18.412  0.00  0.00    +0.000 A 
ATOM     13  C   UNL     1      -3.086  11.155  17.434  0.00  0.00    +0.000 A 
ATOM     14  C   UNL     1      -1.810  11.695  17.614  0.00  0.00    +0.000 A 
ATOM     15  C   UNL     1      -1.502  12.421  18.772  0.00  0.00    +0.000 A 
ATOM     16  C   UNL     1      -2.480  12.554  19.764  0.00  0.00    +0.000 A 
ATOM     17  C   UNL     1      -3.759  11.993  19.589  0.00  0.00    +0.000 A 
BRANCH  12  19
ATOM     18  C   UNL     1      -6.361  11.032  18.968  0.00  0.00    +0.000 C 
ATOM     19  O   UNL     1      -5.286  10.792  18.071  0.00  0.00    +0.000 OA
ENDBRANCH  12  19
ENDBRANCH   1  15
BRANCH  11  20
ATOM     20  C   UNL     1       1.084  11.113  19.357  0.00  0.00    +0.000 A 
ATOM     21  C   UNL     1       0.874  10.961  20.732  0.00  0.00    +0.000 A 
ATOM     22  C   UNL     1       0.896   9.696  21.313  0.00  0.00    +0.000 A 
ATOM     23  C   UNL     1       1.093   8.567  20.519  0.00  0.00    +0.000 A 
ATOM     24  C   UNL     1       1.355   8.727  19.153  0.00  0.00    +0.000 A 
ATOM     25  C   UNL     1       1.372  10.000  18.571  0.00  0.00    +0.000 A 
BRANCH  23  26
ATOM     26  O   UNL     1       1.040   7.273  20.967  0.00  0.00    +0.000 OA
BRANCH  26  27
ATOM     27  C   UNL     1       1.873   6.337  20.275  0.00  0.00    +0.000 C 
BRANCH  27  28
ATOM     28  C   UNL     1       1.798   4.971  20.948  0.00  0.00    +0.000 C 
BRANCH  28  29
ATOM     29  C   UNL     1       1.386   3.871  19.967  0.00  0.00    +0.000 C 
BRANCH  29  30
ATOM     30  N   UNL     1       2.392   2.798  19.852  0.00  0.00    +0.000 NA
ATOM     31  C   UNL     1       3.689   3.355  19.425  0.00  0.00    +0.000 C 
ATOM     32  C   UNL     1       3.589   3.474  17.913  0.00  0.00    +0.000 C 
ATOM     33  C   UNL     1       2.700   2.310  17.509  0.00  0.00    +0.000 C 
ATOM     34  C   UNL     1       2.079   1.808  18.807  0.00  0.00    +0.000 C 
ENDBRANCH  29  30
ENDBRANCH  28  29
ENDBRANCH  27  28
ENDBRANCH  26  27
ENDBRANCH  23  26
ENDBRANCH  11  20
BRANCH   6  35
ATOM     35  O   UNL     1       4.542  17.430  18.461  0.00  0.00    +0.000 OA
ATOM     36  C   UNL     1       5.769  16.868  18.908  0.00  0.00    +0.000 C 
ENDBRANCH   6  35
TORSDOF 9
ENDMDL
