MODEL 1
REMARK VINA RESULT:      -7.7      0.000      0.000
REMARK  Name = 
REMARK  9 active torsions:
REMARK  status: ('A' for Active; 'I' for Inactive)
REMARK    1  A    between atoms: C_1  and  C_2
REMARK    2  A    between atoms: C_2  and  O_3
REMARK    3  A    between atoms: O_3  and  C_4
REMARK    4  A    between atoms: C_9  and  N_10
REMARK    5  A    between atoms: C_11  and  C_13
REMARK    6  A    between atoms: C_13  and  C_14
REMARK    7  A    between atoms: C_14  and  S_15
REMARK    8  A    between atoms: S_15  and  C_18
REMARK    9  A    between atoms: N_27  and  C_28
REMARK                            x       y       z     vdW  Elec       q    Type
REMARK                         _______ _______ _______ _____ _____    ______ ____
ROOT
ATOM      1  C   UNL     1       2.423   2.448  20.469  0.00  0.00    +0.000 C 
ENDROOT
BRANCH   1   2
ATOM      2  S   UNL     1       4.036   1.967  19.877  0.00  0.00    +0.000 S 
ATOM      3  O   UNL     1       4.972   2.074  20.977  0.00  0.00    +0.000 OA
ATOM      4  O   UNL     1       3.880   0.729  19.137  0.00  0.00    +0.000 OA
BRANCH   2   5
ATOM      5  C   UNL     1       4.472   3.202  18.674  0.00  0.00    +0.000 A 
ATOM      6  C   UNL     1       3.755   3.345  17.466  0.00  0.00    +0.000 A 
ATOM      7  C   UNL     1       4.050   4.405  16.584  0.00  0.00    +0.000 A 
ATOM      8  C   UNL     1       5.054   5.277  16.956  0.00  0.00    +0.000 A 
ATOM      9  C   UNL     1       5.756   5.108  18.135  0.00  0.00    +0.000 A 
ATOM     10  C   UNL     1       5.491   4.091  19.019  0.00  0.00    +0.000 A 
ATOM     11  O   UNL     1       6.712   6.074  18.359  0.00  0.00    +0.000 OA
ATOM     12  C   UNL     1       6.557   6.897  17.241  0.00  0.00    +0.000 A 
ATOM     13  O   UNL     1       7.212   7.916  17.074  0.00  0.00    +0.000 OA
ATOM     14  N   UNL     1       5.577   6.413  16.391  0.00  0.00    +0.000 N 
ATOM     15  C   UNL     1       5.167   7.109  15.212  0.00  0.00    +0.000 C 
ENDBRANCH   2   5
ENDBRANCH   1   2
BRANCH   1  16
ATOM     16  C   UNL     1       2.526   3.740  21.258  0.00  0.00    +0.000 C 
BRANCH  16  18
ATOM     17  N   UNL     1       2.664   5.972  20.311  0.00  0.00    +0.000 N 
ATOM     18  C   UNL     1       1.840   4.885  20.555  0.00  0.00    +0.000 C 
ATOM     19  O   UNL     1       0.661   4.775  20.232  0.00  0.00    +0.000 OA
ATOM     20  H   UNL     1       3.646   5.865  20.504  0.00  0.00    +0.000 HD
BRANCH  17  26
ATOM     21  C   UNL     1       1.540   8.171  20.399  0.00  0.00    +0.000 A 
ATOM     22  C   UNL     1       1.118   9.331  19.725  0.00  0.00    +0.000 A 
ATOM     23  C   UNL     1       1.431   9.547  18.384  0.00  0.00    +0.000 A 
ATOM     24  C   UNL     1       2.161   8.593  17.693  0.00  0.00    +0.000 A 
ATOM     25  C   UNL     1       2.580   7.433  18.347  0.00  0.00    +0.000 A 
ATOM     26  C   UNL     1       2.284   7.197  19.701  0.00  0.00    +0.000 A 
BRANCH  21  27
ATOM     27  O   UNL     1       1.078   8.116  21.689  0.00  0.00    +0.000 OA
BRANCH  27  29
ATOM     28  C   UNL     1      -0.174   9.547  23.154  0.00  0.00    +0.000 C 
ATOM     29  C   UNL     1       1.175   9.280  22.504  0.00  0.00    +0.000 C 
ENDBRANCH  27  29
ENDBRANCH  21  27
ENDBRANCH  17  26
ENDBRANCH  16  18
ENDBRANCH   1  16
TORSDOF 7
ENDMDL
MODEL 2
REMARK VINA RESULT:      -7.4      4.529      6.978
REMARK  Name = 
REMARK  9 active torsions:
REMARK  status: ('A' for Active; 'I' for Inactive)
REMARK    1  A    between atoms: C_1  and  C_2
REMARK    2  A    between atoms: C_2  and  O_3
REMARK    3  A    between atoms: O_3  and  C_4
REMARK    4  A    between atoms: C_9  and  N_10
REMARK    5  A    between atoms: C_11  and  C_13
REMARK    6  A    between atoms: C_13  and  C_14
REMARK    7  A    between atoms: C_14  and  S_15
REMARK    8  A    between atoms: S_15  and  C_18
REMARK    9  A    between atoms: N_27  and  C_28
REMARK                            x       y       z     vdW  Elec       q    Type
REMARK                         _______ _______ _______ _____ _____    ______ ____
ROOT
ATOM      1  C   UNL     1       6.969   7.588  17.462  0.00  0.00    +0.000 C 
ENDROOT
BRANCH   1   2
ATOM      2  S   UNL     1       7.013   5.896  16.898  0.00  0.00    +0.000 S 
ATOM      3  O   UNL     1       7.145   5.903  15.456  0.00  0.00    +0.000 OA
ATOM      4  O   UNL     1       7.955   5.179  17.738  0.00  0.00    +0.000 OA
BRANCH   2   5
ATOM      5  C   UNL     1       5.410   5.236  17.291  0.00  0.00    +0.000 A 
ATOM      6  C   UNL     1       4.841   4.179  16.548  0.00  0.00    +0.000 A 
ATOM      7  C   UNL     1       3.621   3.600  16.952  0.00  0.00    +0.000 A 
ATOM      8  C   UNL     1       3.024   4.109  18.089  0.00  0.00    +0.000 A 
ATOM      9  C   UNL     1       3.589   5.157  18.792  0.00  0.00    +0.000 A 
ATOM     10  C   UNL     1       4.779   5.740  18.429  0.00  0.00    +0.000 A 
ATOM     11  O   UNL     1       2.873   5.531  19.908  0.00  0.00    +0.000 OA
ATOM     12  C   UNL     1       1.810   4.625  19.885  0.00  0.00    +0.000 A 
ATOM     13  O   UNL     1       0.945   4.598  20.748  0.00  0.00    +0.000 OA
ATOM     14  N   UNL     1       1.889   3.784  18.788  0.00  0.00    +0.000 N 
ATOM     15  C   UNL     1       0.967   2.714  18.569  0.00  0.00    +0.000 C 
ENDBRANCH   2   5
ENDBRANCH   1   2
BRANCH   1  16
ATOM     16  C   UNL     1       8.195   7.882  18.308  0.00  0.00    +0.000 C 
BRANCH  16  18
ATOM     17  N   UNL     1       9.364   9.705  19.407  0.00  0.00    +0.000 N 
ATOM     18  C   UNL     1       8.468   9.363  18.406  0.00  0.00    +0.000 C 
ATOM     19  O   UNL     1       7.931  10.129  17.613  0.00  0.00    +0.000 OA
ATOM     20  H   UNL     1       9.835   8.957  19.887  0.00  0.00    +0.000 HD
BRANCH  17  26
ATOM     21  C   UNL     1       9.347  11.641  20.941  0.00  0.00    +0.000 A 
ATOM     22  C   UNL     1       9.720  12.973  21.199  0.00  0.00    +0.000 A 
ATOM     23  C   UNL     1      10.520  13.688  20.308  0.00  0.00    +0.000 A 
ATOM     24  C   UNL     1      10.946  13.081  19.138  0.00  0.00    +0.000 A 
ATOM     25  C   UNL     1      10.578  11.762  18.866  0.00  0.00    +0.000 A 
ATOM     26  C   UNL     1       9.779  11.018  19.752  0.00  0.00    +0.000 A 
BRANCH  21  27
ATOM     27  O   UNL     1       8.509  11.137  21.902  0.00  0.00    +0.000 OA
BRANCH  27  29
ATOM     28  C   UNL     1       6.754  11.908  23.347  0.00  0.00    +0.000 C 
ATOM     29  C   UNL     1       8.248  11.916  23.066  0.00  0.00    +0.000 C 
ENDBRANCH  27  29
ENDBRANCH  21  27
ENDBRANCH  17  26
ENDBRANCH  16  18
ENDBRANCH   1  16
TORSDOF 7
ENDMDL
MODEL 3
REMARK VINA RESULT:      -7.2      4.517      7.612
REMARK  Name = 
REMARK  9 active torsions:
REMARK  status: ('A' for Active; 'I' for Inactive)
REMARK    1  A    between atoms: C_1  and  C_2
REMARK    2  A    between atoms: C_2  and  O_3
REMARK    3  A    between atoms: O_3  and  C_4
REMARK    4  A    between atoms: C_9  and  N_10
REMARK    5  A    between atoms: C_11  and  C_13
REMARK    6  A    between atoms: C_13  and  C_14
REMARK    7  A    between atoms: C_14  and  S_15
REMARK    8  A    between atoms: S_15  and  C_18
REMARK    9  A    between atoms: N_27  and  C_28
REMARK                            x       y       z     vdW  Elec       q    Type
REMARK                         _______ _______ _______ _____ _____    ______ ____
ROOT
ATOM      1  C   UNL     1       7.087   7.070  18.144  0.00  0.00    +0.000 C 
ENDROOT
BRANCH   1   2
ATOM      2  S   UNL     1       7.057   5.440  17.421  0.00  0.00    +0.000 S 
ATOM      3  O   UNL     1       7.192   5.578  15.985  0.00  0.00    +0.000 OA
ATOM      4  O   UNL     1       7.963   4.605  18.186  0.00  0.00    +0.000 OA
BRANCH   2   5
ATOM      5  C   UNL     1       5.424   4.818  17.753  0.00  0.00    +0.000 A 
ATOM      6  C   UNL     1       4.717   4.050  16.802  0.00  0.00    +0.000 A 
ATOM      7  C   UNL     1       3.474   3.475  17.134  0.00  0.00    +0.000 A 
ATOM      8  C   UNL     1       2.995   3.695  18.410  0.00  0.00    +0.000 A 
ATOM      9  C   UNL     1       3.695   4.465  19.320  0.00  0.00    +0.000 A 
ATOM     10  C   UNL     1       4.910   5.036  19.032  0.00  0.00    +0.000 A 
ATOM     11  O   UNL     1       3.083   4.571  20.550  0.00  0.00    +0.000 OA
ATOM     12  C   UNL     1       1.940   3.787  20.372  0.00  0.00    +0.000 A 
ATOM     13  O   UNL     1       1.129   3.589  21.264  0.00  0.00    +0.000 OA
ATOM     14  N   UNL     1       1.877   3.275  19.087  0.00  0.00    +0.000 N 
ATOM     15  C   UNL     1       0.848   2.377  18.665  0.00  0.00    +0.000 C 
ENDBRANCH   2   5
ENDBRANCH   1   2
BRANCH   1  16
ATOM     16  C   UNL     1       8.339   7.807  17.705  0.00  0.00    +0.000 C 
BRANCH  16  18
ATOM     17  N   UNL     1       9.295   9.482  19.180  0.00  0.00    +0.000 N 
ATOM     18  C   UNL     1       8.354   9.234  18.194  0.00  0.00    +0.000 C 
ATOM     19  O   UNL     1       7.590  10.052  17.691  0.00  0.00    +0.000 OA
ATOM     20  H   UNL     1       9.950   8.749  19.394  0.00  0.00    +0.000 HD
BRANCH  17  26
ATOM     21  C   UNL     1      10.361  11.707  19.316  0.00  0.00    +0.000 A 
ATOM     22  C   UNL     1      10.606  12.878  20.055  0.00  0.00    +0.000 A 
ATOM     23  C   UNL     1      10.013  13.089  21.300  0.00  0.00    +0.000 A 
ATOM     24  C   UNL     1       9.177  12.119  21.828  0.00  0.00    +0.000 A 
ATOM     25  C   UNL     1       8.931  10.948  21.108  0.00  0.00    +0.000 A 
ATOM     26  C   UNL     1       9.510  10.717  19.848  0.00  0.00    +0.000 A 
BRANCH  21  27
ATOM     27  O   UNL     1      11.085  11.661  18.152  0.00  0.00    +0.000 OA
BRANCH  27  29
ATOM     28  C   UNL     1      11.413  13.435  16.567  0.00  0.00    +0.000 C 
ATOM     29  C   UNL     1      11.933  12.758  17.826  0.00  0.00    +0.000 C 
ENDBRANCH  27  29
ENDBRANCH  21  27
ENDBRANCH  17  26
ENDBRANCH  16  18
ENDBRANCH   1  16
TORSDOF 7
ENDMDL
MODEL 4
REMARK VINA RESULT:      -7.1      4.550      7.440
REMARK  Name = 
REMARK  9 active torsions:
REMARK  status: ('A' for Active; 'I' for Inactive)
REMARK    1  A    between atoms: C_1  and  C_2
REMARK    2  A    between atoms: C_2  and  O_3
REMARK    3  A    between atoms: O_3  and  C_4
REMARK    4  A    between atoms: C_9  and  N_10
REMARK    5  A    between atoms: C_11  and  C_13
REMARK    6  A    between atoms: C_13  and  C_14
REMARK    7  A    between atoms: C_14  and  S_15
REMARK    8  A    between atoms: S_15  and  C_18
REMARK    9  A    between atoms: N_27  and  C_28
REMARK                            x       y       z     vdW  Elec       q    Type
REMARK                         _______ _______ _______ _____ _____    ______ ____
ROOT
ATOM      1  C   UNL     1       7.897   7.090  18.214  0.00  0.00    +0.000 C 
ENDROOT
BRANCH   1   2
ATOM      2  S   UNL     1       7.050   5.865  17.232  0.00  0.00    +0.000 S 
ATOM      3  O   UNL     1       6.666   6.478  15.977  0.00  0.00    +0.000 OA
ATOM      4  O   UNL     1       7.843   4.651  17.266  0.00  0.00    +0.000 OA
BRANCH   2   5
ATOM      5  C   UNL     1       5.561   5.500  18.133  0.00  0.00    +0.000 A 
ATOM      6  C   UNL     1       4.388   6.268  17.967  0.00  0.00    +0.000 A 
ATOM      7  C   UNL     1       3.191   5.886  18.607  0.00  0.00    +0.000 A 
ATOM      8  C   UNL     1       3.225   4.747  19.387  0.00  0.00    +0.000 A 
ATOM      9  C   UNL     1       4.389   4.020  19.550  0.00  0.00    +0.000 A 
ATOM     10  C   UNL     1       5.571   4.360  18.938  0.00  0.00    +0.000 A 
ATOM     11  O   UNL     1       4.244   2.906  20.347  0.00  0.00    +0.000 OA
ATOM     12  C   UNL     1       2.885   2.955  20.668  0.00  0.00    +0.000 A 
ATOM     13  O   UNL     1       2.335   2.102  21.348  0.00  0.00    +0.000 OA
ATOM     14  N   UNL     1       2.277   4.066  20.108  0.00  0.00    +0.000 N 
ATOM     15  C   UNL     1       0.873   4.313  20.218  0.00  0.00    +0.000 C 
ENDBRANCH   2   5
ENDBRANCH   1   2
BRANCH   1  16
ATOM     16  C   UNL     1       7.769   8.454  17.562  0.00  0.00    +0.000 C 
BRANCH  16  18
ATOM     17  N   UNL     1       8.746  10.677  17.562  0.00  0.00    +0.000 N 
ATOM     18  C   UNL     1       8.592   9.498  18.274  0.00  0.00    +0.000 C 
ATOM     19  O   UNL     1       9.025   9.262  19.398  0.00  0.00    +0.000 OA
ATOM     20  H   UNL     1       8.215  10.782  16.714  0.00  0.00    +0.000 HD
BRANCH  17  26
ATOM     21  C   UNL     1       8.931  13.106  17.974  0.00  0.00    +0.000 A 
ATOM     22  C   UNL     1       9.738  14.211  18.303  0.00  0.00    +0.000 A 
ATOM     23  C   UNL     1      11.083  14.054  18.636  0.00  0.00    +0.000 A 
ATOM     24  C   UNL     1      11.643  12.786  18.628  0.00  0.00    +0.000 A 
ATOM     25  C   UNL     1      10.855  11.682  18.296  0.00  0.00    +0.000 A 
ATOM     26  C   UNL     1       9.495  11.813  17.966  0.00  0.00    +0.000 A 
BRANCH  21  27
ATOM     27  O   UNL     1       7.660  13.474  17.616  0.00  0.00    +0.000 OA
BRANCH  27  29
ATOM     28  C   UNL     1       5.635  14.744  17.844  0.00  0.00    +0.000 C 
ATOM     29  C   UNL     1       7.129  14.696  18.122  0.00  0.00    +0.000 C 
ENDBRANCH  27  29
ENDBRANCH  21  27
ENDBRANCH  17  26
ENDBRANCH  16  18
ENDBRANCH   1  16
TORSDOF 7
ENDMDL
MODEL 5
REMARK VINA RESULT:      -7.0      1.022      1.508
REMARK  Name = 
REMARK  9 active torsions:
REMARK  status: ('A' for Active; 'I' for Inactive)
REMARK    1  A    between atoms: C_1  and  C_2
REMARK    2  A    between atoms: C_2  and  O_3
REMARK    3  A    between atoms: O_3  and  C_4
REMARK    4  A    between atoms: C_9  and  N_10
REMARK    5  A    between atoms: C_11  and  C_13
REMARK    6  A    between atoms: C_13  and  C_14
REMARK    7  A    between atoms: C_14  and  S_15
REMARK    8  A    between atoms: S_15  and  C_18
REMARK    9  A    between atoms: N_27  and  C_28
REMARK                            x       y       z     vdW  Elec       q    Type
REMARK                         _______ _______ _______ _____ _____    ______ ____
ROOT
ATOM      1  C   UNL     1       2.347   2.391  20.498  0.00  0.00    +0.000 C 
ENDROOT
BRANCH   1   2
ATOM      2  S   UNL     1       4.002   1.980  19.976  0.00  0.00    +0.000 S 
ATOM      3  O   UNL     1       4.793   1.699  21.157  0.00  0.00    +0.000 OA
ATOM      4  O   UNL     1       3.894   1.019  18.895  0.00  0.00    +0.000 OA
BRANCH   2   5
ATOM      5  C   UNL     1       4.637   3.470  19.242  0.00  0.00    +0.000 A 
ATOM      6  C   UNL     1       5.614   4.257  19.891  0.00  0.00    +0.000 A 
ATOM      7  C   UNL     1       6.182   5.369  19.236  0.00  0.00    +0.000 A 
ATOM      8  C   UNL     1       5.744   5.642  17.956  0.00  0.00    +0.000 A 
ATOM      9  C   UNL     1       4.774   4.869  17.346  0.00  0.00    +0.000 A 
ATOM     10  C   UNL     1       4.203   3.776  17.952  0.00  0.00    +0.000 A 
ATOM     11  O   UNL     1       4.464   5.269  16.064  0.00  0.00    +0.000 OA
ATOM     12  C   UNL     1       5.330   6.351  15.883  0.00  0.00    +0.000 A 
ATOM     13  O   UNL     1       5.396   6.978  14.836  0.00  0.00    +0.000 OA
ATOM     14  N   UNL     1       6.085   6.586  17.020  0.00  0.00    +0.000 N 
ATOM     15  C   UNL     1       7.104   7.587  17.075  0.00  0.00    +0.000 C 
ENDBRANCH   2   5
ENDBRANCH   1   2
BRANCH   1  16
ATOM     16  C   UNL     1       2.338   3.756  21.161  0.00  0.00    +0.000 C 
BRANCH  16  18
ATOM     17  N   UNL     1       2.471   6.067  20.425  0.00  0.00    +0.000 N 
ATOM     18  C   UNL     1       1.869   4.837  20.217  0.00  0.00    +0.000 C 
ATOM     19  O   UNL     1       1.047   4.563  19.348  0.00  0.00    +0.000 OA
ATOM     20  H   UNL     1       3.233   6.109  21.081  0.00  0.00    +0.000 HD
BRANCH  17  26
ATOM     21  C   UNL     1       1.461   8.318  20.296  0.00  0.00    +0.000 A 
ATOM     22  C   UNL     1       1.150   9.453  19.524  0.00  0.00    +0.000 A 
ATOM     23  C   UNL     1       1.570   9.567  18.200  0.00  0.00    +0.000 A 
ATOM     24  C   UNL     1       2.296   8.537  17.624  0.00  0.00    +0.000 A 
ATOM     25  C   UNL     1       2.606   7.402  18.376  0.00  0.00    +0.000 A 
ATOM     26  C   UNL     1       2.202   7.267  19.716  0.00  0.00    +0.000 A 
BRANCH  21  27
ATOM     27  O   UNL     1       0.905   8.368  21.549  0.00  0.00    +0.000 OA
BRANCH  27  29
ATOM     28  C   UNL     1      -0.171   9.439  23.408  0.00  0.00    +0.000 C 
ATOM     29  C   UNL     1       0.620   9.639  22.125  0.00  0.00    +0.000 C 
ENDBRANCH  27  29
ENDBRANCH  21  27
ENDBRANCH  17  26
ENDBRANCH  16  18
ENDBRANCH   1  16
TORSDOF 7
ENDMDL
MODEL 6
REMARK VINA RESULT:      -6.9      4.295      8.334
REMARK  Name = 
REMARK  9 active torsions:
REMARK  status: ('A' for Active; 'I' for Inactive)
REMARK    1  A    between atoms: C_1  and  C_2
REMARK    2  A    between atoms: C_2  and  O_3
REMARK    3  A    between atoms: O_3  and  C_4
REMARK    4  A    between atoms: C_9  and  N_10
REMARK    5  A    between atoms: C_11  and  C_13
REMARK    6  A    between atoms: C_13  and  C_14
REMARK    7  A    between atoms: C_14  and  S_15
REMARK    8  A    between atoms: S_15  and  C_18
REMARK    9  A    between atoms: N_27  and  C_28
REMARK                            x       y       z     vdW  Elec       q    Type
REMARK                         _______ _______ _______ _____ _____    ______ ____
ROOT
ATOM      1  C   UNL     1       0.106   8.982  21.727  0.00  0.00    +0.000 C 
ENDROOT
BRANCH   1   2
ATOM      2  S   UNL     1      -0.053  10.731  21.413  0.00  0.00    +0.000 S 
ATOM      3  O   UNL     1      -0.898  11.301  22.442  0.00  0.00    +0.000 OA
ATOM      4  O   UNL     1       1.276  11.251  21.154  0.00  0.00    +0.000 OA
BRANCH   2   5
ATOM      5  C   UNL     1      -0.929  10.845  19.870  0.00  0.00    +0.000 A 
ATOM      6  C   UNL     1      -0.463  10.198  18.704  0.00  0.00    +0.000 A 
ATOM      7  C   UNL     1      -1.237  10.211  17.526  0.00  0.00    +0.000 A 
ATOM      8  C   UNL     1      -2.448  10.873  17.570  0.00  0.00    +0.000 A 
ATOM      9  C   UNL     1      -2.876  11.515  18.716  0.00  0.00    +0.000 A 
ATOM     10  C   UNL     1      -2.151  11.518  19.883  0.00  0.00    +0.000 A 
ATOM     11  O   UNL     1      -4.112  12.113  18.593  0.00  0.00    +0.000 OA
ATOM     12  C   UNL     1      -4.460  11.786  17.280  0.00  0.00    +0.000 A 
ATOM     13  O   UNL     1      -5.529  12.106  16.780  0.00  0.00    +0.000 OA
ATOM     14  N   UNL     1      -3.459  11.058  16.660  0.00  0.00    +0.000 N 
ATOM     15  C   UNL     1      -3.594  10.531  15.338  0.00  0.00    +0.000 C 
ENDBRANCH   2   5
ENDBRANCH   1   2
BRANCH   1  16
ATOM     16  C   UNL     1       1.560   8.566  21.605  0.00  0.00    +0.000 C 
BRANCH  16  18
ATOM     17  N   UNL     1       1.770   6.203  21.087  0.00  0.00    +0.000 N 
ATOM     18  C   UNL     1       1.752   7.487  20.568  0.00  0.00    +0.000 C 
ATOM     19  O   UNL     1       1.845   7.797  19.384  0.00  0.00    +0.000 OA
ATOM     20  H   UNL     1       1.539   6.090  22.060  0.00  0.00    +0.000 HD
BRANCH  17  26
ATOM     21  C   UNL     1       3.196   4.714  19.725  0.00  0.00    +0.000 A 
ATOM     22  C   UNL     1       3.316   3.550  18.945  0.00  0.00    +0.000 A 
ATOM     23  C   UNL     1       2.250   2.664  18.793  0.00  0.00    +0.000 A 
ATOM     24  C   UNL     1       1.041   2.942  19.411  0.00  0.00    +0.000 A 
ATOM     25  C   UNL     1       0.906   4.098  20.182  0.00  0.00    +0.000 A 
ATOM     26  C   UNL     1       1.968   5.001  20.357  0.00  0.00    +0.000 A 
BRANCH  21  27
ATOM     27  O   UNL     1       4.331   5.483  19.697  0.00  0.00    +0.000 OA
BRANCH  27  29
ATOM     28  C   UNL     1       5.624   6.151  17.788  0.00  0.00    +0.000 C 
ATOM     29  C   UNL     1       5.409   5.088  18.853  0.00  0.00    +0.000 C 
ENDBRANCH  27  29
ENDBRANCH  21  27
ENDBRANCH  17  26
ENDBRANCH  16  18
ENDBRANCH   1  16
TORSDOF 7
ENDMDL
MODEL 7
REMARK VINA RESULT:      -6.9      4.401      8.345
REMARK  Name = 
REMARK  9 active torsions:
REMARK  status: ('A' for Active; 'I' for Inactive)
REMARK    1  A    between atoms: C_1  and  C_2
REMARK    2  A    between atoms: C_2  and  O_3
REMARK    3  A    between atoms: O_3  and  C_4
REMARK    4  A    between atoms: C_9  and  N_10
REMARK    5  A    between atoms: C_11  and  C_13
REMARK    6  A    between atoms: C_13  and  C_14
REMARK    7  A    between atoms: C_14  and  S_15
REMARK    8  A    between atoms: S_15  and  C_18
REMARK    9  A    between atoms: N_27  and  C_28
REMARK                            x       y       z     vdW  Elec       q    Type
REMARK                         _______ _______ _______ _____ _____    ______ ____
ROOT
ATOM      1  C   UNL     1       0.378   9.111  21.196  0.00  0.00    +0.000 C 
ENDROOT
BRANCH   1   2
ATOM      2  S   UNL     1       0.435  10.785  20.581  0.00  0.00    +0.000 S 
ATOM      3  O   UNL     1       0.339  11.686  21.710  0.00  0.00    +0.000 OA
ATOM      4  O   UNL     1       1.537  10.868  19.641  0.00  0.00    +0.000 OA
BRANCH   2   5
ATOM      5  C   UNL     1      -1.045  10.971  19.613  0.00  0.00    +0.000 A 
ATOM      6  C   UNL     1      -2.082  11.846  20.007  0.00  0.00    +0.000 A 
ATOM      7  C   UNL     1      -3.191  12.059  19.163  0.00  0.00    +0.000 A 
ATOM      8  C   UNL     1      -3.210  11.385  17.958  0.00  0.00    +0.000 A 
ATOM      9  C   UNL     1      -2.193  10.521  17.600  0.00  0.00    +0.000 A 
ATOM     10  C   UNL     1      -1.096  10.293  18.395  0.00  0.00    +0.000 A 
ATOM     11  O   UNL     1      -2.360   9.944  16.360  0.00  0.00    +0.000 OA
ATOM     12  C   UNL     1      -3.558  10.523  15.933  0.00  0.00    +0.000 A 
ATOM     13  O   UNL     1      -4.048  10.295  14.837  0.00  0.00    +0.000 OA
ATOM     14  N   UNL     1      -4.077  11.374  16.894  0.00  0.00    +0.000 N 
ATOM     15  C   UNL     1      -5.255  12.153  16.678  0.00  0.00    +0.000 C 
ENDBRANCH   2   5
ENDBRANCH   1   2
BRANCH   1  16
ATOM     16  C   UNL     1       1.779   8.530  21.242  0.00  0.00    +0.000 C 
BRANCH  16  18
ATOM     17  N   UNL     1       1.872   6.123  20.939  0.00  0.00    +0.000 N 
ATOM     18  C   UNL     1       1.932   7.355  20.308  0.00  0.00    +0.000 C 
ATOM     19  O   UNL     1       2.061   7.553  19.104  0.00  0.00    +0.000 OA
ATOM     20  H   UNL     1       1.620   6.109  21.913  0.00  0.00    +0.000 HD
BRANCH  17  26
ATOM     21  C   UNL     1       3.250   4.435  19.773  0.00  0.00    +0.000 A 
ATOM     22  C   UNL     1       3.324   3.202  19.100  0.00  0.00    +0.000 A 
ATOM     23  C   UNL     1       2.208   2.375  18.974  0.00  0.00    +0.000 A 
ATOM     24  C   UNL     1       0.996   2.781  19.511  0.00  0.00    +0.000 A 
ATOM     25  C   UNL     1       0.907   4.006  20.175  0.00  0.00    +0.000 A 
ATOM     26  C   UNL     1       2.019   4.852  20.322  0.00  0.00    +0.000 A 
BRANCH  21  27
ATOM     27  O   UNL     1       4.434   5.126  19.732  0.00  0.00    +0.000 OA
BRANCH  27  29
ATOM     28  C   UNL     1       6.675   5.550  18.984  0.00  0.00    +0.000 C 
ATOM     29  C   UNL     1       5.366   4.832  18.696  0.00  0.00    +0.000 C 
ENDBRANCH  27  29
ENDBRANCH  21  27
ENDBRANCH  17  26
ENDBRANCH  16  18
ENDBRANCH   1  16
TORSDOF 7
ENDMDL
MODEL 8
REMARK VINA RESULT:      -6.9      2.566      3.662
REMARK  Name = 
REMARK  9 active torsions:
REMARK  status: ('A' for Active; 'I' for Inactive)
REMARK    1  A    between atoms: C_1  and  C_2
REMARK    2  A    between atoms: C_2  and  O_3
REMARK    3  A    between atoms: O_3  and  C_4
REMARK    4  A    between atoms: C_9  and  N_10
REMARK    5  A    between atoms: C_11  and  C_13
REMARK    6  A    between atoms: C_13  and  C_14
REMARK    7  A    between atoms: C_14  and  S_15
REMARK    8  A    between atoms: S_15  and  C_18
REMARK    9  A    between atoms: N_27  and  C_28
REMARK                            x       y       z     vdW  Elec       q    Type
REMARK                         _______ _______ _______ _____ _____    ______ ____
ROOT
ATOM      1  C   UNL     1       2.011   6.205  21.023  0.00  0.00    +0.000 C 
ENDROOT
BRANCH   1   2
ATOM      2  S   UNL     1       1.855   4.477  20.606  0.00  0.00    +0.000 S 
ATOM      3  O   UNL     1       2.331   3.695  21.729  0.00  0.00    +0.000 OA
ATOM      4  O   UNL     1       0.527   4.278  20.057  0.00  0.00    +0.000 OA
BRANCH   2   5
ATOM      5  C   UNL     1       2.983   4.225  19.256  0.00  0.00    +0.000 A 
ATOM      6  C   UNL     1       2.525   3.941  17.950  0.00  0.00    +0.000 A 
ATOM      7  C   UNL     1       3.436   3.860  16.878  0.00  0.00    +0.000 A 
ATOM      8  C   UNL     1       4.770   4.068  17.163  0.00  0.00    +0.000 A 
ATOM      9  C   UNL     1       5.200   4.327  18.451  0.00  0.00    +0.000 A 
ATOM     10  C   UNL     1       4.340   4.419  19.518  0.00  0.00    +0.000 A 
ATOM     11  O   UNL     1       6.559   4.526  18.557  0.00  0.00    +0.000 OA
ATOM     12  C   UNL     1       6.974   4.397  17.229  0.00  0.00    +0.000 A 
ATOM     13  O   UNL     1       8.137   4.544  16.882  0.00  0.00    +0.000 OA
ATOM     14  N   UNL     1       5.907   4.107  16.395  0.00  0.00    +0.000 N 
ATOM     15  C   UNL     1       6.045   4.002  14.976  0.00  0.00    +0.000 C 
ENDBRANCH   2   5
ENDBRANCH   1   2
BRANCH   1  16
ATOM     16  C   UNL     1       2.048   7.040  19.756  0.00  0.00    +0.000 C 
BRANCH  16  18
ATOM     17  N   UNL     1       1.331   9.166  18.827  0.00  0.00    +0.000 N 
ATOM     18  C   UNL     1       1.529   8.438  19.989  0.00  0.00    +0.000 C 
ATOM     19  O   UNL     1       1.297   8.812  21.134  0.00  0.00    +0.000 OA
ATOM     20  H   UNL     1       1.428   8.681  17.950  0.00  0.00    +0.000 HD
BRANCH  17  26
ATOM     21  C   UNL     1      -0.453  10.830  18.435  0.00  0.00    +0.000 A 
ATOM     22  C   UNL     1      -0.825  12.178  18.280  0.00  0.00    +0.000 A 
ATOM     23  C   UNL     1       0.100  13.209  18.437  0.00  0.00    +0.000 A 
ATOM     24  C   UNL     1       1.418  12.902  18.736  0.00  0.00    +0.000 A 
ATOM     25  C   UNL     1       1.802  11.568  18.885  0.00  0.00    +0.000 A 
ATOM     26  C   UNL     1       0.886  10.511  18.741  0.00  0.00    +0.000 A 
BRANCH  21  27
ATOM     27  O   UNL     1      -1.488   9.968  18.179  0.00  0.00    +0.000 OA
BRANCH  27  29
ATOM     28  C   UNL     1      -3.713  10.223  17.313  0.00  0.00    +0.000 C 
ATOM     29  C   UNL     1      -2.234  10.127  16.975  0.00  0.00    +0.000 C 
ENDBRANCH  27  29
ENDBRANCH  21  27
ENDBRANCH  17  26
ENDBRANCH  16  18
ENDBRANCH   1  16
TORSDOF 7
ENDMDL
MODEL 9
REMARK VINA RESULT:      -6.9      2.144      5.801
REMARK  Name = 
REMARK  9 active torsions:
REMARK  status: ('A' for Active; 'I' for Inactive)
REMARK    1  A    between atoms: C_1  and  C_2
REMARK    2  A    between atoms: C_2  and  O_3
REMARK    3  A    between atoms: O_3  and  C_4
REMARK    4  A    between atoms: C_9  and  N_10
REMARK    5  A    between atoms: C_11  and  C_13
REMARK    6  A    between atoms: C_13  and  C_14
REMARK    7  A    between atoms: C_14  and  S_15
REMARK    8  A    between atoms: S_15  and  C_18
REMARK    9  A    between atoms: N_27  and  C_28
REMARK                            x       y       z     vdW  Elec       q    Type
REMARK                         _______ _______ _______ _____ _____    ______ ____
ROOT
ATOM      1  C   UNL     1       1.581   2.907  19.316  0.00  0.00    +0.000 C 
ENDROOT
BRANCH   1   2
ATOM      2  S   UNL     1       2.592   3.798  20.485  0.00  0.00    +0.000 S 
ATOM      3  O   UNL     1       2.007   3.643  21.801  0.00  0.00    +0.000 OA
ATOM      4  O   UNL     1       3.975   3.442  20.228  0.00  0.00    +0.000 OA
BRANCH   2   5
ATOM      5  C   UNL     1       2.435   5.507  20.022  0.00  0.00    +0.000 A 
ATOM      6  C   UNL     1       2.949   5.993  18.799  0.00  0.00    +0.000 A 
ATOM      7  C   UNL     1       2.710   7.326  18.407  0.00  0.00    +0.000 A 
ATOM      8  C   UNL     1       1.963   8.113  19.260  0.00  0.00    +0.000 A 
ATOM      9  C   UNL     1       1.485   7.623  20.461  0.00  0.00    +0.000 A 
ATOM     10  C   UNL     1       1.694   6.329  20.872  0.00  0.00    +0.000 A 
ATOM     11  O   UNL     1       0.747   8.535  21.183  0.00  0.00    +0.000 OA
ATOM     12  C   UNL     1       0.765   9.651  20.342  0.00  0.00    +0.000 A 
ATOM     13  O   UNL     1       0.178  10.689  20.608  0.00  0.00    +0.000 OA
ATOM     14  N   UNL     1       1.506   9.406  19.198  0.00  0.00    +0.000 N 
ATOM     15  C   UNL     1       1.621  10.357  18.136  0.00  0.00    +0.000 C 
ENDBRANCH   2   5
ENDBRANCH   1   2
BRANCH   1  16
ATOM     16  C   UNL     1       2.460   2.063  18.412  0.00  0.00    +0.000 C 
BRANCH  16  18
ATOM     17  N   UNL     1       4.477   2.895  17.344  0.00  0.00    +0.000 N 
ATOM     18  C   UNL     1       3.091   2.884  17.314  0.00  0.00    +0.000 C 
ATOM     19  O   UNL     1       2.374   3.438  16.487  0.00  0.00    +0.000 OA
ATOM     20  H   UNL     1       4.934   2.279  17.995  0.00  0.00    +0.000 HD
BRANCH  17  26
ATOM     21  C   UNL     1       6.308   4.504  16.944  0.00  0.00    +0.000 A 
ATOM     22  C   UNL     1       7.076   5.248  16.029  0.00  0.00    +0.000 A 
ATOM     23  C   UNL     1       6.901   5.107  14.653  0.00  0.00    +0.000 A 
ATOM     24  C   UNL     1       5.943   4.228  14.174  0.00  0.00    +0.000 A 
ATOM     25  C   UNL     1       5.169   3.490  15.072  0.00  0.00    +0.000 A 
ATOM     26  C   UNL     1       5.332   3.607  16.463  0.00  0.00    +0.000 A 
BRANCH  21  27
ATOM     27  O   UNL     1       6.585   4.832  18.247  0.00  0.00    +0.000 OA
BRANCH  27  29
ATOM     28  C   UNL     1       8.108   5.775  19.845  0.00  0.00    +0.000 C 
ATOM     29  C   UNL     1       7.402   5.968  18.512  0.00  0.00    +0.000 C 
ENDBRANCH  27  29
ENDBRANCH  21  27
ENDBRANCH  17  26
ENDBRANCH  16  18
ENDBRANCH   1  16
TORSDOF 7
ENDMDL
