MODEL 1
REMARK VINA RESULT:      -6.3      0.000      0.000
REMARK  Name = 
REMARK  4 active torsions:
REMARK  status: ('A' for Active; 'I' for Inactive)
REMARK    1  A    between atoms: C_1  and  C_2
REMARK    2  A    between atoms: C_6  and  C_7
REMARK    3  A    between atoms: C_7  and  N_8
REMARK    4  A    between atoms: N_8  and  C_9
REMARK                            x       y       z     vdW  Elec       q    Type
REMARK                         _______ _______ _______ _____ _____    ______ ____
ROOT
ATOM      1  C   UNL     1       1.289   3.160  20.996  0.00  0.00    +0.000 C 
ATOM      2  C   UNL     1       2.040   4.160  20.157  0.00  0.00    +0.000 A 
ATOM      3  C   UNL     1       1.853   5.526  20.421  0.00  0.00    +0.000 A 
ATOM      4  C   UNL     1       2.523   6.493  19.678  0.00  0.00    +0.000 A 
ATOM      5  C   UNL     1       3.392   6.108  18.659  0.00  0.00    +0.000 A 
ATOM      6  C   UNL     1       3.614   4.749  18.367  0.00  0.00    +0.000 A 
ATOM      7  C   UNL     1       2.930   3.775  19.129  0.00  0.00    +0.000 A 
ATOM      8 BR   UNL     1       3.210   1.915  18.790  0.00  0.00    +0.000 Br
ENDROOT
BRANCH   6   9
ATOM      9  C   UNL     1       4.614   4.414  17.278  0.00  0.00    +0.000 C 
BRANCH   9  10
ATOM     10  N   UNL     1       5.933   3.984  17.745  0.00  0.00    +0.000 NA
ATOM     11  H   UNL     1       6.209   3.157  17.213  0.00  0.00    +0.000 HD
BRANCH  10  12
ATOM     12  C   UNL     1       6.980   4.997  17.649  0.00  0.00    +0.000 C 
ATOM     13  C   UNL     1       6.611   6.236  16.856  0.00  0.00    +0.000 C 
ATOM     14  C   UNL     1       7.649   7.227  17.341  0.00  0.00    +0.000 C 
ATOM     15  O   UNL     1       7.918   6.913  18.714  0.00  0.00    +0.000 OA
ATOM     16  C   UNL     1       7.333   5.629  18.999  0.00  0.00    +0.000 C 
ENDBRANCH  10  12
ENDBRANCH   9  10
ENDBRANCH   6   9
TORSDOF 3
ENDMDL
MODEL 2
REMARK VINA RESULT:      -6.2      2.082      2.738
REMARK  Name = 
REMARK  4 active torsions:
REMARK  status: ('A' for Active; 'I' for Inactive)
REMARK    1  A    between atoms: C_1  and  C_2
REMARK    2  A    between atoms: C_6  and  C_7
REMARK    3  A    between atoms: C_7  and  N_8
REMARK    4  A    between atoms: N_8  and  C_9
REMARK                            x       y       z     vdW  Elec       q    Type
REMARK                         _______ _______ _______ _____ _____    ______ ____
ROOT
ATOM      1  C   UNL     1       1.108   2.913  21.213  0.00  0.00    +0.000 C 
ATOM      2  C   UNL     1       1.761   3.093  19.868  0.00  0.00    +0.000 A 
ATOM      3  C   UNL     1       1.867   1.977  19.024  0.00  0.00    +0.000 A 
ATOM      4  C   UNL     1       2.459   2.087  17.770  0.00  0.00    +0.000 A 
ATOM      5  C   UNL     1       2.954   3.317  17.340  0.00  0.00    +0.000 A 
ATOM      6  C   UNL     1       2.860   4.462  18.153  0.00  0.00    +0.000 A 
ATOM      7  C   UNL     1       2.255   4.340  19.424  0.00  0.00    +0.000 A 
ATOM      8 BR   UNL     1       2.082   5.868  20.559  0.00  0.00    +0.000 Br
ENDROOT
BRANCH   6   9
ATOM      9  C   UNL     1       3.376   5.772  17.590  0.00  0.00    +0.000 C 
BRANCH   9  10
ATOM     10  N   UNL     1       4.821   5.978  17.695  0.00  0.00    +0.000 NA
ATOM     11  H   UNL     1       5.089   5.883  18.676  0.00  0.00    +0.000 HD
BRANCH  10  12
ATOM     12  C   UNL     1       5.632   5.079  16.879  0.00  0.00    +0.000 C 
ATOM     13  C   UNL     1       5.764   5.472  15.420  0.00  0.00    +0.000 C 
ATOM     14  C   UNL     1       6.984   4.679  15.002  0.00  0.00    +0.000 C 
ATOM     15  O   UNL     1       7.850   4.611  16.143  0.00  0.00    +0.000 OA
ATOM     16  C   UNL     1       7.106   5.055  17.292  0.00  0.00    +0.000 C 
ENDBRANCH  10  12
ENDBRANCH   9  10
ENDBRANCH   6   9
TORSDOF 3
ENDMDL
MODEL 3
REMARK VINA RESULT:      -6.2      1.736      2.490
REMARK  Name = 
REMARK  4 active torsions:
REMARK  status: ('A' for Active; 'I' for Inactive)
REMARK    1  A    between atoms: C_1  and  C_2
REMARK    2  A    between atoms: C_6  and  C_7
REMARK    3  A    between atoms: C_7  and  N_8
REMARK    4  A    between atoms: N_8  and  C_9
REMARK                            x       y       z     vdW  Elec       q    Type
REMARK                         _______ _______ _______ _____ _____    ______ ____
ROOT
ATOM      1  C   UNL     1       1.420   6.283  20.977  0.00  0.00    +0.000 C 
ATOM      2  C   UNL     1       2.063   5.000  20.523  0.00  0.00    +0.000 A 
ATOM      3  C   UNL     1       2.089   3.915  21.412  0.00  0.00    +0.000 A 
ATOM      4  C   UNL     1       2.669   2.705  21.043  0.00  0.00    +0.000 A 
ATOM      5  C   UNL     1       3.232   2.562  19.777  0.00  0.00    +0.000 A 
ATOM      6  C   UNL     1       3.220   3.623  18.852  0.00  0.00    +0.000 A 
ATOM      7  C   UNL     1       2.627   4.846  19.236  0.00  0.00    +0.000 A 
ATOM      8 BR   UNL     1       2.564   6.312  18.011  0.00  0.00    +0.000 Br
ENDROOT
BRANCH   6   9
ATOM      9  C   UNL     1       3.806   3.368  17.477  0.00  0.00    +0.000 C 
BRANCH   9  10
ATOM     10  N   UNL     1       5.263   3.483  17.382  0.00  0.00    +0.000 NA
ATOM     11  H   UNL     1       5.599   2.779  16.723  0.00  0.00    +0.000 HD
BRANCH  10  12
ATOM     12  C   UNL     1       5.751   4.799  16.980  0.00  0.00    +0.000 C 
ATOM     13  C   UNL     1       6.421   5.604  18.077  0.00  0.00    +0.000 C 
ATOM     14  C   UNL     1       7.203   6.621  17.274  0.00  0.00    +0.000 C 
ATOM     15  O   UNL     1       7.613   5.971  16.063  0.00  0.00    +0.000 OA
ATOM     16  C   UNL     1       6.887   4.734  15.955  0.00  0.00    +0.000 C 
ENDBRANCH  10  12
ENDBRANCH   9  10
ENDBRANCH   6   9
TORSDOF 3
ENDMDL
MODEL 4
REMARK VINA RESULT:      -6.2      1.891      2.216
REMARK  Name = 
REMARK  4 active torsions:
REMARK  status: ('A' for Active; 'I' for Inactive)
REMARK    1  A    between atoms: C_1  and  C_2
REMARK    2  A    between atoms: C_6  and  C_7
REMARK    3  A    between atoms: C_7  and  N_8
REMARK    4  A    between atoms: N_8  and  C_9
REMARK                            x       y       z     vdW  Elec       q    Type
REMARK                         _______ _______ _______ _____ _____    ______ ____
ROOT
ATOM      1  C   UNL     1       1.294   4.701  20.762  0.00  0.00    +0.000 C 
ATOM      2  C   UNL     1       2.133   5.162  19.599  0.00  0.00    +0.000 A 
ATOM      3  C   UNL     1       2.387   6.535  19.462  0.00  0.00    +0.000 A 
ATOM      4  C   UNL     1       3.157   7.015  18.408  0.00  0.00    +0.000 A 
ATOM      5  C   UNL     1       3.687   6.128  17.474  0.00  0.00    +0.000 A 
ATOM      6  C   UNL     1       3.462   4.743  17.578  0.00  0.00    +0.000 A 
ATOM      7  C   UNL     1       2.680   4.266  18.654  0.00  0.00    +0.000 A 
ATOM      8 BR   UNL     1       2.362   2.391  18.856  0.00  0.00    +0.000 Br
ENDROOT
BRANCH   6   9
ATOM      9  C   UNL     1       4.117   3.841  16.550  0.00  0.00    +0.000 C 
BRANCH   9  10
ATOM     10  N   UNL     1       5.494   3.443  16.846  0.00  0.00    +0.000 NA
ATOM     11  H   UNL     1       5.514   2.432  16.985  0.00  0.00    +0.000 HD
BRANCH  10  12
ATOM     12  C   UNL     1       6.474   3.816  15.831  0.00  0.00    +0.000 C 
ATOM     13  C   UNL     1       5.906   4.085  14.451  0.00  0.00    +0.000 C 
ATOM     14  C   UNL     1       7.026   4.879  13.811  0.00  0.00    +0.000 C 
ATOM     15  O   UNL     1       7.638   5.652  14.852  0.00  0.00    +0.000 OA
ATOM     16  C   UNL     1       7.154   5.159  16.114  0.00  0.00    +0.000 C 
ENDBRANCH  10  12
ENDBRANCH   9  10
ENDBRANCH   6   9
TORSDOF 3
ENDMDL
MODEL 5
REMARK VINA RESULT:      -6.2      2.187      2.954
REMARK  Name = 
REMARK  4 active torsions:
REMARK  status: ('A' for Active; 'I' for Inactive)
REMARK    1  A    between atoms: C_1  and  C_2
REMARK    2  A    between atoms: C_6  and  C_7
REMARK    3  A    between atoms: C_7  and  N_8
REMARK    4  A    between atoms: N_8  and  C_9
REMARK                            x       y       z     vdW  Elec       q    Type
REMARK                         _______ _______ _______ _____ _____    ______ ____
ROOT
ATOM      1  C   UNL     1       1.235   2.831  21.149  0.00  0.00    +0.000 C 
ATOM      2  C   UNL     1       1.955   3.038  19.843  0.00  0.00    +0.000 A 
ATOM      3  C   UNL     1       2.178   1.924  19.019  0.00  0.00    +0.000 A 
ATOM      4  C   UNL     1       2.836   2.059  17.801  0.00  0.00    +0.000 A 
ATOM      5  C   UNL     1       3.282   3.312  17.387  0.00  0.00    +0.000 A 
ATOM      6  C   UNL     1       3.073   4.457  18.179  0.00  0.00    +0.000 A 
ATOM      7  C   UNL     1       2.401   4.309  19.414  0.00  0.00    +0.000 A 
ATOM      8 BR   UNL     1       2.070   5.833  20.519  0.00  0.00    +0.000 Br
ENDROOT
BRANCH   6   9
ATOM      9  C   UNL     1       3.542   5.791  17.633  0.00  0.00    +0.000 C 
BRANCH   9  10
ATOM     10  N   UNL     1       4.896   6.189  18.021  0.00  0.00    +0.000 NA
ATOM     11  H   UNL     1       5.185   5.616  18.816  0.00  0.00    +0.000 HD
BRANCH  10  12
ATOM     12  C   UNL     1       5.895   6.090  16.960  0.00  0.00    +0.000 C 
ATOM     13  C   UNL     1       6.668   4.785  16.919  0.00  0.00    +0.000 C 
ATOM     14  C   UNL     1       7.217   4.803  15.508  0.00  0.00    +0.000 C 
ATOM     15  O   UNL     1       6.242   5.461  14.687  0.00  0.00    +0.000 OA
ATOM     16  C   UNL     1       5.284   6.092  15.556  0.00  0.00    +0.000 C 
ENDBRANCH  10  12
ENDBRANCH   9  10
ENDBRANCH   6   9
TORSDOF 3
ENDMDL
MODEL 6
REMARK VINA RESULT:      -6.1      2.061      2.828
REMARK  Name = 
REMARK  4 active torsions:
REMARK  status: ('A' for Active; 'I' for Inactive)
REMARK    1  A    between atoms: C_1  and  C_2
REMARK    2  A    between atoms: C_6  and  C_7
REMARK    3  A    between atoms: C_7  and  N_8
REMARK    4  A    between atoms: N_8  and  C_9
REMARK                            x       y       z     vdW  Elec       q    Type
REMARK                         _______ _______ _______ _____ _____    ______ ____
ROOT
ATOM      1  C   UNL     1       1.774   7.758  20.227  0.00  0.00    +0.000 C 
ATOM      2  C   UNL     1       2.155   6.330  19.937  0.00  0.00    +0.000 A 
ATOM      3  C   UNL     1       1.665   5.323  20.782  0.00  0.00    +0.000 A 
ATOM      4  C   UNL     1       1.984   3.988  20.559  0.00  0.00    +0.000 A 
ATOM      5  C   UNL     1       2.799   3.639  19.484  0.00  0.00    +0.000 A 
ATOM      6  C   UNL     1       3.306   4.616  18.608  0.00  0.00    +0.000 A 
ATOM      7  C   UNL     1       2.974   5.969  18.843  0.00  0.00    +0.000 A 
ATOM      8 BR   UNL     1       3.616   7.336  17.671  0.00  0.00    +0.000 Br
ENDROOT
BRANCH   6   9
ATOM      9  C   UNL     1       4.142   4.148  17.433  0.00  0.00    +0.000 C 
BRANCH   9  10
ATOM     10  N   UNL     1       5.538   3.830  17.740  0.00  0.00    +0.000 NA
ATOM     11  H   UNL     1       5.596   2.841  17.987  0.00  0.00    +0.000 HD
BRANCH  10  12
ATOM     12  C   UNL     1       6.486   4.122  16.669  0.00  0.00    +0.000 C 
ATOM     13  C   UNL     1       5.917   4.052  15.265  0.00  0.00    +0.000 C 
ATOM     14  C   UNL     1       6.945   4.841  14.482  0.00  0.00    +0.000 C 
ATOM     15  O   UNL     1       7.436   5.868  15.354  0.00  0.00    +0.000 OA
ATOM     16  C   UNL     1       6.991   5.568  16.689  0.00  0.00    +0.000 C 
ENDBRANCH  10  12
ENDBRANCH   9  10
ENDBRANCH   6   9
TORSDOF 3
ENDMDL
MODEL 7
REMARK VINA RESULT:      -6.0      1.741      2.091
REMARK  Name = 
REMARK  4 active torsions:
REMARK  status: ('A' for Active; 'I' for Inactive)
REMARK    1  A    between atoms: C_1  and  C_2
REMARK    2  A    between atoms: C_6  and  C_7
REMARK    3  A    between atoms: C_7  and  N_8
REMARK    4  A    between atoms: N_8  and  C_9
REMARK                            x       y       z     vdW  Elec       q    Type
REMARK                         _______ _______ _______ _____ _____    ______ ____
ROOT
ATOM      1  C   UNL     1       0.701   2.007  19.065  0.00  0.00    +0.000 C 
ATOM      2  C   UNL     1       1.489   3.218  19.488  0.00  0.00    +0.000 A 
ATOM      3  C   UNL     1       0.886   4.135  20.363  0.00  0.00    +0.000 A 
ATOM      4  C   UNL     1       1.569   5.270  20.787  0.00  0.00    +0.000 A 
ATOM      5  C   UNL     1       2.868   5.506  20.343  0.00  0.00    +0.000 A 
ATOM      6  C   UNL     1       3.512   4.608  19.471  0.00  0.00    +0.000 A 
ATOM      7  C   UNL     1       2.810   3.458  19.048  0.00  0.00    +0.000 A 
ATOM      8 BR   UNL     1       3.646   2.194  17.882  0.00  0.00    +0.000 Br
ENDROOT
BRANCH   6   9
ATOM      9  C   UNL     1       4.945   4.912  19.076  0.00  0.00    +0.000 C 
BRANCH   9  10
ATOM     10  N   UNL     1       5.108   5.678  17.839  0.00  0.00    +0.000 NA
ATOM     11  H   UNL     1       5.644   6.521  18.051  0.00  0.00    +0.000 HD
BRANCH  10  12
ATOM     12  C   UNL     1       5.751   4.953  16.747  0.00  0.00    +0.000 C 
ATOM     13  C   UNL     1       5.685   5.630  15.392  0.00  0.00    +0.000 C 
ATOM     14  C   UNL     1       6.796   4.923  14.644  0.00  0.00    +0.000 C 
ATOM     15  O   UNL     1       7.816   4.616  15.604  0.00  0.00    +0.000 OA
ATOM     16  C   UNL     1       7.268   4.827  16.918  0.00  0.00    +0.000 C 
ENDBRANCH  10  12
ENDBRANCH   9  10
ENDBRANCH   6   9
TORSDOF 3
ENDMDL
MODEL 8
REMARK VINA RESULT:      -6.0      0.865      1.210
REMARK  Name = 
REMARK  4 active torsions:
REMARK  status: ('A' for Active; 'I' for Inactive)
REMARK    1  A    between atoms: C_1  and  C_2
REMARK    2  A    between atoms: C_6  and  C_7
REMARK    3  A    between atoms: C_7  and  N_8
REMARK    4  A    between atoms: N_8  and  C_9
REMARK                            x       y       z     vdW  Elec       q    Type
REMARK                         _______ _______ _______ _____ _____    ______ ____
ROOT
ATOM      1  C   UNL     1       1.839   2.692  21.522  0.00  0.00    +0.000 C 
ATOM      2  C   UNL     1       2.194   3.706  20.466  0.00  0.00    +0.000 A 
ATOM      3  C   UNL     1       1.831   5.045  20.678  0.00  0.00    +0.000 A 
ATOM      4  C   UNL     1       2.136   6.022  19.736  0.00  0.00    +0.000 A 
ATOM      5  C   UNL     1       2.811   5.675  18.568  0.00  0.00    +0.000 A 
ATOM      6  C   UNL     1       3.199   4.345  18.320  0.00  0.00    +0.000 A 
ATOM      7  C   UNL     1       2.887   3.361  19.284  0.00  0.00    +0.000 A 
ATOM      8 BR   UNL     1       3.411   1.543  19.009  0.00  0.00    +0.000 Br
ENDROOT
BRANCH   6   9
ATOM      9  C   UNL     1       3.975   4.061  17.049  0.00  0.00    +0.000 C 
BRANCH   9  10
ATOM     10  N   UNL     1       5.433   4.068  17.186  0.00  0.00    +0.000 NA
ATOM     11  H   UNL     1       5.837   3.652  16.344  0.00  0.00    +0.000 HD
BRANCH  10  12
ATOM     12  C   UNL     1       6.023   5.383  17.412  0.00  0.00    +0.000 C 
ATOM     13  C   UNL     1       7.093   5.437  18.485  0.00  0.00    +0.000 C 
ATOM     14  C   UNL     1       7.802   6.731  18.143  0.00  0.00    +0.000 C 
ATOM     15  O   UNL     1       7.752   6.870  16.716  0.00  0.00    +0.000 OA
ATOM     16  C   UNL     1       6.815   5.904  16.208  0.00  0.00    +0.000 C 
ENDBRANCH  10  12
ENDBRANCH   9  10
ENDBRANCH   6   9
TORSDOF 3
ENDMDL
MODEL 9
REMARK VINA RESULT:      -6.0      1.515      1.722
REMARK  Name = 
REMARK  4 active torsions:
REMARK  status: ('A' for Active; 'I' for Inactive)
REMARK    1  A    between atoms: C_1  and  C_2
REMARK    2  A    between atoms: C_6  and  C_7
REMARK    3  A    between atoms: C_7  and  N_8
REMARK    4  A    between atoms: N_8  and  C_9
REMARK                            x       y       z     vdW  Elec       q    Type
REMARK                         _______ _______ _______ _____ _____    ______ ____
ROOT
ATOM      1  C   UNL     1       1.690   2.565  21.433  0.00  0.00    +0.000 C 
ATOM      2  C   UNL     1       2.084   3.154  20.104  0.00  0.00    +0.000 A 
ATOM      3  C   UNL     1       1.133   3.908  19.400  0.00  0.00    +0.000 A 
ATOM      4  C   UNL     1       1.444   4.477  18.169  0.00  0.00    +0.000 A 
ATOM      5  C   UNL     1       2.713   4.301  17.623  0.00  0.00    +0.000 A 
ATOM      6  C   UNL     1       3.699   3.559  18.300  0.00  0.00    +0.000 A 
ATOM      7  C   UNL     1       3.373   2.987  19.550  0.00  0.00    +0.000 A 
ATOM      8 BR   UNL     1       4.681   1.988  20.523  0.00  0.00    +0.000 Br
ENDROOT
BRANCH   6   9
ATOM      9  C   UNL     1       5.071   3.459  17.662  0.00  0.00    +0.000 C 
BRANCH   9  10
ATOM     10  N   UNL     1       6.165   4.069  18.420  0.00  0.00    +0.000 NA
ATOM     11  H   UNL     1       7.028   3.572  18.196  0.00  0.00    +0.000 HD
BRANCH  10  12
ATOM     12  C   UNL     1       6.350   5.499  18.190  0.00  0.00    +0.000 C 
ATOM     13  C   UNL     1       7.661   6.071  18.694  0.00  0.00    +0.000 C 
ATOM     14  C   UNL     1       7.751   7.362  17.908  0.00  0.00    +0.000 C 
ATOM     15  O   UNL     1       7.146   7.116  16.631  0.00  0.00    +0.000 OA
ATOM     16  C   UNL     1       6.444   5.862  16.706  0.00  0.00    +0.000 C 
ENDBRANCH  10  12
ENDBRANCH   9  10
ENDBRANCH   6   9
TORSDOF 3
ENDMDL
