MODEL 1
REMARK VINA RESULT:      -8.6      0.000      0.000
REMARK  Name = 
REMARK  5 active torsions:
REMARK  status: ('A' for Active; 'I' for Inactive)
REMARK    1  A    between atoms: C_1  and  C_2
REMARK    2  A    between atoms: C_6  and  C_7
REMARK    3  A    between atoms: C_7  and  N_8
REMARK    4  A    between atoms: C_10  and  C_11
REMARK    5  A    between atoms: C_13  and  C_14
REMARK                            x       y       z     vdW  Elec       q    Type
REMARK                         _______ _______ _______ _____ _____    ______ ____
ROOT
ATOM      1  C   UNL     1       7.049   4.243  12.176  0.00  0.00    +0.000 C 
ATOM      2  C   UNL     1       6.694   4.359  13.629  0.00  0.00    +0.000 A 
ATOM      3  C   UNL     1       5.794   3.476  14.246  0.00  0.00    +0.000 A 
ATOM      4  C   UNL     1       5.518   3.564  15.622  0.00  0.00    +0.000 A 
ATOM      5  C   UNL     1       6.127   4.533  16.424  0.00  0.00    +0.000 A 
ATOM      6  C   UNL     1       5.913   4.681  17.880  0.00  0.00    +0.000 A 
ATOM      7  C   UNL     1       6.576   5.663  18.502  0.00  0.00    +0.000 A 
ATOM      8  C   UNL     1       7.507   6.582  17.845  0.00  0.00    +0.000 A 
ATOM      9  O   UNL     1       8.092   7.447  18.490  0.00  0.00    +0.000 OA
ATOM     10  O   UNL     1       7.679   6.432  16.484  0.00  0.00    +0.000 OA
ATOM     11  C   UNL     1       7.005   5.414  15.783  0.00  0.00    +0.000 A 
ATOM     12  C   UNL     1       7.291   5.346  14.411  0.00  0.00    +0.000 A 
ENDROOT
BRANCH   6  13
ATOM     13  C   UNL     1       4.936   3.820  18.668  0.00  0.00    +0.000 C 
BRANCH  13  14
ATOM     14  N   UNL     1       3.522   3.968  18.297  0.00  0.00    +0.000 NA
ATOM     15  C   UNL     1       2.580   3.220  19.140  0.00  0.00    +0.000 C 
ATOM     16  C   UNL     1       2.341   3.806  20.542  0.00  0.00    +0.000 C 
ATOM     17  C   UNL     1       1.265   2.979  21.257  0.00  0.00    +0.000 C 
ATOM     18  C   UNL     1       1.957   5.293  20.481  0.00  0.00    +0.000 C 
ATOM     19  C   UNL     1       2.876   6.094  19.547  0.00  0.00    +0.000 C 
ATOM     20  C   UNL     1       2.305   7.496  19.288  0.00  0.00    +0.000 C 
ATOM     21  C   UNL     1       3.110   5.376  18.202  0.00  0.00    +0.000 C 
ENDBRANCH  13  14
ENDBRANCH   6  13
TORSDOF 2
ENDMDL
MODEL 2
REMARK VINA RESULT:      -8.1      0.950      2.076
REMARK  Name = 
REMARK  5 active torsions:
REMARK  status: ('A' for Active; 'I' for Inactive)
REMARK    1  A    between atoms: C_1  and  C_2
REMARK    2  A    between atoms: C_6  and  C_7
REMARK    3  A    between atoms: C_7  and  N_8
REMARK    4  A    between atoms: C_10  and  C_11
REMARK    5  A    between atoms: C_13  and  C_14
REMARK                            x       y       z     vdW  Elec       q    Type
REMARK                         _______ _______ _______ _____ _____    ______ ____
ROOT
ATOM      1  C   UNL     1       6.568   3.864  12.608  0.00  0.00    +0.000 C 
ATOM      2  C   UNL     1       6.340   4.147  14.064  0.00  0.00    +0.000 A 
ATOM      3  C   UNL     1       5.457   3.380  14.840  0.00  0.00    +0.000 A 
ATOM      4  C   UNL     1       5.301   3.624  16.215  0.00  0.00    +0.000 A 
ATOM      5  C   UNL     1       6.015   4.638  16.859  0.00  0.00    +0.000 A 
ATOM      6  C   UNL     1       5.929   4.946  18.303  0.00  0.00    +0.000 A 
ATOM      7  C   UNL     1       6.683   5.952  18.763  0.00  0.00    +0.000 A 
ATOM      8  C   UNL     1       7.594   6.749  17.941  0.00  0.00    +0.000 A 
ATOM      9  O   UNL     1       8.268   7.644  18.442  0.00  0.00    +0.000 OA
ATOM     10  O   UNL     1       7.647   6.450  16.594  0.00  0.00    +0.000 OA
ATOM     11  C   UNL     1       6.874   5.402  16.062  0.00  0.00    +0.000 A 
ATOM     12  C   UNL     1       7.042   5.178  14.687  0.00  0.00    +0.000 A 
ENDROOT
BRANCH   6  13
ATOM     13  C   UNL     1       4.984   4.223  19.253  0.00  0.00    +0.000 C 
BRANCH  13  14
ATOM     14  N   UNL     1       3.774   4.967  19.628  0.00  0.00    +0.000 NA
ATOM     15  C   UNL     1       2.830   5.208  18.528  0.00  0.00    +0.000 C 
ATOM     16  C   UNL     1       2.017   3.982  18.077  0.00  0.00    +0.000 C 
ATOM     17  C   UNL     1       1.012   4.414  17.002  0.00  0.00    +0.000 C 
ATOM     18  C   UNL     1       1.314   3.297  19.259  0.00  0.00    +0.000 C 
ATOM     19  C   UNL     1       2.252   3.097  20.459  0.00  0.00    +0.000 C 
ATOM     20  C   UNL     1       1.463   2.676  21.706  0.00  0.00    +0.000 C 
ATOM     21  C   UNL     1       3.075   4.364  20.772  0.00  0.00    +0.000 C 
ENDBRANCH  13  14
ENDBRANCH   6  13
TORSDOF 2
ENDMDL
MODEL 3
REMARK VINA RESULT:      -8.1      2.633      6.465
REMARK  Name = 
REMARK  5 active torsions:
REMARK  status: ('A' for Active; 'I' for Inactive)
REMARK    1  A    between atoms: C_1  and  C_2
REMARK    2  A    between atoms: C_6  and  C_7
REMARK    3  A    between atoms: C_7  and  N_8
REMARK    4  A    between atoms: C_10  and  C_11
REMARK    5  A    between atoms: C_13  and  C_14
REMARK                            x       y       z     vdW  Elec       q    Type
REMARK                         _______ _______ _______ _____ _____    ______ ____
ROOT
ATOM      1  C   UNL     1       1.068  10.148  19.976  0.00  0.00    +0.000 C 
ATOM      2  C   UNL     1       1.515   8.764  19.606  0.00  0.00    +0.000 A 
ATOM      3  C   UNL     1       2.031   8.466  18.335  0.00  0.00    +0.000 A 
ATOM      4  C   UNL     1       2.499   7.177  18.025  0.00  0.00    +0.000 A 
ATOM      5  C   UNL     1       2.466   6.147  18.969  0.00  0.00    +0.000 A 
ATOM      6  C   UNL     1       2.959   4.772  18.736  0.00  0.00    +0.000 A 
ATOM      7  C   UNL     1       2.855   3.902  19.748  0.00  0.00    +0.000 A 
ATOM      8  C   UNL     1       2.309   4.225  21.067  0.00  0.00    +0.000 A 
ATOM      9  O   UNL     1       2.266   3.374  21.952  0.00  0.00    +0.000 OA
ATOM     10  O   UNL     1       1.844   5.511  21.255  0.00  0.00    +0.000 OA
ATOM     11  C   UNL     1       1.930   6.462  20.222  0.00  0.00    +0.000 A 
ATOM     12  C   UNL     1       1.454   7.741  20.550  0.00  0.00    +0.000 A 
ENDROOT
BRANCH   6  13
ATOM     13  C   UNL     1       3.503   4.299  17.396  0.00  0.00    +0.000 C 
BRANCH  13  14
ATOM     14  N   UNL     1       4.934   3.966  17.377  0.00  0.00    +0.000 NA
ATOM     15  C   UNL     1       5.440   3.482  16.085  0.00  0.00    +0.000 C 
ATOM     16  C   UNL     1       5.609   4.557  14.998  0.00  0.00    +0.000 C 
ATOM     17  C   UNL     1       6.237   3.919  13.753  0.00  0.00    +0.000 C 
ATOM     18  C   UNL     1       6.441   5.748  15.498  0.00  0.00    +0.000 C 
ATOM     19  C   UNL     1       5.989   6.235  16.883  0.00  0.00    +0.000 C 
ATOM     20  C   UNL     1       7.003   7.226  17.472  0.00  0.00    +0.000 C 
ATOM     21  C   UNL     1       5.774   5.068  17.869  0.00  0.00    +0.000 C 
ENDBRANCH  13  14
ENDBRANCH   6  13
TORSDOF 2
ENDMDL
MODEL 4
REMARK VINA RESULT:      -8.0      0.985      2.238
REMARK  Name = 
REMARK  5 active torsions:
REMARK  status: ('A' for Active; 'I' for Inactive)
REMARK    1  A    between atoms: C_1  and  C_2
REMARK    2  A    between atoms: C_6  and  C_7
REMARK    3  A    between atoms: C_7  and  N_8
REMARK    4  A    between atoms: C_10  and  C_11
REMARK    5  A    between atoms: C_13  and  C_14
REMARK                            x       y       z     vdW  Elec       q    Type
REMARK                         _______ _______ _______ _____ _____    ______ ____
ROOT
ATOM      1  C   UNL     1       6.541   4.085  12.559  0.00  0.00    +0.000 C 
ATOM      2  C   UNL     1       6.353   4.244  14.040  0.00  0.00    +0.000 A 
ATOM      3  C   UNL     1       5.540   3.375  14.783  0.00  0.00    +0.000 A 
ATOM      4  C   UNL     1       5.422   3.505  16.178  0.00  0.00    +0.000 A 
ATOM      5  C   UNL     1       6.108   4.503  16.874  0.00  0.00    +0.000 A 
ATOM      6  C   UNL     1       6.061   4.696  18.340  0.00  0.00    +0.000 A 
ATOM      7  C   UNL     1       6.780   5.703  18.851  0.00  0.00    +0.000 A 
ATOM      8  C   UNL     1       7.619   6.606  18.063  0.00  0.00    +0.000 A 
ATOM      9  O   UNL     1       8.265   7.496  18.610  0.00  0.00    +0.000 OA
ATOM     10  O   UNL     1       7.636   6.414  16.697  0.00  0.00    +0.000 OA
ATOM     11  C   UNL     1       6.897   5.370  16.110  0.00  0.00    +0.000 A 
ATOM     12  C   UNL     1       7.025   5.260  14.717  0.00  0.00    +0.000 A 
ENDROOT
BRANCH   6  13
ATOM     13  C   UNL     1       5.190   3.854  19.261  0.00  0.00    +0.000 C 
BRANCH  13  14
ATOM     14  N   UNL     1       4.062   4.560  19.884  0.00  0.00    +0.000 NA
ATOM     15  C   UNL     1       3.785   5.893  19.330  0.00  0.00    +0.000 C 
ATOM     16  C   UNL     1       3.115   5.905  17.946  0.00  0.00    +0.000 C 
ATOM     17  C   UNL     1       2.799   7.354  17.553  0.00  0.00    +0.000 C 
ATOM     18  C   UNL     1       1.853   5.029  17.914  0.00  0.00    +0.000 C 
ATOM     19  C   UNL     1       2.084   3.652  18.555  0.00  0.00    +0.000 C 
ATOM     20  C   UNL     1       0.754   2.915  18.763  0.00  0.00    +0.000 C 
ATOM     21  C   UNL     1       2.833   3.753  19.900  0.00  0.00    +0.000 C 
ENDBRANCH  13  14
ENDBRANCH   6  13
TORSDOF 2
ENDMDL
MODEL 5
REMARK VINA RESULT:      -7.8      1.112      2.167
REMARK  Name = 
REMARK  5 active torsions:
REMARK  status: ('A' for Active; 'I' for Inactive)
REMARK    1  A    between atoms: C_1  and  C_2
REMARK    2  A    between atoms: C_6  and  C_7
REMARK    3  A    between atoms: C_7  and  N_8
REMARK    4  A    between atoms: C_10  and  C_11
REMARK    5  A    between atoms: C_13  and  C_14
REMARK                            x       y       z     vdW  Elec       q    Type
REMARK                         _______ _______ _______ _____ _____    ______ ____
ROOT
ATOM      1  C   UNL     1       6.997   3.650  12.277  0.00  0.00    +0.000 C 
ATOM      2  C   UNL     1       6.502   4.232  13.568  0.00  0.00    +0.000 A 
ATOM      3  C   UNL     1       5.261   3.871  14.117  0.00  0.00    +0.000 A 
ATOM      4  C   UNL     1       4.840   4.383  15.357  0.00  0.00    +0.000 A 
ATOM      5  C   UNL     1       5.637   5.268  16.086  0.00  0.00    +0.000 A 
ATOM      6  C   UNL     1       5.283   5.834  17.406  0.00  0.00    +0.000 A 
ATOM      7  C   UNL     1       6.162   6.670  17.973  0.00  0.00    +0.000 A 
ATOM      8  C   UNL     1       7.450   7.043  17.385  0.00  0.00    +0.000 A 
ATOM      9  O   UNL     1       8.211   7.802  17.978  0.00  0.00    +0.000 OA
ATOM     10  O   UNL     1       7.751   6.512  16.147  0.00  0.00    +0.000 OA
ATOM     11  C   UNL     1       6.861   5.629  15.510  0.00  0.00    +0.000 A 
ATOM     12  C   UNL     1       7.298   5.133  14.272  0.00  0.00    +0.000 A 
ENDROOT
BRANCH   6  13
ATOM     13  C   UNL     1       3.956   5.562  18.098  0.00  0.00    +0.000 C 
BRANCH  13  14
ATOM     14  N   UNL     1       4.031   4.725  19.303  0.00  0.00    +0.000 NA
ATOM     15  C   UNL     1       2.794   4.667  20.095  0.00  0.00    +0.000 C 
ATOM     16  C   UNL     1       1.665   3.815  19.493  0.00  0.00    +0.000 C 
ATOM     17  C   UNL     1       0.489   3.771  20.477  0.00  0.00    +0.000 C 
ATOM     18  C   UNL     1       2.146   2.401  19.131  0.00  0.00    +0.000 C 
ATOM     19  C   UNL     1       3.479   2.418  18.367  0.00  0.00    +0.000 C 
ATOM     20  C   UNL     1       4.070   1.004  18.268  0.00  0.00    +0.000 C 
ATOM     21  C   UNL     1       4.510   3.365  19.014  0.00  0.00    +0.000 C 
ENDBRANCH  13  14
ENDBRANCH   6  13
TORSDOF 2
ENDMDL
MODEL 6
REMARK VINA RESULT:      -7.8      2.740      6.658
REMARK  Name = 
REMARK  5 active torsions:
REMARK  status: ('A' for Active; 'I' for Inactive)
REMARK    1  A    between atoms: C_1  and  C_2
REMARK    2  A    between atoms: C_6  and  C_7
REMARK    3  A    between atoms: C_7  and  N_8
REMARK    4  A    between atoms: C_10  and  C_11
REMARK    5  A    between atoms: C_13  and  C_14
REMARK                            x       y       z     vdW  Elec       q    Type
REMARK                         _______ _______ _______ _____ _____    ______ ____
ROOT
ATOM      1  C   UNL     1       0.616  10.898  19.710  0.00  0.00    +0.000 C 
ATOM      2  C   UNL     1       1.205   9.564  19.356  0.00  0.00    +0.000 A 
ATOM      3  C   UNL     1       1.839   9.336  18.125  0.00  0.00    +0.000 A 
ATOM      4  C   UNL     1       2.436   8.097  17.835  0.00  0.00    +0.000 A 
ATOM      5  C   UNL     1       2.419   7.049  18.758  0.00  0.00    +0.000 A 
ATOM      6  C   UNL     1       3.043   5.724  18.544  0.00  0.00    +0.000 A 
ATOM      7  C   UNL     1       2.936   4.828  19.533  0.00  0.00    +0.000 A 
ATOM      8  C   UNL     1       2.266   5.078  20.810  0.00  0.00    +0.000 A 
ATOM      9  O   UNL     1       2.228   4.208  21.676  0.00  0.00    +0.000 OA
ATOM     10  O   UNL     1       1.681   6.316  20.980  0.00  0.00    +0.000 OA
ATOM     11  C   UNL     1       1.765   7.293  19.970  0.00  0.00    +0.000 A 
ATOM     12  C   UNL     1       1.159   8.520  20.278  0.00  0.00    +0.000 A 
ENDROOT
BRANCH   6  13
ATOM     13  C   UNL     1       3.726   5.327  17.244  0.00  0.00    +0.000 C 
BRANCH  13  14
ATOM     14  N   UNL     1       4.829   6.199  16.818  0.00  0.00    +0.000 NA
ATOM     15  C   UNL     1       5.906   6.361  17.805  0.00  0.00    +0.000 C 
ATOM     16  C   UNL     1       6.838   5.150  17.969  0.00  0.00    +0.000 C 
ATOM     17  C   UNL     1       7.962   5.508  18.950  0.00  0.00    +0.000 C 
ATOM     18  C   UNL     1       7.402   4.676  16.620  0.00  0.00    +0.000 C 
ATOM     19  C   UNL     1       6.315   4.567  15.540  0.00  0.00    +0.000 C 
ATOM     20  C   UNL     1       6.941   4.370  14.152  0.00  0.00    +0.000 C 
ATOM     21  C   UNL     1       5.390   5.802  15.518  0.00  0.00    +0.000 C 
ENDBRANCH  13  14
ENDBRANCH   6  13
TORSDOF 2
ENDMDL
MODEL 7
REMARK VINA RESULT:      -7.8      1.519      3.325
REMARK  Name = 
REMARK  5 active torsions:
REMARK  status: ('A' for Active; 'I' for Inactive)
REMARK    1  A    between atoms: C_1  and  C_2
REMARK    2  A    between atoms: C_6  and  C_7
REMARK    3  A    between atoms: C_7  and  N_8
REMARK    4  A    between atoms: C_10  and  C_11
REMARK    5  A    between atoms: C_13  and  C_14
REMARK                            x       y       z     vdW  Elec       q    Type
REMARK                         _______ _______ _______ _____ _____    ______ ____
ROOT
ATOM      1  C   UNL     1       8.586   8.314  18.426  0.00  0.00    +0.000 C 
ATOM      2  C   UNL     1       7.679   7.159  18.119  0.00  0.00    +0.000 A 
ATOM      3  C   UNL     1       7.002   6.458  19.129  0.00  0.00    +0.000 A 
ATOM      4  C   UNL     1       6.112   5.415  18.817  0.00  0.00    +0.000 A 
ATOM      5  C   UNL     1       5.870   5.038  17.494  0.00  0.00    +0.000 A 
ATOM      6  C   UNL     1       4.933   3.972  17.077  0.00  0.00    +0.000 A 
ATOM      7  C   UNL     1       4.816   3.736  15.764  0.00  0.00    +0.000 A 
ATOM      8  C   UNL     1       5.534   4.471  14.721  0.00  0.00    +0.000 A 
ATOM      9  O   UNL     1       5.357   4.207  13.536  0.00  0.00    +0.000 OA
ATOM     10  O   UNL     1       6.411   5.451  15.137  0.00  0.00    +0.000 OA
ATOM     11  C   UNL     1       6.571   5.738  16.505  0.00  0.00    +0.000 A 
ATOM     12  C   UNL     1       7.466   6.779  16.795  0.00  0.00    +0.000 A 
ENDROOT
BRANCH   6  13
ATOM     13  C   UNL     1       4.166   3.106  18.065  0.00  0.00    +0.000 C 
BRANCH  13  14
ATOM     14  N   UNL     1       2.733   3.407  18.189  0.00  0.00    +0.000 NA
ATOM     15  C   UNL     1       2.050   2.721  19.294  0.00  0.00    +0.000 C 
ATOM     16  C   UNL     1       2.354   3.269  20.699  0.00  0.00    +0.000 C 
ATOM     17  C   UNL     1       1.495   2.523  21.727  0.00  0.00    +0.000 C 
ATOM     18  C   UNL     1       2.132   4.788  20.779  0.00  0.00    +0.000 C 
ATOM     19  C   UNL     1       2.769   5.533  19.596  0.00  0.00    +0.000 C 
ATOM     20  C   UNL     1       2.297   6.993  19.552  0.00  0.00    +0.000 C 
ATOM     21  C   UNL     1       2.464   4.851  18.246  0.00  0.00    +0.000 C 
ENDBRANCH  13  14
ENDBRANCH   6  13
TORSDOF 2
ENDMDL
MODEL 8
REMARK VINA RESULT:      -7.5      2.692      6.719
REMARK  Name = 
REMARK  5 active torsions:
REMARK  status: ('A' for Active; 'I' for Inactive)
REMARK    1  A    between atoms: C_1  and  C_2
REMARK    2  A    between atoms: C_6  and  C_7
REMARK    3  A    between atoms: C_7  and  N_8
REMARK    4  A    between atoms: C_10  and  C_11
REMARK    5  A    between atoms: C_13  and  C_14
REMARK                            x       y       z     vdW  Elec       q    Type
REMARK                         _______ _______ _______ _____ _____    ______ ____
ROOT
ATOM      1  C   UNL     1       0.607   9.664  21.306  0.00  0.00    +0.000 C 
ATOM      2  C   UNL     1       1.209   8.504  20.567  0.00  0.00    +0.000 A 
ATOM      3  C   UNL     1       1.698   8.632  19.257  0.00  0.00    +0.000 A 
ATOM      4  C   UNL     1       2.311   7.550  18.602  0.00  0.00    +0.000 A 
ATOM      5  C   UNL     1       2.455   6.310  19.228  0.00  0.00    +0.000 A 
ATOM      6  C   UNL     1       3.107   5.128  18.623  0.00  0.00    +0.000 A 
ATOM      7  C   UNL     1       3.163   4.011  19.361  0.00  0.00    +0.000 A 
ATOM      8  C   UNL     1       2.643   3.890  20.723  0.00  0.00    +0.000 A 
ATOM      9  O   UNL     1       2.751   2.836  21.342  0.00  0.00    +0.000 OA
ATOM     10  O   UNL     1       2.027   5.003  21.260  0.00  0.00    +0.000 OA
ATOM     11  C   UNL     1       1.943   6.200  20.526  0.00  0.00    +0.000 A 
ATOM     12  C   UNL     1       1.324   7.266  21.196  0.00  0.00    +0.000 A 
ENDROOT
BRANCH   6  13
ATOM     13  C   UNL     1       3.643   5.112  17.200  0.00  0.00    +0.000 C 
BRANCH  13  14
ATOM     14  N   UNL     1       4.698   6.094  16.911  0.00  0.00    +0.000 NA
ATOM     15  C   UNL     1       5.759   6.178  17.925  0.00  0.00    +0.000 C 
ATOM     16  C   UNL     1       6.757   5.009  17.934  0.00  0.00    +0.000 C 
ATOM     17  C   UNL     1       7.853   5.291  18.970  0.00  0.00    +0.000 C 
ATOM     18  C   UNL     1       7.354   4.757  16.541  0.00  0.00    +0.000 C 
ATOM     19  C   UNL     1       6.281   4.738  15.442  0.00  0.00    +0.000 C 
ATOM     20  C   UNL     1       6.925   4.767  14.048  0.00  0.00    +0.000 C 
ATOM     21  C   UNL     1       5.288   5.910  15.577  0.00  0.00    +0.000 C 
ENDBRANCH  13  14
ENDBRANCH   6  13
TORSDOF 2
ENDMDL
MODEL 9
REMARK VINA RESULT:      -7.5      0.788      2.028
REMARK  Name = 
REMARK  5 active torsions:
REMARK  status: ('A' for Active; 'I' for Inactive)
REMARK    1  A    between atoms: C_1  and  C_2
REMARK    2  A    between atoms: C_6  and  C_7
REMARK    3  A    between atoms: C_7  and  N_8
REMARK    4  A    between atoms: C_10  and  C_11
REMARK    5  A    between atoms: C_13  and  C_14
REMARK                            x       y       z     vdW  Elec       q    Type
REMARK                         _______ _______ _______ _____ _____    ______ ____
ROOT
ATOM      1  C   UNL     1       7.150   4.106  11.835  0.00  0.00    +0.000 C 
ATOM      2  C   UNL     1       6.664   4.316  13.239  0.00  0.00    +0.000 A 
ATOM      3  C   UNL     1       5.565   3.613  13.756  0.00  0.00    +0.000 A 
ATOM      4  C   UNL     1       5.159   3.780  15.092  0.00  0.00    +0.000 A 
ATOM      5  C   UNL     1       5.832   4.652  15.951  0.00  0.00    +0.000 A 
ATOM      6  C   UNL     1       5.488   4.870  17.373  0.00  0.00    +0.000 A 
ATOM      7  C   UNL     1       6.237   5.743  18.060  0.00  0.00    +0.000 A 
ATOM      8  C   UNL     1       7.376   6.475  17.505  0.00  0.00    +0.000 A 
ATOM      9  O   UNL     1       8.026   7.244  18.207  0.00  0.00    +0.000 OA
ATOM     10  O   UNL     1       7.668   6.264  16.173  0.00  0.00    +0.000 OA
ATOM     11  C   UNL     1       6.912   5.357  15.408  0.00  0.00    +0.000 A 
ATOM     12  C   UNL     1       7.330   5.208  14.077  0.00  0.00    +0.000 A 
ENDROOT
BRANCH   6  13
ATOM     13  C   UNL     1       4.299   4.207  18.052  0.00  0.00    +0.000 C 
BRANCH  13  14
ATOM     14  N   UNL     1       4.189   4.436  19.500  0.00  0.00    +0.000 NA
ATOM     15  C   UNL     1       3.725   5.777  19.880  0.00  0.00    +0.000 C 
ATOM     16  C   UNL     1       2.227   6.044  19.657  0.00  0.00    +0.000 C 
ATOM     17  C   UNL     1       1.879   7.439  20.193  0.00  0.00    +0.000 C 
ATOM     18  C   UNL     1       1.351   4.960  20.304  0.00  0.00    +0.000 C 
ATOM     19  C   UNL     1       1.852   3.542  19.990  0.00  0.00    +0.000 C 
ATOM     20  C   UNL     1       1.138   2.504  20.867  0.00  0.00    +0.000 C 
ATOM     21  C   UNL     1       3.378   3.410  20.171  0.00  0.00    +0.000 C 
ENDBRANCH  13  14
ENDBRANCH   6  13
TORSDOF 2
ENDMDL
