MODEL 1
REMARK VINA RESULT:      -7.6      0.000      0.000
REMARK  Name = 
REMARK  12 active torsions:
REMARK  status: ('A' for Active; 'I' for Inactive)
REMARK    1  A    between atoms: C_1  and  C_2
REMARK    2  A    between atoms: C_2  and  O_3
REMARK    3  A    between atoms: O_3  and  C_4
REMARK    4  A    between atoms: C_7  and  C_8
REMARK    5  A    between atoms: C_9  and  C_10
REMARK    6  A    between atoms: C_10  and  C_12
REMARK    7  A    between atoms: C_14  and  C_15
REMARK    8  A    between atoms: C_16  and  C_17
REMARK    9  A    between atoms: C_19  and  O_20
REMARK   10  A    between atoms: C_22  and  O_23
REMARK   11  A    between atoms: O_23  and  C_24
REMARK   12  A    between atoms: C_24  and  C_25
REMARK                            x       y       z     vdW  Elec       q    Type
REMARK                         _______ _______ _______ _____ _____    ______ ____
ROOT
ATOM      1  C   UNL     1       7.921   9.132  17.553  0.00  0.00    +0.000 C 
ATOM      2  C   UNL     1       7.868   7.869  17.998  0.00  0.00    +0.000 C 
ENDROOT
BRANCH   1   6
ATOM      3  C   UNL     1      10.043  12.203  19.703  0.00  0.00    +0.000 A 
ATOM      4  C   UNL     1       9.922  10.895  20.200  0.00  0.00    +0.000 A 
ATOM      5  C   UNL     1       9.227   9.909  19.495  0.00  0.00    +0.000 A 
ATOM      6  C   UNL     1       8.616  10.205  18.279  0.00  0.00    +0.000 A 
ATOM      7  C   UNL     1       8.704  11.518  17.799  0.00  0.00    +0.000 A 
ATOM      8  C   UNL     1       9.373  12.528  18.514  0.00  0.00    +0.000 A 
BRANCH   3   9
ATOM      9  O   UNL     1      10.788  13.163  20.348  0.00  0.00    +0.000 OA
BRANCH   9  11
ATOM     10  C   UNL     1      10.562  15.367  21.316  0.00  0.00    +0.000 C 
ATOM     11  C   UNL     1      10.084  13.927  21.335  0.00  0.00    +0.000 C 
ENDBRANCH   9  11
ENDBRANCH   3   9
BRANCH   8  12
ATOM     12  O   UNL     1       9.301  13.744  17.885  0.00  0.00    +0.000 OA
BRANCH  12  13
ATOM     13  C   UNL     1       8.105  14.504  18.039  0.00  0.00    +0.000 C 
ATOM     14  C   UNL     1       8.494  15.970  18.187  0.00  0.00    +0.000 C 
ENDBRANCH  12  13
ENDBRANCH   8  12
ENDBRANCH   1   6
BRANCH   2  15
ATOM     15  C   UNL     1       7.245   6.792  17.186  0.00  0.00    +0.000 C 
ATOM     16  O   UNL     1       7.761   6.387  16.150  0.00  0.00    +0.000 OA
BRANCH  15  17
ATOM     17  C   UNL     1       5.931   6.258  17.641  0.00  0.00    +0.000 A 
ATOM     18  C   UNL     1       4.816   7.104  17.554  0.00  0.00    +0.000 A 
ATOM     19  C   UNL     1       3.534   6.671  17.950  0.00  0.00    +0.000 A 
ATOM     20  C   UNL     1       2.386   7.640  17.889  0.00  0.00    +0.000 C 
ATOM     21  C   UNL     1       3.367   5.349  18.404  0.00  0.00    +0.000 A 
ATOM     22  C   UNL     1       2.035   4.772  18.804  0.00  0.00    +0.000 C 
ATOM     23  C   UNL     1       4.488   4.505  18.494  0.00  0.00    +0.000 A 
ATOM     24  C   UNL     1       5.755   4.956  18.119  0.00  0.00    +0.000 A 
BRANCH  24  25
ATOM     25  O   UNL     1       6.807   4.086  18.207  0.00  0.00    +0.000 OA
ATOM     26  H   UNL     1       7.480   4.318  17.544  0.00  0.00    +0.000 HD
ENDBRANCH  24  25
ENDBRANCH  15  17
ENDBRANCH   2  15
TORSDOF 8
ENDMDL
MODEL 2
REMARK VINA RESULT:      -7.6      0.818      1.052
REMARK  Name = 
REMARK  12 active torsions:
REMARK  status: ('A' for Active; 'I' for Inactive)
REMARK    1  A    between atoms: C_1  and  C_2
REMARK    2  A    between atoms: C_2  and  O_3
REMARK    3  A    between atoms: O_3  and  C_4
REMARK    4  A    between atoms: C_7  and  C_8
REMARK    5  A    between atoms: C_9  and  C_10
REMARK    6  A    between atoms: C_10  and  C_12
REMARK    7  A    between atoms: C_14  and  C_15
REMARK    8  A    between atoms: C_16  and  C_17
REMARK    9  A    between atoms: C_19  and  O_20
REMARK   10  A    between atoms: C_22  and  O_23
REMARK   11  A    between atoms: O_23  and  C_24
REMARK   12  A    between atoms: C_24  and  C_25
REMARK                            x       y       z     vdW  Elec       q    Type
REMARK                         _______ _______ _______ _____ _____    ______ ____
ROOT
ATOM      1  C   UNL     1       7.969   9.139  17.562  0.00  0.00    +0.000 C 
ATOM      2  C   UNL     1       7.901   7.878  18.011  0.00  0.00    +0.000 C 
ENDROOT
BRANCH   1   6
ATOM      3  C   UNL     1      10.041  12.212  19.759  0.00  0.00    +0.000 A 
ATOM      4  C   UNL     1       9.819  10.933  20.296  0.00  0.00    +0.000 A 
ATOM      5  C   UNL     1       9.141   9.946  19.575  0.00  0.00    +0.000 A 
ATOM      6  C   UNL     1       8.649  10.213  18.300  0.00  0.00    +0.000 A 
ATOM      7  C   UNL     1       8.836  11.499  17.777  0.00  0.00    +0.000 A 
ATOM      8  C   UNL     1       9.489  12.511  18.505  0.00  0.00    +0.000 A 
BRANCH   3   9
ATOM      9  O   UNL     1      10.772  13.167  20.425  0.00  0.00    +0.000 OA
BRANCH   9  11
ATOM     10  C   UNL     1       9.504  15.140  21.011  0.00  0.00    +0.000 C 
ATOM     11  C   UNL     1      10.088  13.826  21.498  0.00  0.00    +0.000 C 
ENDBRANCH   9  11
ENDBRANCH   3   9
BRANCH   8  12
ATOM     12  O   UNL     1       9.525  13.700  17.822  0.00  0.00    +0.000 OA
BRANCH  12  13
ATOM     13  C   UNL     1      10.802  14.265  17.538  0.00  0.00    +0.000 C 
ATOM     14  C   UNL     1      11.498  13.371  16.519  0.00  0.00    +0.000 C 
ENDBRANCH  12  13
ENDBRANCH   8  12
ENDBRANCH   1   6
BRANCH   2  15
ATOM     15  C   UNL     1       7.296   6.799  17.189  0.00  0.00    +0.000 C 
ATOM     16  O   UNL     1       7.835   6.389  16.167  0.00  0.00    +0.000 OA
BRANCH  15  17
ATOM     17  C   UNL     1       5.970   6.269  17.614  0.00  0.00    +0.000 A 
ATOM     18  C   UNL     1       4.865   7.129  17.532  0.00  0.00    +0.000 A 
ATOM     19  C   UNL     1       3.574   6.701  17.901  0.00  0.00    +0.000 A 
ATOM     20  C   UNL     1       2.437   7.684  17.846  0.00  0.00    +0.000 C 
ATOM     21  C   UNL     1       3.387   5.371  18.323  0.00  0.00    +0.000 A 
ATOM     22  C   UNL     1       2.044   4.800  18.692  0.00  0.00    +0.000 C 
ATOM     23  C   UNL     1       4.497   4.514  18.409  0.00  0.00    +0.000 A 
ATOM     24  C   UNL     1       5.773   4.959  18.060  0.00  0.00    +0.000 A 
BRANCH  24  25
ATOM     25  O   UNL     1       6.815   4.076  18.142  0.00  0.00    +0.000 OA
ATOM     26  H   UNL     1       6.547   3.299  18.663  0.00  0.00    +0.000 HD
ENDBRANCH  24  25
ENDBRANCH  15  17
ENDBRANCH   2  15
TORSDOF 8
ENDMDL
MODEL 3
REMARK VINA RESULT:      -7.4      6.139      9.687
REMARK  Name = 
REMARK  12 active torsions:
REMARK  status: ('A' for Active; 'I' for Inactive)
REMARK    1  A    between atoms: C_1  and  C_2
REMARK    2  A    between atoms: C_2  and  O_3
REMARK    3  A    between atoms: O_3  and  C_4
REMARK    4  A    between atoms: C_7  and  C_8
REMARK    5  A    between atoms: C_9  and  C_10
REMARK    6  A    between atoms: C_10  and  C_12
REMARK    7  A    between atoms: C_14  and  C_15
REMARK    8  A    between atoms: C_16  and  C_17
REMARK    9  A    between atoms: C_19  and  O_20
REMARK   10  A    between atoms: C_22  and  O_23
REMARK   11  A    between atoms: O_23  and  C_24
REMARK   12  A    between atoms: C_24  and  C_25
REMARK                            x       y       z     vdW  Elec       q    Type
REMARK                         _______ _______ _______ _____ _____    ______ ____
ROOT
ATOM      1  C   UNL     1       1.843   8.152  19.149  0.00  0.00    +0.000 C 
ATOM      2  C   UNL     1       1.381   9.206  18.464  0.00  0.00    +0.000 C 
ENDROOT
BRANCH   1   6
ATOM      3  C   UNL     1       4.306   5.110  17.350  0.00  0.00    +0.000 A 
ATOM      4  C   UNL     1       4.405   6.462  16.982  0.00  0.00    +0.000 A 
ATOM      5  C   UNL     1       3.596   7.439  17.570  0.00  0.00    +0.000 A 
ATOM      6  C   UNL     1       2.652   7.091  18.533  0.00  0.00    +0.000 A 
ATOM      7  C   UNL     1       2.526   5.739  18.874  0.00  0.00    +0.000 A 
ATOM      8  C   UNL     1       3.311   4.741  18.267  0.00  0.00    +0.000 A 
BRANCH   3   9
ATOM      9  O   UNL     1       5.147   4.151  16.837  0.00  0.00    +0.000 OA
BRANCH   9  11
ATOM     10  C   UNL     1       6.081   4.066  14.608  0.00  0.00    +0.000 C 
ATOM     11  C   UNL     1       6.206   4.643  16.006  0.00  0.00    +0.000 C 
ENDBRANCH   9  11
ENDBRANCH   3   9
BRANCH   8  12
ATOM     12  O   UNL     1       2.995   3.486  18.719  0.00  0.00    +0.000 OA
BRANCH  12  13
ATOM     13  C   UNL     1       2.080   2.711  17.948  0.00  0.00    +0.000 C 
ATOM     14  C   UNL     1       0.865   2.412  18.818  0.00  0.00    +0.000 C 
ENDBRANCH  12  13
ENDBRANCH   8  12
ENDBRANCH   1   6
BRANCH   2  15
ATOM     15  C   UNL     1       0.655  10.310  19.143  0.00  0.00    +0.000 C 
ATOM     16  O   UNL     1       1.131  10.893  20.111  0.00  0.00    +0.000 OA
BRANCH  15  17
ATOM     17  C   UNL     1      -0.708  10.648  18.647  0.00  0.00    +0.000 A 
ATOM     18  C   UNL     1      -1.144  10.035  17.463  0.00  0.00    +0.000 A 
ATOM     19  C   UNL     1      -2.425  10.290  16.934  0.00  0.00    +0.000 A 
ATOM     20  C   UNL     1      -2.816   9.650  15.631  0.00  0.00    +0.000 C 
ATOM     21  C   UNL     1      -3.297  11.147  17.632  0.00  0.00    +0.000 A 
ATOM     22  C   UNL     1      -4.701  11.447  17.180  0.00  0.00    +0.000 C 
ATOM     23  C   UNL     1      -2.855  11.763  18.816  0.00  0.00    +0.000 A 
ATOM     24  C   UNL     1      -1.575  11.517  19.316  0.00  0.00    +0.000 A 
BRANCH  24  25
ATOM     25  O   UNL     1      -1.205  12.127  20.483  0.00  0.00    +0.000 OA
ATOM     26  H   UNL     1      -1.040  11.455  21.166  0.00  0.00    +0.000 HD
ENDBRANCH  24  25
ENDBRANCH  15  17
ENDBRANCH   2  15
TORSDOF 8
ENDMDL
MODEL 4
REMARK VINA RESULT:      -7.3      5.997      9.362
REMARK  Name = 
REMARK  12 active torsions:
REMARK  status: ('A' for Active; 'I' for Inactive)
REMARK    1  A    between atoms: C_1  and  C_2
REMARK    2  A    between atoms: C_2  and  O_3
REMARK    3  A    between atoms: O_3  and  C_4
REMARK    4  A    between atoms: C_7  and  C_8
REMARK    5  A    between atoms: C_9  and  C_10
REMARK    6  A    between atoms: C_10  and  C_12
REMARK    7  A    between atoms: C_14  and  C_15
REMARK    8  A    between atoms: C_16  and  C_17
REMARK    9  A    between atoms: C_19  and  O_20
REMARK   10  A    between atoms: C_22  and  O_23
REMARK   11  A    between atoms: O_23  and  C_24
REMARK   12  A    between atoms: C_24  and  C_25
REMARK                            x       y       z     vdW  Elec       q    Type
REMARK                         _______ _______ _______ _____ _____    ______ ____
ROOT
ATOM      1  C   UNL     1       2.837   7.952  17.858  0.00  0.00    +0.000 C 
ATOM      2  C   UNL     1       1.920   8.477  18.682  0.00  0.00    +0.000 C 
ENDROOT
BRANCH   1   6
ATOM      3  C   UNL     1       3.627   3.721  17.670  0.00  0.00    +0.000 A 
ATOM      4  C   UNL     1       2.355   4.228  17.984  0.00  0.00    +0.000 A 
ATOM      5  C   UNL     1       2.113   5.603  18.047  0.00  0.00    +0.000 A 
ATOM      6  C   UNL     1       3.140   6.514  17.814  0.00  0.00    +0.000 A 
ATOM      7  C   UNL     1       4.418   6.011  17.538  0.00  0.00    +0.000 A 
ATOM      8  C   UNL     1       4.682   4.629  17.503  0.00  0.00    +0.000 A 
BRANCH   3   9
ATOM      9  O   UNL     1       3.861   2.373  17.530  0.00  0.00    +0.000 OA
BRANCH   9  11
ATOM     10  C   UNL     1       4.377   2.050  19.870  0.00  0.00    +0.000 C 
ATOM     11  C   UNL     1       3.561   1.574  18.682  0.00  0.00    +0.000 C 
ENDBRANCH   9  11
ENDBRANCH   3   9
BRANCH   8  12
ATOM     12  O   UNL     1       6.004   4.360  17.256  0.00  0.00    +0.000 OA
BRANCH  12  13
ATOM     13  C   UNL     1       6.568   4.851  16.042  0.00  0.00    +0.000 C 
ATOM     14  C   UNL     1       6.111   3.940  14.909  0.00  0.00    +0.000 C 
ENDBRANCH  12  13
ENDBRANCH   8  12
ENDBRANCH   1   6
BRANCH   2  15
ATOM     15  C   UNL     1       1.569   9.919  18.624  0.00  0.00    +0.000 C 
ATOM     16  O   UNL     1       2.060  10.668  17.788  0.00  0.00    +0.000 OA
BRANCH  15  17
ATOM     17  C   UNL     1       0.640  10.444  19.664  0.00  0.00    +0.000 A 
ATOM     18  C   UNL     1       0.662   9.837  20.928  0.00  0.00    +0.000 A 
ATOM     19  C   UNL     1      -0.175  10.284  21.970  0.00  0.00    +0.000 A 
ATOM     20  C   UNL     1      -0.150   9.557  23.287  0.00  0.00    +0.000 C 
ATOM     21  C   UNL     1      -1.020  11.387  21.746  0.00  0.00    +0.000 A 
ATOM     22  C   UNL     1      -1.916  11.972  22.805  0.00  0.00    +0.000 C 
ATOM     23  C   UNL     1      -1.043  11.990  20.477  0.00  0.00    +0.000 A 
ATOM     24  C   UNL     1      -0.224  11.522  19.448  0.00  0.00    +0.000 A 
BRANCH  24  25
ATOM     25  O   UNL     1      -0.271  12.160  18.238  0.00  0.00    +0.000 OA
ATOM     26  H   UNL     1      -1.194  12.229  17.940  0.00  0.00    +0.000 HD
ENDBRANCH  24  25
ENDBRANCH  15  17
ENDBRANCH   2  15
TORSDOF 8
ENDMDL
MODEL 5
REMARK VINA RESULT:      -7.3      6.232      9.963
REMARK  Name = 
REMARK  12 active torsions:
REMARK  status: ('A' for Active; 'I' for Inactive)
REMARK    1  A    between atoms: C_1  and  C_2
REMARK    2  A    between atoms: C_2  and  O_3
REMARK    3  A    between atoms: O_3  and  C_4
REMARK    4  A    between atoms: C_7  and  C_8
REMARK    5  A    between atoms: C_9  and  C_10
REMARK    6  A    between atoms: C_10  and  C_12
REMARK    7  A    between atoms: C_14  and  C_15
REMARK    8  A    between atoms: C_16  and  C_17
REMARK    9  A    between atoms: C_19  and  O_20
REMARK   10  A    between atoms: C_22  and  O_23
REMARK   11  A    between atoms: O_23  and  C_24
REMARK   12  A    between atoms: C_24  and  C_25
REMARK                            x       y       z     vdW  Elec       q    Type
REMARK                         _______ _______ _______ _____ _____    ______ ____
ROOT
ATOM      1  C   UNL     1       1.854   9.281  18.438  0.00  0.00    +0.000 C 
ATOM      2  C   UNL     1       1.029   9.817  19.347  0.00  0.00    +0.000 C 
ENDROOT
BRANCH   1   6
ATOM      3  C   UNL     1       3.553   5.335  18.763  0.00  0.00    +0.000 A 
ATOM      4  C   UNL     1       3.880   6.201  17.707  0.00  0.00    +0.000 A 
ATOM      5  C   UNL     1       3.318   7.478  17.611  0.00  0.00    +0.000 A 
ATOM      6  C   UNL     1       2.399   7.920  18.559  0.00  0.00    +0.000 A 
ATOM      7  C   UNL     1       2.042   7.044  19.592  0.00  0.00    +0.000 A 
ATOM      8  C   UNL     1       2.576   5.745  19.683  0.00  0.00    +0.000 A 
BRANCH   3   9
ATOM      9  O   UNL     1       4.154   4.107  18.913  0.00  0.00    +0.000 OA
BRANCH   9  11
ATOM     10  C   UNL     1       2.751   2.647  17.592  0.00  0.00    +0.000 C 
ATOM     11  C   UNL     1       4.128   3.265  17.754  0.00  0.00    +0.000 C 
ENDBRANCH   9  11
ENDBRANCH   3   9
BRANCH   8  12
ATOM     12  O   UNL     1       2.061   5.046  20.745  0.00  0.00    +0.000 OA
BRANCH  12  13
ATOM     13  C   UNL     1       0.995   4.136  20.488  0.00  0.00    +0.000 C 
ATOM     14  C   UNL     1       1.325   2.818  21.178  0.00  0.00    +0.000 C 
ENDBRANCH  12  13
ENDBRANCH   8  12
ENDBRANCH   1   6
BRANCH   2  15
ATOM     15  C   UNL     1       0.418  11.155  19.139  0.00  0.00    +0.000 C 
ATOM     16  O   UNL     1       1.037  12.188  19.370  0.00  0.00    +0.000 OA
BRANCH  15  17
ATOM     17  C   UNL     1      -1.003  11.203  18.695  0.00  0.00    +0.000 A 
ATOM     18  C   UNL     1      -1.350  10.496  17.535  0.00  0.00    +0.000 A 
ATOM     19  C   UNL     1      -2.676  10.479  17.056  0.00  0.00    +0.000 A 
ATOM     20  C   UNL     1      -2.979   9.751  15.776  0.00  0.00    +0.000 C 
ATOM     21  C   UNL     1      -3.676  11.154  17.781  0.00  0.00    +0.000 A 
ATOM     22  C   UNL     1      -5.128  11.157  17.384  0.00  0.00    +0.000 C 
ATOM     23  C   UNL     1      -3.323  11.865  18.941  0.00  0.00    +0.000 A 
ATOM     24  C   UNL     1      -2.002  11.891  19.391  0.00  0.00    +0.000 A 
BRANCH  24  25
ATOM     25  O   UNL     1      -1.718  12.582  20.537  0.00  0.00    +0.000 OA
ATOM     26  H   UNL     1      -1.162  13.352  20.326  0.00  0.00    +0.000 HD
ENDBRANCH  24  25
ENDBRANCH  15  17
ENDBRANCH   2  15
TORSDOF 8
ENDMDL
MODEL 6
REMARK VINA RESULT:      -7.3      1.837      8.715
REMARK  Name = 
REMARK  12 active torsions:
REMARK  status: ('A' for Active; 'I' for Inactive)
REMARK    1  A    between atoms: C_1  and  C_2
REMARK    2  A    between atoms: C_2  and  O_3
REMARK    3  A    between atoms: O_3  and  C_4
REMARK    4  A    between atoms: C_7  and  C_8
REMARK    5  A    between atoms: C_9  and  C_10
REMARK    6  A    between atoms: C_10  and  C_12
REMARK    7  A    between atoms: C_14  and  C_15
REMARK    8  A    between atoms: C_16  and  C_17
REMARK    9  A    between atoms: C_19  and  O_20
REMARK   10  A    between atoms: C_22  and  O_23
REMARK   11  A    between atoms: O_23  and  C_24
REMARK   12  A    between atoms: C_24  and  C_25
REMARK                            x       y       z     vdW  Elec       q    Type
REMARK                         _______ _______ _______ _____ _____    ______ ____
ROOT
ATOM      1  C   UNL     1       8.410   9.037  17.838  0.00  0.00    +0.000 C 
ATOM      2  C   UNL     1       9.014   9.667  18.855  0.00  0.00    +0.000 C 
ENDROOT
BRANCH   1   6
ATOM      3  C   UNL     1       6.565   5.180  18.361  0.00  0.00    +0.000 A 
ATOM      4  C   UNL     1       7.641   5.605  19.158  0.00  0.00    +0.000 A 
ATOM      5  C   UNL     1       8.234   6.857  18.975  0.00  0.00    +0.000 A 
ATOM      6  C   UNL     1       7.780   7.716  17.977  0.00  0.00    +0.000 A 
ATOM      7  C   UNL     1       6.733   7.280  17.157  0.00  0.00    +0.000 A 
ATOM      8  C   UNL     1       6.148   6.009  17.310  0.00  0.00    +0.000 A 
BRANCH   3   9
ATOM      9  O   UNL     1       5.923   3.984  18.580  0.00  0.00    +0.000 OA
BRANCH   9  11
ATOM     10  C   UNL     1       4.171   2.672  19.608  0.00  0.00    +0.000 C 
ATOM     11  C   UNL     1       4.726   4.064  19.364  0.00  0.00    +0.000 C 
ENDBRANCH   9  11
ENDBRANCH   3   9
BRANCH   8  12
ATOM     12  O   UNL     1       5.171   5.772  16.377  0.00  0.00    +0.000 OA
BRANCH  12  13
ATOM     13  C   UNL     1       5.580   5.455  15.049  0.00  0.00    +0.000 C 
ATOM     14  C   UNL     1       5.995   3.989  15.021  0.00  0.00    +0.000 C 
ENDBRANCH  12  13
ENDBRANCH   8  12
ENDBRANCH   1   6
BRANCH   2  15
ATOM     15  C   UNL     1       9.547  11.045  18.701  0.00  0.00    +0.000 C 
ATOM     16  O   UNL     1      10.157  11.390  17.694  0.00  0.00    +0.000 OA
BRANCH  15  17
ATOM     17  C   UNL     1       9.371  11.984  19.843  0.00  0.00    +0.000 A 
ATOM     18  C   UNL     1       8.976  11.447  21.077  0.00  0.00    +0.000 A 
ATOM     19  C   UNL     1       8.801  12.266  22.211  0.00  0.00    +0.000 A 
ATOM     20  C   UNL     1       8.321  11.643  23.493  0.00  0.00    +0.000 C 
ATOM     21  C   UNL     1       9.067  13.644  22.109  0.00  0.00    +0.000 A 
ATOM     22  C   UNL     1       8.959  14.597  23.269  0.00  0.00    +0.000 C 
ATOM     23  C   UNL     1       9.458  14.180  20.870  0.00  0.00    +0.000 A 
ATOM     24  C   UNL     1       9.606  13.360  19.750  0.00  0.00    +0.000 A 
BRANCH  24  25
ATOM     25  O   UNL     1      10.009  13.930  18.574  0.00  0.00    +0.000 OA
ATOM     26  H   UNL     1       9.267  14.414  18.173  0.00  0.00    +0.000 HD
ENDBRANCH  24  25
ENDBRANCH  15  17
ENDBRANCH   2  15
TORSDOF 8
ENDMDL
MODEL 7
REMARK VINA RESULT:      -7.2      4.903      8.921
REMARK  Name = 
REMARK  12 active torsions:
REMARK  status: ('A' for Active; 'I' for Inactive)
REMARK    1  A    between atoms: C_1  and  C_2
REMARK    2  A    between atoms: C_2  and  O_3
REMARK    3  A    between atoms: O_3  and  C_4
REMARK    4  A    between atoms: C_7  and  C_8
REMARK    5  A    between atoms: C_9  and  C_10
REMARK    6  A    between atoms: C_10  and  C_12
REMARK    7  A    between atoms: C_14  and  C_15
REMARK    8  A    between atoms: C_16  and  C_17
REMARK    9  A    between atoms: C_19  and  O_20
REMARK   10  A    between atoms: C_22  and  O_23
REMARK   11  A    between atoms: O_23  and  C_24
REMARK   12  A    between atoms: C_24  and  C_25
REMARK                            x       y       z     vdW  Elec       q    Type
REMARK                         _______ _______ _______ _____ _____    ______ ____
ROOT
ATOM      1  C   UNL     1       2.145   8.353  18.861  0.00  0.00    +0.000 C 
ATOM      2  C   UNL     1       1.267   9.112  18.191  0.00  0.00    +0.000 C 
ENDROOT
BRANCH   1   6
ATOM      3  C   UNL     1       4.342   5.181  16.946  0.00  0.00    +0.000 A 
ATOM      4  C   UNL     1       3.127   4.949  17.611  0.00  0.00    +0.000 A 
ATOM      5  C   UNL     1       2.426   5.986  18.233  0.00  0.00    +0.000 A 
ATOM      6  C   UNL     1       2.928   7.285  18.223  0.00  0.00    +0.000 A 
ATOM      7  C   UNL     1       4.158   7.512  17.593  0.00  0.00    +0.000 A 
ATOM      8  C   UNL     1       4.889   6.472  16.991  0.00  0.00    +0.000 A 
BRANCH   3   9
ATOM      9  O   UNL     1       5.004   4.186  16.266  0.00  0.00    +0.000 OA
BRANCH   9  11
ATOM     10  C   UNL     1       6.597   4.188  14.447  0.00  0.00    +0.000 C 
ATOM     11  C   UNL     1       5.151   4.399  14.856  0.00  0.00    +0.000 C 
ENDBRANCH   9  11
ENDBRANCH   3   9
BRANCH   8  12
ATOM     12  O   UNL     1       6.081   6.909  16.472  0.00  0.00    +0.000 OA
BRANCH  12  13
ATOM     13  C   UNL     1       7.089   7.335  17.385  0.00  0.00    +0.000 C 
ATOM     14  C   UNL     1       7.567   6.115  18.162  0.00  0.00    +0.000 C 
ENDBRANCH  12  13
ENDBRANCH   8  12
ENDBRANCH   1   6
BRANCH   2  15
ATOM     15  C   UNL     1       0.572  10.248  18.847  0.00  0.00    +0.000 C 
ATOM     16  O   UNL     1       1.088  10.874  19.767  0.00  0.00    +0.000 OA
BRANCH  15  17
ATOM     17  C   UNL     1      -0.810  10.568  18.391  0.00  0.00    +0.000 A 
ATOM     18  C   UNL     1      -1.240  10.020  17.174  0.00  0.00    +0.000 A 
ATOM     19  C   UNL     1      -2.537  10.262  16.679  0.00  0.00    +0.000 A 
ATOM     20  C   UNL     1      -2.924   9.696  15.340  0.00  0.00    +0.000 C 
ATOM     21  C   UNL     1      -3.429  11.038  17.443  0.00  0.00    +0.000 A 
ATOM     22  C   UNL     1      -4.850  11.315  17.029  0.00  0.00    +0.000 C 
ATOM     23  C   UNL     1      -2.993  11.589  18.660  0.00  0.00    +0.000 A 
ATOM     24  C   UNL     1      -1.698  11.358  19.127  0.00  0.00    +0.000 A 
BRANCH  24  25
ATOM     25  O   UNL     1      -1.333  11.902  20.329  0.00  0.00    +0.000 OA
ATOM     26  H   UNL     1      -2.127  12.081  20.862  0.00  0.00    +0.000 HD
ENDBRANCH  24  25
ENDBRANCH  15  17
ENDBRANCH   2  15
TORSDOF 8
ENDMDL
MODEL 8
REMARK VINA RESULT:      -7.2      5.571      9.287
REMARK  Name = 
REMARK  12 active torsions:
REMARK  status: ('A' for Active; 'I' for Inactive)
REMARK    1  A    between atoms: C_1  and  C_2
REMARK    2  A    between atoms: C_2  and  O_3
REMARK    3  A    between atoms: O_3  and  C_4
REMARK    4  A    between atoms: C_7  and  C_8
REMARK    5  A    between atoms: C_9  and  C_10
REMARK    6  A    between atoms: C_10  and  C_12
REMARK    7  A    between atoms: C_14  and  C_15
REMARK    8  A    between atoms: C_16  and  C_17
REMARK    9  A    between atoms: C_19  and  O_20
REMARK   10  A    between atoms: C_22  and  O_23
REMARK   11  A    between atoms: O_23  and  C_24
REMARK   12  A    between atoms: C_24  and  C_25
REMARK                            x       y       z     vdW  Elec       q    Type
REMARK                         _______ _______ _______ _____ _____    ______ ____
ROOT
ATOM      1  C   UNL     1       2.302   8.941  18.023  0.00  0.00    +0.000 C 
ATOM      2  C   UNL     1       1.291   9.253  18.845  0.00  0.00    +0.000 C 
ENDROOT
BRANCH   1   6
ATOM      3  C   UNL     1       3.654   4.885  17.496  0.00  0.00    +0.000 A 
ATOM      4  C   UNL     1       2.425   5.187  18.108  0.00  0.00    +0.000 A 
ATOM      5  C   UNL     1       2.001   6.508  18.277  0.00  0.00    +0.000 A 
ATOM      6  C   UNL     1       2.799   7.568  17.855  0.00  0.00    +0.000 A 
ATOM      7  C   UNL     1       4.041   7.270  17.279  0.00  0.00    +0.000 A 
ATOM      8  C   UNL     1       4.494   5.947  17.132  0.00  0.00    +0.000 A 
BRANCH   3   9
ATOM      9  O   UNL     1       4.049   3.590  17.254  0.00  0.00    +0.000 OA
BRANCH   9  11
ATOM     10  C   UNL     1       4.142   2.359  19.333  0.00  0.00    +0.000 C 
ATOM     11  C   UNL     1       3.387   2.589  18.037  0.00  0.00    +0.000 C 
ENDBRANCH   9  11
ENDBRANCH   3   9
BRANCH   8  12
ATOM     12  O   UNL     1       5.750   5.887  16.583  0.00  0.00    +0.000 OA
BRANCH  12  13
ATOM     13  C   UNL     1       6.866   6.031  17.458  0.00  0.00    +0.000 C 
ATOM     14  C   UNL     1       7.491   4.655  17.656  0.00  0.00    +0.000 C 
ENDBRANCH  12  13
ENDBRANCH   8  12
ENDBRANCH   1   6
BRANCH   2  15
ATOM     15  C   UNL     1       0.749  10.635  18.909  0.00  0.00    +0.000 C 
ATOM     16  O   UNL     1       1.426  11.574  19.315  0.00  0.00    +0.000 OA
BRANCH  15  17
ATOM     17  C   UNL     1      -0.675  10.837  18.522  0.00  0.00    +0.000 A 
ATOM     18  C   UNL     1      -1.150  10.148  17.396  0.00  0.00    +0.000 A 
ATOM     19  C   UNL     1      -2.488  10.273  16.972  0.00  0.00    +0.000 A 
ATOM     20  C   UNL     1      -2.927   9.556  15.725  0.00  0.00    +0.000 C 
ATOM     21  C   UNL     1      -3.372  11.076  17.717  0.00  0.00    +0.000 A 
ATOM     22  C   UNL     1      -4.830  11.237  17.378  0.00  0.00    +0.000 C 
ATOM     23  C   UNL     1      -2.891  11.768  18.841  0.00  0.00    +0.000 A 
ATOM     24  C   UNL     1      -1.558  11.651  19.237  0.00  0.00    +0.000 A 
BRANCH  24  25
ATOM     25  O   UNL     1      -1.148  12.331  20.352  0.00  0.00    +0.000 OA
ATOM     26  H   UNL     1      -1.922  12.691  20.819  0.00  0.00    +0.000 HD
ENDBRANCH  24  25
ENDBRANCH  15  17
ENDBRANCH   2  15
TORSDOF 8
ENDMDL
MODEL 9
REMARK VINA RESULT:      -7.2      1.080      1.325
REMARK  Name = 
REMARK  12 active torsions:
REMARK  status: ('A' for Active; 'I' for Inactive)
REMARK    1  A    between atoms: C_1  and  C_2
REMARK    2  A    between atoms: C_2  and  O_3
REMARK    3  A    between atoms: O_3  and  C_4
REMARK    4  A    between atoms: C_7  and  C_8
REMARK    5  A    between atoms: C_9  and  C_10
REMARK    6  A    between atoms: C_10  and  C_12
REMARK    7  A    between atoms: C_14  and  C_15
REMARK    8  A    between atoms: C_16  and  C_17
REMARK    9  A    between atoms: C_19  and  O_20
REMARK   10  A    between atoms: C_22  and  O_23
REMARK   11  A    between atoms: O_23  and  C_24
REMARK   12  A    between atoms: C_24  and  C_25
REMARK                            x       y       z     vdW  Elec       q    Type
REMARK                         _______ _______ _______ _____ _____    ______ ____
ROOT
ATOM      1  C   UNL     1       8.332   8.436  18.153  0.00  0.00    +0.000 C 
ATOM      2  C   UNL     1       7.396   8.110  17.253  0.00  0.00    +0.000 C 
ENDROOT
BRANCH   1   6
ATOM      3  C   UNL     1       9.500  12.480  19.070  0.00  0.00    +0.000 A 
ATOM      4  C   UNL     1       9.963  11.384  19.817  0.00  0.00    +0.000 A 
ATOM      5  C   UNL     1       9.572  10.077  19.512  0.00  0.00    +0.000 A 
ATOM      6  C   UNL     1       8.694   9.828  18.461  0.00  0.00    +0.000 A 
ATOM      7  C   UNL     1       8.201  10.922  17.738  0.00  0.00    +0.000 A 
ATOM      8  C   UNL     1       8.561  12.245  18.055  0.00  0.00    +0.000 A 
BRANCH   3   9
ATOM      9  O   UNL     1       9.935  13.763  19.310  0.00  0.00    +0.000 OA
BRANCH   9  11
ATOM     10  C   UNL     1      11.470  14.325  17.528  0.00  0.00    +0.000 C 
ATOM     11  C   UNL     1      11.313  14.011  19.005  0.00  0.00    +0.000 C 
ENDBRANCH   9  11
ENDBRANCH   3   9
BRANCH   8  12
ATOM     12  O   UNL     1       7.933  13.160  17.249  0.00  0.00    +0.000 OA
BRANCH  12  13
ATOM     13  C   UNL     1       7.508  14.386  17.839  0.00  0.00    +0.000 C 
ATOM     14  C   UNL     1       5.987  14.439  17.772  0.00  0.00    +0.000 C 
ENDBRANCH  12  13
ENDBRANCH   8  12
ENDBRANCH   1   6
BRANCH   2  15
ATOM     15  C   UNL     1       6.986   6.697  17.045  0.00  0.00    +0.000 C 
ATOM     16  O   UNL     1       7.619   5.944  16.313  0.00  0.00    +0.000 OA
BRANCH  15  17
ATOM     17  C   UNL     1       5.734   6.237  17.709  0.00  0.00    +0.000 A 
ATOM     18  C   UNL     1       4.599   7.053  17.601  0.00  0.00    +0.000 A 
ATOM     19  C   UNL     1       3.372   6.683  18.188  0.00  0.00    +0.000 A 
ATOM     20  C   UNL     1       2.203   7.624  18.089  0.00  0.00    +0.000 C 
ATOM     21  C   UNL     1       3.278   5.451  18.863  0.00  0.00    +0.000 A 
ATOM     22  C   UNL     1       2.004   4.940  19.482  0.00  0.00    +0.000 C 
ATOM     23  C   UNL     1       4.419   4.639  18.973  0.00  0.00    +0.000 A 
ATOM     24  C   UNL     1       5.633   5.028  18.405  0.00  0.00    +0.000 A 
BRANCH  24  25
ATOM     25  O   UNL     1       6.707   4.189  18.524  0.00  0.00    +0.000 OA
ATOM     26  H   UNL     1       7.532   4.699  18.445  0.00  0.00    +0.000 HD
ENDBRANCH  24  25
ENDBRANCH  15  17
ENDBRANCH   2  15
TORSDOF 8
ENDMDL
