MODEL 1
REMARK VINA RESULT:      -8.8      0.000      0.000
REMARK  Name = 
REMARK  10 active torsions:
REMARK  status: ('A' for Active; 'I' for Inactive)
REMARK    1  A    between atoms: C_1  and  C_2
REMARK    2  A    between atoms: C_5  and  N_6
REMARK    3  A    between atoms: C_7  and  C_9
REMARK    4  A    between atoms: C_9  and  N_10
REMARK    5  A    between atoms: N_10  and  C_11
REMARK    6  A    between atoms: N_10  and  C_12
REMARK    7  A    between atoms: C_12  and  C_13
REMARK    8  A    between atoms: N_15  and  C_16
REMARK    9  A    between atoms: C_24  and  S_25
REMARK   10  A    between atoms: S_25  and  N_28
REMARK                            x       y       z     vdW  Elec       q    Type
REMARK                         _______ _______ _______ _____ _____    ______ ____
ROOT
ATOM      1  N   UNL     1       3.566   6.851  17.047  0.00  0.00    +0.000 N 
ATOM      2  C   UNL     1       4.945   6.940  16.911  0.00  0.00    +0.000 C 
ATOM      3  O   UNL     1       5.736   7.440  17.706  0.00  0.00    +0.000 OA
ATOM      4  H   UNL     1       3.075   6.595  16.196  0.00  0.00    +0.000 HD
ENDROOT
BRANCH   1   9
ATOM      5  C   UNL     1       0.822   8.949  21.619  0.00  0.00    +0.000 C 
ATOM      6  C   UNL     1       1.416   8.435  20.341  0.00  0.00    +0.000 A 
ATOM      7  C   UNL     1       1.917   7.122  20.368  0.00  0.00    +0.000 A 
ATOM      8  C   UNL     1       2.592   6.574  19.280  0.00  0.00    +0.000 A 
ATOM      9  C   UNL     1       2.807   7.327  18.132  0.00  0.00    +0.000 A 
ATOM     10  C   UNL     1       2.273   8.617  18.061  0.00  0.00    +0.000 A 
ATOM     11  C   UNL     1       1.580   9.180  19.157  0.00  0.00    +0.000 A 
BRANCH  11  12
ATOM     12  S   UNL     1       1.146  10.918  19.003  0.00  0.00    +0.000 S 
ATOM     13  O   UNL     1       1.282  11.553  20.292  0.00  0.00    +0.000 OA
ATOM     14  O   UNL     1       1.872  11.430  17.853  0.00  0.00    +0.000 OA
BRANCH  12  15
ATOM     15  N   UNL     1      -0.515  10.899  18.573  0.00  0.00    +0.000 NA
ATOM     16  C   UNL     1      -1.295  12.137  18.747  0.00  0.00    +0.000 C 
ATOM     17  C   UNL     1      -2.758  11.936  19.133  0.00  0.00    +0.000 C 
ATOM     18  C   UNL     1      -3.676  11.605  17.962  0.00  0.00    +0.000 C 
ATOM     19  C   UNL     1      -3.481  10.193  17.444  0.00  0.00    +0.000 C 
ATOM     20  C   UNL     1      -2.118  10.005  16.793  0.00  0.00    +0.000 C 
ATOM     21  C   UNL     1      -0.995   9.749  17.785  0.00  0.00    +0.000 C 
ENDBRANCH  12  15
ENDBRANCH  11  12
ENDBRANCH   1   9
BRANCH   2  22
ATOM     22  C   UNL     1       5.439   6.335  15.596  0.00  0.00    +0.000 C 
BRANCH  22  23
ATOM     23  N   UNL     1       5.245   4.855  15.588  0.00  0.00    +0.000 NA
ATOM     24  C   UNL     1       5.699   4.315  14.292  0.00  0.00    +0.000 C 
BRANCH  23  25
ATOM     25  C   UNL     1       6.080   4.248  16.655  0.00  0.00    +0.000 C 
BRANCH  25  26
ATOM     26  C   UNL     1       5.254   3.980  17.914  0.00  0.00    +0.000 C 
ATOM     27  O   UNL     1       5.724   4.219  19.023  0.00  0.00    +0.000 OA
ATOM     28  N   UNL     1       3.995   3.457  17.651  0.00  0.00    +0.000 N 
ATOM     29  H   UNL     1       3.828   3.152  16.697  0.00  0.00    +0.000 HD
BRANCH  28  30
ATOM     30  C   UNL     1       3.002   3.185  18.614  0.00  0.00    +0.000 A 
ATOM     31  C   UNL     1       1.634   3.286  18.337  0.00  0.00    +0.000 A 
ATOM     32  C   UNL     1       0.680   3.079  19.336  0.00  0.00    +0.000 A 
ATOM     33  C   UNL     1       1.089   2.757  20.625  0.00  0.00    +0.000 A 
ATOM     34  C   UNL     1       2.445   2.609  20.889  0.00  0.00    +0.000 A 
ATOM     35  F   UNL     1       2.839   2.291  22.130  0.00  0.00    +0.000 F 
ATOM     36  C   UNL     1       3.405   2.804  19.896  0.00  0.00    +0.000 A 
ENDBRANCH  28  30
ENDBRANCH  25  26
ENDBRANCH  23  25
ENDBRANCH  22  23
ENDBRANCH   2  22
TORSDOF 8
ENDMDL
MODEL 2
REMARK VINA RESULT:      -7.9      1.059      1.347
REMARK  Name = 
REMARK  10 active torsions:
REMARK  status: ('A' for Active; 'I' for Inactive)
REMARK    1  A    between atoms: C_1  and  C_2
REMARK    2  A    between atoms: C_5  and  N_6
REMARK    3  A    between atoms: C_7  and  C_9
REMARK    4  A    between atoms: C_9  and  N_10
REMARK    5  A    between atoms: N_10  and  C_11
REMARK    6  A    between atoms: N_10  and  C_12
REMARK    7  A    between atoms: C_12  and  C_13
REMARK    8  A    between atoms: N_15  and  C_16
REMARK    9  A    between atoms: C_24  and  S_25
REMARK   10  A    between atoms: S_25  and  N_28
REMARK                            x       y       z     vdW  Elec       q    Type
REMARK                         _______ _______ _______ _____ _____    ______ ____
ROOT
ATOM      1  N   UNL     1       3.747   7.074  17.056  0.00  0.00    +0.000 N 
ATOM      2  C   UNL     1       5.059   6.638  17.180  0.00  0.00    +0.000 C 
ATOM      3  O   UNL     1       5.721   6.566  18.211  0.00  0.00    +0.000 OA
ATOM      4  H   UNL     1       3.451   7.256  16.102  0.00  0.00    +0.000 HD
ENDROOT
BRANCH   1   9
ATOM      5  C   UNL     1       0.718   9.085  21.485  0.00  0.00    +0.000 C 
ATOM      6  C   UNL     1       1.389   8.590  20.238  0.00  0.00    +0.000 A 
ATOM      7  C   UNL     1       1.927   7.293  20.291  0.00  0.00    +0.000 A 
ATOM      8  C   UNL     1       2.672   6.766  19.238  0.00  0.00    +0.000 A 
ATOM      9  C   UNL     1       2.921   7.526  18.102  0.00  0.00    +0.000 A 
ATOM     10  C   UNL     1       2.353   8.800  18.004  0.00  0.00    +0.000 A 
ATOM     11  C   UNL     1       1.590   9.341  19.064  0.00  0.00    +0.000 A 
BRANCH  11  12
ATOM     12  S   UNL     1       1.112  11.065  18.888  0.00  0.00    +0.000 S 
ATOM     13  O   UNL     1       1.256  11.726  20.163  0.00  0.00    +0.000 OA
ATOM     14  O   UNL     1       1.805  11.574  17.717  0.00  0.00    +0.000 OA
BRANCH  12  15
ATOM     15  N   UNL     1      -0.555  11.000  18.488  0.00  0.00    +0.000 NA
ATOM     16  C   UNL     1      -1.366  12.215  18.680  0.00  0.00    +0.000 C 
ATOM     17  C   UNL     1      -2.816  11.972  19.092  0.00  0.00    +0.000 C 
ATOM     18  C   UNL     1      -3.745  11.618  17.937  0.00  0.00    +0.000 C 
ATOM     19  C   UNL     1      -3.520  10.213  17.411  0.00  0.00    +0.000 C 
ATOM     20  C   UNL     1      -2.165  10.066  16.735  0.00  0.00    +0.000 C 
ATOM     21  C   UNL     1      -1.017   9.839  17.705  0.00  0.00    +0.000 C 
ENDBRANCH  12  15
ENDBRANCH  11  12
ENDBRANCH   1   9
BRANCH   2  22
ATOM     22  C   UNL     1       5.665   6.234  15.835  0.00  0.00    +0.000 C 
BRANCH  22  23
ATOM     23  N   UNL     1       5.149   4.904  15.398  0.00  0.00    +0.000 NA
ATOM     24  C   UNL     1       5.839   4.499  14.158  0.00  0.00    +0.000 C 
BRANCH  23  25
ATOM     25  C   UNL     1       5.456   3.895  16.443  0.00  0.00    +0.000 C 
BRANCH  25  26
ATOM     26  C   UNL     1       4.212   3.560  17.267  0.00  0.00    +0.000 C 
ATOM     27  O   UNL     1       3.157   3.275  16.706  0.00  0.00    +0.000 OA
ATOM     28  N   UNL     1       4.420   3.629  18.638  0.00  0.00    +0.000 N 
ATOM     29  H   UNL     1       5.293   4.051  18.937  0.00  0.00    +0.000 HD
BRANCH  28  30
ATOM     30  C   UNL     1       3.473   3.302  19.630  0.00  0.00    +0.000 A 
ATOM     31  C   UNL     1       3.782   2.499  20.734  0.00  0.00    +0.000 A 
ATOM     32  C   UNL     1       2.799   2.136  21.658  0.00  0.00    +0.000 A 
ATOM     33  C   UNL     1       1.494   2.584  21.490  0.00  0.00    +0.000 A 
ATOM     34  C   UNL     1       1.197   3.420  20.420  0.00  0.00    +0.000 A 
ATOM     35  F   UNL     1      -0.059   3.858  20.263  0.00  0.00    +0.000 F 
ATOM     36  C   UNL     1       2.173   3.797  19.498  0.00  0.00    +0.000 A 
ENDBRANCH  28  30
ENDBRANCH  25  26
ENDBRANCH  23  25
ENDBRANCH  22  23
ENDBRANCH   2  22
TORSDOF 8
ENDMDL
MODEL 3
REMARK VINA RESULT:      -7.8      3.391      8.784
REMARK  Name = 
REMARK  10 active torsions:
REMARK  status: ('A' for Active; 'I' for Inactive)
REMARK    1  A    between atoms: C_1  and  C_2
REMARK    2  A    between atoms: C_5  and  N_6
REMARK    3  A    between atoms: C_7  and  C_9
REMARK    4  A    between atoms: C_9  and  N_10
REMARK    5  A    between atoms: N_10  and  C_11
REMARK    6  A    between atoms: N_10  and  C_12
REMARK    7  A    between atoms: C_12  and  C_13
REMARK    8  A    between atoms: N_15  and  C_16
REMARK    9  A    between atoms: C_24  and  S_25
REMARK   10  A    between atoms: S_25  and  N_28
REMARK                            x       y       z     vdW  Elec       q    Type
REMARK                         _______ _______ _______ _____ _____    ______ ____
ROOT
ATOM      1  N   UNL     1       1.905   7.213  20.543  0.00  0.00    +0.000 N 
ATOM      2  C   UNL     1       1.790   8.254  19.631  0.00  0.00    +0.000 C 
ATOM      3  O   UNL     1       1.706   8.160  18.409  0.00  0.00    +0.000 OA
ATOM      4  H   UNL     1       2.170   7.502  21.479  0.00  0.00    +0.000 HD
ENDROOT
BRANCH   1   9
ATOM      5  C   UNL     1       1.831   1.701  18.982  0.00  0.00    +0.000 C 
ATOM      6  C   UNL     1       1.999   3.125  19.421  0.00  0.00    +0.000 A 
ATOM      7  C   UNL     1       1.105   3.585  20.404  0.00  0.00    +0.000 A 
ATOM      8  C   UNL     1       1.087   4.917  20.810  0.00  0.00    +0.000 A 
ATOM      9  C   UNL     1       1.951   5.841  20.235  0.00  0.00    +0.000 A 
ATOM     10  C   UNL     1       2.884   5.397  19.294  0.00  0.00    +0.000 A 
ATOM     11  C   UNL     1       2.915   4.046  18.879  0.00  0.00    +0.000 A 
BRANCH  11  12
ATOM     12  S   UNL     1       4.016   3.670  17.508  0.00  0.00    +0.000 S 
ATOM     13  O   UNL     1       4.485   2.312  17.640  0.00  0.00    +0.000 OA
ATOM     14  O   UNL     1       3.337   4.096  16.297  0.00  0.00    +0.000 OA
BRANCH  12  15
ATOM     15  N   UNL     1       5.344   4.734  17.732  0.00  0.00    +0.000 NA
ATOM     16  C   UNL     1       5.369   5.990  16.965  0.00  0.00    +0.000 C 
ATOM     17  C   UNL     1       6.756   6.477  16.555  0.00  0.00    +0.000 C 
ATOM     18  C   UNL     1       7.512   7.214  17.653  0.00  0.00    +0.000 C 
ATOM     19  C   UNL     1       8.014   6.288  18.745  0.00  0.00    +0.000 C 
ATOM     20  C   UNL     1       6.874   5.681  19.549  0.00  0.00    +0.000 C 
ATOM     21  C   UNL     1       6.229   4.475  18.884  0.00  0.00    +0.000 C 
ENDBRANCH  12  15
ENDBRANCH  11  12
ENDBRANCH   1   9
BRANCH   2  22
ATOM     22  C   UNL     1       1.788   9.624  20.309  0.00  0.00    +0.000 C 
BRANCH  22  23
ATOM     23  N   UNL     1       0.483   9.877  20.988  0.00  0.00    +0.000 NA
ATOM     24  C   UNL     1       0.618   9.570  22.426  0.00  0.00    +0.000 C 
BRANCH  23  25
ATOM     25  C   UNL     1       0.136  11.314  20.858  0.00  0.00    +0.000 C 
BRANCH  25  26
ATOM     26  C   UNL     1      -0.568  11.592  19.529  0.00  0.00    +0.000 C 
ATOM     27  O   UNL     1      -0.222  12.543  18.833  0.00  0.00    +0.000 OA
ATOM     28  N   UNL     1      -1.586  10.693  19.243  0.00  0.00    +0.000 N 
ATOM     29  H   UNL     1      -1.865  10.076  19.999  0.00  0.00    +0.000 HD
BRANCH  28  30
ATOM     30  C   UNL     1      -2.350  10.668  18.057  0.00  0.00    +0.000 A 
ATOM     31  C   UNL     1      -2.000   9.885  16.951  0.00  0.00    +0.000 A 
ATOM     32  C   UNL     1      -2.739   9.941  15.767  0.00  0.00    +0.000 A 
ATOM     33  C   UNL     1      -3.847  10.776  15.683  0.00  0.00    +0.000 A 
ATOM     34  C   UNL     1      -4.223  11.517  16.798  0.00  0.00    +0.000 A 
ATOM     35  F   UNL     1      -5.296  12.316  16.720  0.00  0.00    +0.000 F 
ATOM     36  C   UNL     1      -3.497  11.460  17.987  0.00  0.00    +0.000 A 
ENDBRANCH  28  30
ENDBRANCH  25  26
ENDBRANCH  23  25
ENDBRANCH  22  23
ENDBRANCH   2  22
TORSDOF 8
ENDMDL
MODEL 4
REMARK VINA RESULT:      -7.7      3.303      9.072
REMARK  Name = 
REMARK  10 active torsions:
REMARK  status: ('A' for Active; 'I' for Inactive)
REMARK    1  A    between atoms: C_1  and  C_2
REMARK    2  A    between atoms: C_5  and  N_6
REMARK    3  A    between atoms: C_7  and  C_9
REMARK    4  A    between atoms: C_9  and  N_10
REMARK    5  A    between atoms: N_10  and  C_11
REMARK    6  A    between atoms: N_10  and  C_12
REMARK    7  A    between atoms: C_12  and  C_13
REMARK    8  A    between atoms: N_15  and  C_16
REMARK    9  A    between atoms: C_24  and  S_25
REMARK   10  A    between atoms: S_25  and  N_28
REMARK                            x       y       z     vdW  Elec       q    Type
REMARK                         _______ _______ _______ _____ _____    ______ ____
ROOT
ATOM      1  N   UNL     1       2.273   8.838  18.803  0.00  0.00    +0.000 N 
ATOM      2  C   UNL     1       1.306   9.834  18.751  0.00  0.00    +0.000 C 
ATOM      3  O   UNL     1       0.167   9.784  19.206  0.00  0.00    +0.000 OA
ATOM      4  H   UNL     1       3.069   8.992  18.193  0.00  0.00    +0.000 HD
ENDROOT
BRANCH   1   9
ATOM      5  C   UNL     1       1.306   3.637  21.004  0.00  0.00    +0.000 C 
ATOM      6  C   UNL     1       1.706   4.958  20.417  0.00  0.00    +0.000 A 
ATOM      7  C   UNL     1       1.320   6.103  21.135  0.00  0.00    +0.000 A 
ATOM      8  C   UNL     1       1.534   7.385  20.635  0.00  0.00    +0.000 A 
ATOM      9  C   UNL     1       2.124   7.569  19.391  0.00  0.00    +0.000 A 
ATOM     10  C   UNL     1       2.564   6.447  18.682  0.00  0.00    +0.000 A 
ATOM     11  C   UNL     1       2.358   5.141  19.182  0.00  0.00    +0.000 A 
BRANCH  11  12
ATOM     12  S   UNL     1       2.775   3.796  18.064  0.00  0.00    +0.000 S 
ATOM     13  O   UNL     1       2.785   2.556  18.803  0.00  0.00    +0.000 OA
ATOM     14  O   UNL     1       1.926   3.945  16.895  0.00  0.00    +0.000 OA
BRANCH  12  15
ATOM     15  N   UNL     1       4.378   4.149  17.562  0.00  0.00    +0.000 NA
ATOM     16  C   UNL     1       5.456   4.069  18.562  0.00  0.00    +0.000 C 
ATOM     17  C   UNL     1       6.593   5.070  18.376  0.00  0.00    +0.000 C 
ATOM     18  C   UNL     1       7.625   4.661  17.333  0.00  0.00    +0.000 C 
ATOM     19  C   UNL     1       7.106   4.785  15.913  0.00  0.00    +0.000 C 
ATOM     20  C   UNL     1       5.999   3.783  15.619  0.00  0.00    +0.000 C 
ATOM     21  C   UNL     1       4.629   4.223  16.110  0.00  0.00    +0.000 C 
ENDBRANCH  12  15
ENDBRANCH  11  12
ENDBRANCH   1   9
BRANCH   2  22
ATOM     22  C   UNL     1       1.799  11.084  18.021  0.00  0.00    +0.000 C 
BRANCH  22  23
ATOM     23  N   UNL     1       1.556  12.307  18.841  0.00  0.00    +0.000 NA
ATOM     24  C   UNL     1       2.734  13.193  18.751  0.00  0.00    +0.000 C 
BRANCH  23  25
ATOM     25  C   UNL     1       0.390  13.040  18.288  0.00  0.00    +0.000 C 
BRANCH  25  26
ATOM     26  C   UNL     1      -0.608  13.399  19.390  0.00  0.00    +0.000 C 
ATOM     27  O   UNL     1      -0.512  14.470  19.985  0.00  0.00    +0.000 OA
ATOM     28  N   UNL     1      -1.560  12.415  19.618  0.00  0.00    +0.000 N 
ATOM     29  H   UNL     1      -1.395  11.520  19.171  0.00  0.00    +0.000 HD
BRANCH  28  30
ATOM     30  C   UNL     1      -2.639  12.512  20.521  0.00  0.00    +0.000 A 
ATOM     31  C   UNL     1      -3.955  12.744  20.104  0.00  0.00    +0.000 A 
ATOM     32  C   UNL     1      -4.986  12.906  21.032  0.00  0.00    +0.000 A 
ATOM     33  C   UNL     1      -4.711  12.824  22.392  0.00  0.00    +0.000 A 
ATOM     34  C   UNL     1      -3.414  12.545  22.805  0.00  0.00    +0.000 A 
ATOM     35  F   UNL     1      -3.150  12.459  24.116  0.00  0.00    +0.000 F 
ATOM     36  C   UNL     1      -2.379  12.372  21.887  0.00  0.00    +0.000 A 
ENDBRANCH  28  30
ENDBRANCH  25  26
ENDBRANCH  23  25
ENDBRANCH  22  23
ENDBRANCH   2  22
TORSDOF 8
ENDMDL
MODEL 5
REMARK VINA RESULT:      -7.7      2.795      4.899
REMARK  Name = 
REMARK  10 active torsions:
REMARK  status: ('A' for Active; 'I' for Inactive)
REMARK    1  A    between atoms: C_1  and  C_2
REMARK    2  A    between atoms: C_5  and  N_6
REMARK    3  A    between atoms: C_7  and  C_9
REMARK    4  A    between atoms: C_9  and  N_10
REMARK    5  A    between atoms: N_10  and  C_11
REMARK    6  A    between atoms: N_10  and  C_12
REMARK    7  A    between atoms: C_12  and  C_13
REMARK    8  A    between atoms: N_15  and  C_16
REMARK    9  A    between atoms: C_24  and  S_25
REMARK   10  A    between atoms: S_25  and  N_28
REMARK                            x       y       z     vdW  Elec       q    Type
REMARK                         _______ _______ _______ _____ _____    ______ ____
ROOT
ATOM      1  N   UNL     1       2.181   8.131  19.058  0.00  0.00    +0.000 N 
ATOM      2  C   UNL     1       2.497   6.779  19.096  0.00  0.00    +0.000 C 
ATOM      3  O   UNL     1       2.086   5.945  19.898  0.00  0.00    +0.000 OA
ATOM      4  H   UNL     1       2.780   8.687  18.456  0.00  0.00    +0.000 HD
ENDROOT
BRANCH   1   9
ATOM      5  C   UNL     1      -0.983  11.086  22.811  0.00  0.00    +0.000 C 
ATOM      6  C   UNL     1      -0.272  10.325  21.731  0.00  0.00    +0.000 A 
ATOM      7  C   UNL     1       0.240   9.066  22.089  0.00  0.00    +0.000 A 
ATOM      8  C   UNL     1       1.016   8.316  21.208  0.00  0.00    +0.000 A 
ATOM      9  C   UNL     1       1.323   8.807  19.945  0.00  0.00    +0.000 A 
ATOM     10  C   UNL     1       0.782  10.034  19.548  0.00  0.00    +0.000 A 
ATOM     11  C   UNL     1      -0.013  10.800  20.432  0.00  0.00    +0.000 A 
BRANCH  11  12
ATOM     12  S   UNL     1      -0.453  12.448  19.863  0.00  0.00    +0.000 S 
ATOM     13  O   UNL     1      -0.210  13.393  20.928  0.00  0.00    +0.000 OA
ATOM     14  O   UNL     1       0.178  12.626  18.567  0.00  0.00    +0.000 OA
BRANCH  12  15
ATOM     15  N   UNL     1      -2.144  12.358  19.584  0.00  0.00    +0.000 NA
ATOM     16  C   UNL     1      -2.650  11.290  18.705  0.00  0.00    +0.000 C 
ATOM     17  C   UNL     1      -3.873  11.658  17.869  0.00  0.00    +0.000 C 
ATOM     18  C   UNL     1      -5.195  11.571  18.621  0.00  0.00    +0.000 C 
ATOM     19  C   UNL     1      -5.377  12.696  19.623  0.00  0.00    +0.000 C 
ATOM     20  C   UNL     1      -4.392  12.597  20.779  0.00  0.00    +0.000 C 
ATOM     21  C   UNL     1      -3.016  13.161  20.461  0.00  0.00    +0.000 C 
ENDBRANCH  12  15
ENDBRANCH  11  12
ENDBRANCH   1   9
BRANCH   2  22
ATOM     22  C   UNL     1       3.476   6.381  17.991  0.00  0.00    +0.000 C 
BRANCH  22  23
ATOM     23  N   UNL     1       4.512   5.442  18.513  0.00  0.00    +0.000 NA
ATOM     24  C   UNL     1       4.258   4.092  17.974  0.00  0.00    +0.000 C 
BRANCH  23  25
ATOM     25  C   UNL     1       5.849   5.879  18.040  0.00  0.00    +0.000 C 
BRANCH  25  26
ATOM     26  C   UNL     1       5.906   5.921  16.513  0.00  0.00    +0.000 C 
ATOM     27  O   UNL     1       5.457   6.890  15.904  0.00  0.00    +0.000 OA
ATOM     28  N   UNL     1       6.482   4.792  15.947  0.00  0.00    +0.000 N 
ATOM     29  H   UNL     1       6.638   4.008  16.573  0.00  0.00    +0.000 HD
BRANCH  28  30
ATOM     30  C   UNL     1       6.728   4.597  14.573  0.00  0.00    +0.000 A 
ATOM     31  C   UNL     1       7.665   5.352  13.859  0.00  0.00    +0.000 A 
ATOM     32  C   UNL     1       7.830   5.180  12.482  0.00  0.00    +0.000 A 
ATOM     33  C   UNL     1       7.062   4.238  11.807  0.00  0.00    +0.000 A 
ATOM     34  C   UNL     1       6.166   3.454  12.524  0.00  0.00    +0.000 A 
ATOM     35  F   UNL     1       5.432   2.541  11.875  0.00  0.00    +0.000 F 
ATOM     36  C   UNL     1       6.001   3.612  13.900  0.00  0.00    +0.000 A 
ENDBRANCH  28  30
ENDBRANCH  25  26
ENDBRANCH  23  25
ENDBRANCH  22  23
ENDBRANCH   2  22
TORSDOF 8
ENDMDL
MODEL 6
REMARK VINA RESULT:      -7.7      3.547      9.026
REMARK  Name = 
REMARK  10 active torsions:
REMARK  status: ('A' for Active; 'I' for Inactive)
REMARK    1  A    between atoms: C_1  and  C_2
REMARK    2  A    between atoms: C_5  and  N_6
REMARK    3  A    between atoms: C_7  and  C_9
REMARK    4  A    between atoms: C_9  and  N_10
REMARK    5  A    between atoms: N_10  and  C_11
REMARK    6  A    between atoms: N_10  and  C_12
REMARK    7  A    between atoms: C_12  and  C_13
REMARK    8  A    between atoms: N_15  and  C_16
REMARK    9  A    between atoms: C_24  and  S_25
REMARK   10  A    between atoms: S_25  and  N_28
REMARK                            x       y       z     vdW  Elec       q    Type
REMARK                         _______ _______ _______ _____ _____    ______ ____
ROOT
ATOM      1  N   UNL     1       2.293   7.884  18.713  0.00  0.00    +0.000 N 
ATOM      2  C   UNL     1       1.618   9.050  19.051  0.00  0.00    +0.000 C 
ATOM      3  O   UNL     1       0.922   9.240  20.044  0.00  0.00    +0.000 OA
ATOM      4  H   UNL     1       2.638   7.858  17.759  0.00  0.00    +0.000 HD
ENDROOT
BRANCH   1   9
ATOM      5  C   UNL     1       2.043   2.862  21.461  0.00  0.00    +0.000 C 
ATOM      6  C   UNL     1       2.258   4.176  20.771  0.00  0.00    +0.000 A 
ATOM      7  C   UNL     1       1.438   5.240  21.184  0.00  0.00    +0.000 A 
ATOM      8  C   UNL     1       1.465   6.476  20.543  0.00  0.00    +0.000 A 
ATOM      9  C   UNL     1       2.300   6.686  19.452  0.00  0.00    +0.000 A 
ATOM     10  C   UNL     1       3.163   5.660  19.056  0.00  0.00    +0.000 A 
ATOM     11  C   UNL     1       3.149   4.404  19.705  0.00  0.00    +0.000 A 
BRANCH  11  12
ATOM     12  S   UNL     1       4.150   3.117  18.947  0.00  0.00    +0.000 S 
ATOM     13  O   UNL     1       5.028   2.556  19.946  0.00  0.00    +0.000 OA
ATOM     14  O   UNL     1       3.241   2.260  18.206  0.00  0.00    +0.000 OA
BRANCH  12  15
ATOM     15  N   UNL     1       5.101   3.952  17.788  0.00  0.00    +0.000 NA
ATOM     16  C   UNL     1       4.585   4.062  16.412  0.00  0.00    +0.000 C 
ATOM     17  C   UNL     1       5.647   4.048  15.315  0.00  0.00    +0.000 C 
ATOM     18  C   UNL     1       6.335   5.388  15.091  0.00  0.00    +0.000 C 
ATOM     19  C   UNL     1       7.300   5.748  16.204  0.00  0.00    +0.000 C 
ATOM     20  C   UNL     1       6.582   6.018  17.519  0.00  0.00    +0.000 C 
ATOM     21  C   UNL     1       6.226   4.759  18.293  0.00  0.00    +0.000 C 
ENDBRANCH  12  15
ENDBRANCH  11  12
ENDBRANCH   1   9
BRANCH   2  22
ATOM     22  C   UNL     1       1.814  10.155  18.013  0.00  0.00    +0.000 C 
BRANCH  22  23
ATOM     23  N   UNL     1       1.670  11.502  18.638  0.00  0.00    +0.000 NA
ATOM     24  C   UNL     1       2.673  12.415  18.057  0.00  0.00    +0.000 C 
BRANCH  23  25
ATOM     25  C   UNL     1       0.323  12.043  18.326  0.00  0.00    +0.000 C 
BRANCH  25  26
ATOM     26  C   UNL     1      -0.338  12.628  19.575  0.00  0.00    +0.000 C 
ATOM     27  O   UNL     1       0.012  13.725  20.003  0.00  0.00    +0.000 OA
ATOM     28  N   UNL     1      -1.311  11.804  20.124  0.00  0.00    +0.000 N 
ATOM     29  H   UNL     1      -1.355  10.858  19.759  0.00  0.00    +0.000 HD
BRANCH  28  30
ATOM     30  C   UNL     1      -2.127  12.122  21.230  0.00  0.00    +0.000 A 
ATOM     31  C   UNL     1      -1.733  11.888  22.552  0.00  0.00    +0.000 A 
ATOM     32  C   UNL     1      -2.597  12.149  23.617  0.00  0.00    +0.000 A 
ATOM     33  C   UNL     1      -3.866  12.659  23.369  0.00  0.00    +0.000 A 
ATOM     34  C   UNL     1      -4.240  12.938  22.059  0.00  0.00    +0.000 A 
ATOM     35  F   UNL     1      -5.459  13.438  21.820  0.00  0.00    +0.000 F 
ATOM     36  C   UNL     1      -3.380  12.690  20.989  0.00  0.00    +0.000 A 
ENDBRANCH  28  30
ENDBRANCH  25  26
ENDBRANCH  23  25
ENDBRANCH  22  23
ENDBRANCH   2  22
TORSDOF 8
ENDMDL
MODEL 7
REMARK VINA RESULT:      -7.6      6.065      8.885
REMARK  Name = 
REMARK  10 active torsions:
REMARK  status: ('A' for Active; 'I' for Inactive)
REMARK    1  A    between atoms: C_1  and  C_2
REMARK    2  A    between atoms: C_5  and  N_6
REMARK    3  A    between atoms: C_7  and  C_9
REMARK    4  A    between atoms: C_9  and  N_10
REMARK    5  A    between atoms: N_10  and  C_11
REMARK    6  A    between atoms: N_10  and  C_12
REMARK    7  A    between atoms: C_12  and  C_13
REMARK    8  A    between atoms: N_15  and  C_16
REMARK    9  A    between atoms: C_24  and  S_25
REMARK   10  A    between atoms: S_25  and  N_28
REMARK                            x       y       z     vdW  Elec       q    Type
REMARK                         _______ _______ _______ _____ _____    ______ ____
ROOT
ATOM      1  N   UNL     1      -2.839  14.483  20.595  0.00  0.00    +0.000 N 
ATOM      2  C   UNL     1      -1.945  15.001  21.523  0.00  0.00    +0.000 C 
ATOM      3  O   UNL     1      -2.035  14.947  22.746  0.00  0.00    +0.000 OA
ATOM      4  H   UNL     1      -2.696  14.810  19.645  0.00  0.00    +0.000 HD
ENDROOT
BRANCH   1   9
ATOM      5  C   UNL     1      -7.895  11.964  21.559  0.00  0.00    +0.000 C 
ATOM      6  C   UNL     1      -6.512  12.483  21.298  0.00  0.00    +0.000 A 
ATOM      7  C   UNL     1      -6.018  13.431  22.211  0.00  0.00    +0.000 A 
ATOM      8  C   UNL     1      -4.795  14.068  22.014  0.00  0.00    +0.000 A 
ATOM      9  C   UNL     1      -4.031  13.795  20.886  0.00  0.00    +0.000 A 
ATOM     10  C   UNL     1      -4.476  12.818  19.990  0.00  0.00    +0.000 A 
ATOM     11  C   UNL     1      -5.713  12.160  20.185  0.00  0.00    +0.000 A 
BRANCH  11  12
ATOM     12  S   UNL     1      -6.255  11.095  18.841  0.00  0.00    +0.000 S 
ATOM     13  O   UNL     1      -6.676   9.827  19.388  0.00  0.00    +0.000 OA
ATOM     14  O   UNL     1      -7.165  11.880  18.026  0.00  0.00    +0.000 OA
BRANCH  12  15
ATOM     15  N   UNL     1      -4.839  10.845  17.905  0.00  0.00    +0.000 NA
ATOM     16  C   UNL     1      -3.942   9.738  18.277  0.00  0.00    +0.000 C 
ATOM     17  C   UNL     1      -2.457   9.992  18.033  0.00  0.00    +0.000 C 
ATOM     18  C   UNL     1      -2.012   9.776  16.592  0.00  0.00    +0.000 C 
ATOM     19  C   UNL     1      -2.489  10.872  15.658  0.00  0.00    +0.000 C 
ATOM     20  C   UNL     1      -4.001  10.862  15.489  0.00  0.00    +0.000 C 
ATOM     21  C   UNL     1      -4.749  11.557  16.616  0.00  0.00    +0.000 C 
ENDBRANCH  12  15
ENDBRANCH  11  12
ENDBRANCH   1   9
BRANCH   2  22
ATOM     22  C   UNL     1      -0.761  15.704  20.859  0.00  0.00    +0.000 C 
BRANCH  22  23
ATOM     23  N   UNL     1      -0.540  15.181  19.479  0.00  0.00    +0.000 NA
ATOM     24  C   UNL     1      -0.550  16.308  18.526  0.00  0.00    +0.000 C 
BRANCH  23  25
ATOM     25  C   UNL     1       0.795  14.536  19.410  0.00  0.00    +0.000 C 
BRANCH  25  26
ATOM     26  C   UNL     1       0.913  13.404  20.431  0.00  0.00    +0.000 C 
ATOM     27  O   UNL     1       1.793  13.435  21.289  0.00  0.00    +0.000 OA
ATOM     28  N   UNL     1      -0.034  12.404  20.263  0.00  0.00    +0.000 N 
ATOM     29  H   UNL     1      -0.573  12.438  19.403  0.00  0.00    +0.000 HD
BRANCH  28  30
ATOM     30  C   UNL     1      -0.204  11.284  21.103  0.00  0.00    +0.000 A 
ATOM     31  C   UNL     1      -0.853  11.359  22.340  0.00  0.00    +0.000 A 
ATOM     32  C   UNL     1      -0.938  10.244  23.177  0.00  0.00    +0.000 A 
ATOM     33  C   UNL     1      -0.381   9.036  22.777  0.00  0.00    +0.000 A 
ATOM     34  C   UNL     1       0.221   8.948  21.527  0.00  0.00    +0.000 A 
ATOM     35  F   UNL     1       0.751   7.781  21.138  0.00  0.00    +0.000 F 
ATOM     36  C   UNL     1       0.303  10.053  20.680  0.00  0.00    +0.000 A 
ENDBRANCH  28  30
ENDBRANCH  25  26
ENDBRANCH  23  25
ENDBRANCH  22  23
ENDBRANCH   2  22
TORSDOF 8
ENDMDL
MODEL 8
REMARK VINA RESULT:      -7.6      6.061      9.024
REMARK  Name = 
REMARK  10 active torsions:
REMARK  status: ('A' for Active; 'I' for Inactive)
REMARK    1  A    between atoms: C_1  and  C_2
REMARK    2  A    between atoms: C_5  and  N_6
REMARK    3  A    between atoms: C_7  and  C_9
REMARK    4  A    between atoms: C_9  and  N_10
REMARK    5  A    between atoms: N_10  and  C_11
REMARK    6  A    between atoms: N_10  and  C_12
REMARK    7  A    between atoms: C_12  and  C_13
REMARK    8  A    between atoms: N_15  and  C_16
REMARK    9  A    between atoms: C_24  and  S_25
REMARK   10  A    between atoms: S_25  and  N_28
REMARK                            x       y       z     vdW  Elec       q    Type
REMARK                         _______ _______ _______ _____ _____    ______ ____
ROOT
ATOM      1  N   UNL     1       8.228   9.614  17.652  0.00  0.00    +0.000 N 
ATOM      2  C   UNL     1       8.982  10.410  18.505  0.00  0.00    +0.000 C 
ATOM      3  O   UNL     1       9.513  10.069  19.558  0.00  0.00    +0.000 OA
ATOM      4  H   UNL     1       7.707  10.128  16.949  0.00  0.00    +0.000 HD
ENDROOT
BRANCH   1   9
ATOM      5  C   UNL     1       6.676   4.190  18.650  0.00  0.00    +0.000 C 
ATOM      6  C   UNL     1       7.118   5.565  18.247  0.00  0.00    +0.000 A 
ATOM      7  C   UNL     1       8.068   6.184  19.078  0.00  0.00    +0.000 A 
ATOM      8  C   UNL     1       8.471   7.502  18.873  0.00  0.00    +0.000 A 
ATOM      9  C   UNL     1       7.925   8.254  17.840  0.00  0.00    +0.000 A 
ATOM     10  C   UNL     1       7.018   7.643  16.968  0.00  0.00    +0.000 A 
ATOM     11  C   UNL     1       6.608   6.305  17.163  0.00  0.00    +0.000 A 
BRANCH  11  12
ATOM     12  S   UNL     1       5.277   5.728  16.100  0.00  0.00    +0.000 S 
ATOM     13  O   UNL     1       4.865   6.808  15.234  0.00  0.00    +0.000 OA
ATOM     14  O   UNL     1       5.711   4.462  15.535  0.00  0.00    +0.000 OA
BRANCH  12  15
ATOM     15  N   UNL     1       3.995   5.375  17.184  0.00  0.00    +0.000 NA
ATOM     16  C   UNL     1       3.460   4.003  17.208  0.00  0.00    +0.000 C 
ATOM     17  C   UNL     1       1.965   3.892  17.497  0.00  0.00    +0.000 C 
ATOM     18  C   UNL     1       1.603   3.985  18.974  0.00  0.00    +0.000 C 
ATOM     19  C   UNL     1       1.739   5.391  19.525  0.00  0.00    +0.000 C 
ATOM     20  C   UNL     1       3.189   5.853  19.563  0.00  0.00    +0.000 C 
ATOM     21  C   UNL     1       3.702   6.373  18.230  0.00  0.00    +0.000 C 
ENDBRANCH  12  15
ENDBRANCH  11  12
ENDBRANCH   1   9
BRANCH   2  22
ATOM     22  C   UNL     1       9.099  11.850  18.003  0.00  0.00    +0.000 C 
BRANCH  22  23
ATOM     23  N   UNL     1       9.913  12.675  18.945  0.00  0.00    +0.000 NA
ATOM     24  C   UNL     1      10.770  13.592  18.169  0.00  0.00    +0.000 C 
BRANCH  23  25
ATOM     25  C   UNL     1       9.003  13.497  19.782  0.00  0.00    +0.000 C 
BRANCH  25  26
ATOM     26  C   UNL     1       9.059  13.061  21.247  0.00  0.00    +0.000 C 
ATOM     27  O   UNL     1      10.032  12.442  21.671  0.00  0.00    +0.000 OA
ATOM     28  N   UNL     1       7.936  13.425  21.977  0.00  0.00    +0.000 N 
ATOM     29  H   UNL     1       7.147  13.772  21.441  0.00  0.00    +0.000 HD
BRANCH  28  30
ATOM     30  C   UNL     1       7.754  13.217  23.360  0.00  0.00    +0.000 A 
ATOM     31  C   UNL     1       8.288  14.074  24.329  0.00  0.00    +0.000 A 
ATOM     32  C   UNL     1       8.148  13.797  25.691  0.00  0.00    +0.000 A 
ATOM     33  C   UNL     1       7.460  12.659  26.097  0.00  0.00    +0.000 A 
ATOM     34  C   UNL     1       6.887  11.834  25.136  0.00  0.00    +0.000 A 
ATOM     35  F   UNL     1       6.217  10.743  25.527  0.00  0.00    +0.000 F 
ATOM     36  C   UNL     1       7.013  12.108  23.774  0.00  0.00    +0.000 A 
ENDBRANCH  28  30
ENDBRANCH  25  26
ENDBRANCH  23  25
ENDBRANCH  22  23
ENDBRANCH   2  22
TORSDOF 8
ENDMDL
MODEL 9
REMARK VINA RESULT:      -7.6      0.704      1.396
REMARK  Name = 
REMARK  10 active torsions:
REMARK  status: ('A' for Active; 'I' for Inactive)
REMARK    1  A    between atoms: C_1  and  C_2
REMARK    2  A    between atoms: C_5  and  N_6
REMARK    3  A    between atoms: C_7  and  C_9
REMARK    4  A    between atoms: C_9  and  N_10
REMARK    5  A    between atoms: N_10  and  C_11
REMARK    6  A    between atoms: N_10  and  C_12
REMARK    7  A    between atoms: C_12  and  C_13
REMARK    8  A    between atoms: N_15  and  C_16
REMARK    9  A    between atoms: C_24  and  S_25
REMARK   10  A    between atoms: S_25  and  N_28
REMARK                            x       y       z     vdW  Elec       q    Type
REMARK                         _______ _______ _______ _____ _____    ______ ____
ROOT
ATOM      1  N   UNL     1       3.572   6.483  17.633  0.00  0.00    +0.000 N 
ATOM      2  C   UNL     1       4.753   7.005  17.123  0.00  0.00    +0.000 C 
ATOM      3  O   UNL     1       5.267   8.084  17.405  0.00  0.00    +0.000 OA
ATOM      4  H   UNL     1       3.212   5.682  17.125  0.00  0.00    +0.000 HD
ENDROOT
BRANCH   1   9
ATOM      5  C   UNL     1       0.480   9.158  21.647  0.00  0.00    +0.000 C 
ATOM      6  C   UNL     1       1.177   8.493  20.498  0.00  0.00    +0.000 A 
ATOM      7  C   UNL     1       1.583   7.162  20.701  0.00  0.00    +0.000 A 
ATOM      8  C   UNL     1       2.338   6.476  19.752  0.00  0.00    +0.000 A 
ATOM      9  C   UNL     1       2.730   7.102  18.575  0.00  0.00    +0.000 A 
ATOM     10  C   UNL     1       2.294   8.407  18.328  0.00  0.00    +0.000 A 
ATOM     11  C   UNL     1       1.522   9.110  19.281  0.00  0.00    +0.000 A 
BRANCH  11  12
ATOM     12  S   UNL     1       1.223  10.847  18.923  0.00  0.00    +0.000 S 
ATOM     13  O   UNL     1       1.355  11.608  20.142  0.00  0.00    +0.000 OA
ATOM     14  O   UNL     1       2.030  11.179  17.761  0.00  0.00    +0.000 OA
BRANCH  12  15
ATOM     15  N   UNL     1      -0.416  10.897  18.419  0.00  0.00    +0.000 NA
ATOM     16  C   UNL     1      -1.007   9.676  17.846  0.00  0.00    +0.000 C 
ATOM     17  C   UNL     1      -2.048   9.906  16.753  0.00  0.00    +0.000 C 
ATOM     18  C   UNL     1      -3.438  10.251  17.274  0.00  0.00    +0.000 C 
ATOM     19  C   UNL     1      -3.523  11.657  17.837  0.00  0.00    +0.000 C 
ATOM     20  C   UNL     1      -2.701  11.815  19.108  0.00  0.00    +0.000 C 
ATOM     21  C   UNL     1      -1.221  12.053  18.855  0.00  0.00    +0.000 C 
ENDBRANCH  12  15
ENDBRANCH  11  12
ENDBRANCH   1   9
BRANCH   2  22
ATOM     22  C   UNL     1       5.408   6.073  16.104  0.00  0.00    +0.000 C 
BRANCH  22  23
ATOM     23  N   UNL     1       6.789   5.705  16.532  0.00  0.00    +0.000 NA
ATOM     24  C   UNL     1       7.212   6.599  17.627  0.00  0.00    +0.000 C 
BRANCH  23  25
ATOM     25  C   UNL     1       6.784   4.315  17.053  0.00  0.00    +0.000 C 
BRANCH  25  26
ATOM     26  C   UNL     1       5.725   4.140  18.143  0.00  0.00    +0.000 C 
ATOM     27  O   UNL     1       5.880   4.660  19.245  0.00  0.00    +0.000 OA
ATOM     28  N   UNL     1       4.646   3.360  17.748  0.00  0.00    +0.000 N 
ATOM     29  H   UNL     1       4.753   2.859  16.872  0.00  0.00    +0.000 HD
BRANCH  28  30
ATOM     30  C   UNL     1       3.497   3.097  18.522  0.00  0.00    +0.000 A 
ATOM     31  C   UNL     1       2.204   3.127  17.988  0.00  0.00    +0.000 A 
ATOM     32  C   UNL     1       1.085   2.933  18.801  0.00  0.00    +0.000 A 
ATOM     33  C   UNL     1       1.251   2.694  20.160  0.00  0.00    +0.000 A 
ATOM     34  C   UNL     1       2.537   2.615  20.682  0.00  0.00    +0.000 A 
ATOM     35  F   UNL     1       2.698   2.377  21.990  0.00  0.00    +0.000 F 
ATOM     36  C   UNL     1       3.661   2.798  19.877  0.00  0.00    +0.000 A 
ENDBRANCH  28  30
ENDBRANCH  25  26
ENDBRANCH  23  25
ENDBRANCH  22  23
ENDBRANCH   2  22
TORSDOF 8
ENDMDL
