MODEL 1
REMARK VINA RESULT:      -8.4      0.000      0.000
REMARK  Name = 
REMARK  5 active torsions:
REMARK  status: ('A' for Active; 'I' for Inactive)
REMARK    1  A    between atoms: C_1  and  C_2
REMARK    2  A    between atoms: C_3  and  N_4
REMARK    3  A    between atoms: C_5  and  C_6
REMARK    4  A    between atoms: N_17  and  C_18
REMARK    5  A    between atoms: N_24  and  C_25
REMARK                            x       y       z     vdW  Elec       q    Type
REMARK                         _______ _______ _______ _____ _____    ______ ____
ROOT
ATOM      1  C   UNL     1       1.983   3.274  21.467  0.00  0.00    +0.000 C 
ATOM      2  C   UNL     1       2.617   4.098  20.394  0.00  0.00    +0.000 A 
ATOM      3  C   UNL     1       2.342   5.382  20.085  0.00  0.00    +0.000 A 
ATOM      4  C   UNL     1       3.479   5.779  19.156  0.00  0.00    +0.000 A 
ATOM      5  O   UNL     1       3.626   6.902  18.692  0.00  0.00    +0.000 OA
ATOM      6  N   UNL     1       4.239   4.625  18.923  0.00  0.00    +0.000 N 
ATOM      7  N   UNL     1       3.644   3.548  19.602  0.00  0.00    +0.000 N 
ATOM      8  C   UNL     1       4.507   2.462  20.066  0.00  0.00    +0.000 C 
ENDROOT
BRANCH   6   9
ATOM      9  C   UNL     1       5.121   4.463  17.832  0.00  0.00    +0.000 A 
ATOM     10  C   UNL     1       4.612   4.134  16.570  0.00  0.00    +0.000 A 
ATOM     11  C   UNL     1       5.457   4.061  15.459  0.00  0.00    +0.000 A 
ATOM     12  C   UNL     1       6.825   4.282  15.606  0.00  0.00    +0.000 A 
ATOM     13  C   UNL     1       7.351   4.566  16.863  0.00  0.00    +0.000 A 
ATOM     14  C   UNL     1       6.503   4.659  17.970  0.00  0.00    +0.000 A 
ENDBRANCH   6   9
BRANCH   3  15
ATOM     15  N   UNL     1       1.319   6.208  20.528  0.00  0.00    +0.000 NA
ATOM     16  C   UNL     1       1.712   7.438  20.704  0.00  0.00    +0.000 C 
BRANCH  16  17
ATOM     17  C   UNL     1       0.892   8.550  21.139  0.00  0.00    +0.000 A 
ATOM     18  N   UNL     1       0.486   9.445  20.255  0.00  0.00    +0.000 NA
ATOM     19  C   UNL     1      -0.294  10.336  20.939  0.00  0.00    +0.000 A 
ATOM     20  C   UNL     1      -0.980  11.461  20.460  0.00  0.00    +0.000 A 
ATOM     21  C   UNL     1      -1.742  12.218  21.354  0.00  0.00    +0.000 A 
ATOM     22  C   UNL     1      -1.805  11.864  22.702  0.00  0.00    +0.000 A 
ATOM     23  C   UNL     1      -1.119  10.749  23.202  0.00  0.00    +0.000 A 
ATOM     24  C   UNL     1      -0.370   9.996  22.286  0.00  0.00    +0.000 A 
ATOM     25  N   UNL     1       0.406   8.855  22.390  0.00  0.00    +0.000 N 
ATOM     26  H   UNL     1       0.569   8.316  23.227  0.00  0.00    +0.000 HD
ENDBRANCH  16  17
ENDBRANCH   3  15
TORSDOF 3
ENDMDL
MODEL 2
REMARK VINA RESULT:      -8.2      5.284      7.501
REMARK  Name = 
REMARK  5 active torsions:
REMARK  status: ('A' for Active; 'I' for Inactive)
REMARK    1  A    between atoms: C_1  and  C_2
REMARK    2  A    between atoms: C_3  and  N_4
REMARK    3  A    between atoms: C_5  and  C_6
REMARK    4  A    between atoms: N_17  and  C_18
REMARK    5  A    between atoms: N_24  and  C_25
REMARK                            x       y       z     vdW  Elec       q    Type
REMARK                         _______ _______ _______ _____ _____    ______ ____
ROOT
ATOM      1  C   UNL     1       7.707   5.233  15.295  0.00  0.00    +0.000 C 
ATOM      2  C   UNL     1       6.718   5.151  16.413  0.00  0.00    +0.000 A 
ATOM      3  C   UNL     1       6.721   5.868  17.555  0.00  0.00    +0.000 A 
ATOM      4  C   UNL     1       5.346   5.600  18.150  0.00  0.00    +0.000 A 
ATOM      5  O   UNL     1       4.930   6.119  19.177  0.00  0.00    +0.000 OA
ATOM      6  N   UNL     1       4.729   4.640  17.338  0.00  0.00    +0.000 N 
ATOM      7  N   UNL     1       5.622   4.272  16.316  0.00  0.00    +0.000 N 
ATOM      8  C   UNL     1       5.064   3.841  15.033  0.00  0.00    +0.000 C 
ENDROOT
BRANCH   6   9
ATOM      9  C   UNL     1       3.641   3.837  17.744  0.00  0.00    +0.000 A 
ATOM     10  C   UNL     1       3.878   2.550  18.243  0.00  0.00    +0.000 A 
ATOM     11  C   UNL     1       2.825   1.775  18.738  0.00  0.00    +0.000 A 
ATOM     12  C   UNL     1       1.522   2.265  18.707  0.00  0.00    +0.000 A 
ATOM     13  C   UNL     1       1.266   3.526  18.172  0.00  0.00    +0.000 A 
ATOM     14  C   UNL     1       2.322   4.308  17.696  0.00  0.00    +0.000 A 
ENDBRANCH   6   9
BRANCH   3  15
ATOM     15  N   UNL     1       7.689   6.713  18.078  0.00  0.00    +0.000 NA
ATOM     16  C   UNL     1       7.472   7.963  17.785  0.00  0.00    +0.000 C 
BRANCH  16  17
ATOM     17  C   UNL     1       8.278   9.097  18.191  0.00  0.00    +0.000 A 
ATOM     18  N   UNL     1       8.224  10.218  17.494  0.00  0.00    +0.000 NA
ATOM     19  C   UNL     1       9.043  11.108  18.131  0.00  0.00    +0.000 A 
ATOM     20  C   UNL     1       9.320  12.444  17.807  0.00  0.00    +0.000 A 
ATOM     21  C   UNL     1      10.184  13.173  18.630  0.00  0.00    +0.000 A 
ATOM     22  C   UNL     1      10.768  12.572  19.746  0.00  0.00    +0.000 A 
ATOM     23  C   UNL     1      10.511  11.236  20.081  0.00  0.00    +0.000 A 
ATOM     24  C   UNL     1       9.632  10.526  19.249  0.00  0.00    +0.000 A 
ATOM     25  N   UNL     1       9.134   9.235  19.260  0.00  0.00    +0.000 N 
ATOM     26  H   UNL     1       9.334   8.522  19.944  0.00  0.00    +0.000 HD
ENDBRANCH  16  17
ENDBRANCH   3  15
TORSDOF 3
ENDMDL
MODEL 3
REMARK VINA RESULT:      -8.1      0.351      1.184
REMARK  Name = 
REMARK  5 active torsions:
REMARK  status: ('A' for Active; 'I' for Inactive)
REMARK    1  A    between atoms: C_1  and  C_2
REMARK    2  A    between atoms: C_3  and  N_4
REMARK    3  A    between atoms: C_5  and  C_6
REMARK    4  A    between atoms: N_17  and  C_18
REMARK    5  A    between atoms: N_24  and  C_25
REMARK                            x       y       z     vdW  Elec       q    Type
REMARK                         _______ _______ _______ _____ _____    ______ ____
ROOT
ATOM      1  C   UNL     1       1.978   3.548  21.384  0.00  0.00    +0.000 C 
ATOM      2  C   UNL     1       2.624   4.323  20.282  0.00  0.00    +0.000 A 
ATOM      3  C   UNL     1       2.364   5.597  19.922  0.00  0.00    +0.000 A 
ATOM      4  C   UNL     1       3.509   5.945  18.982  0.00  0.00    +0.000 A 
ATOM      5  O   UNL     1       3.669   7.047  18.475  0.00  0.00    +0.000 OA
ATOM      6  N   UNL     1       4.255   4.775  18.796  0.00  0.00    +0.000 N 
ATOM      7  N   UNL     1       3.646   3.731  19.514  0.00  0.00    +0.000 N 
ATOM      8  C   UNL     1       4.496   2.655  20.024  0.00  0.00    +0.000 C 
ENDROOT
BRANCH   6   9
ATOM      9  C   UNL     1       5.139   4.561  17.716  0.00  0.00    +0.000 A 
ATOM     10  C   UNL     1       4.626   4.247  16.451  0.00  0.00    +0.000 A 
ATOM     11  C   UNL     1       5.477   4.124  15.349  0.00  0.00    +0.000 A 
ATOM     12  C   UNL     1       6.852   4.279  15.507  0.00  0.00    +0.000 A 
ATOM     13  C   UNL     1       7.380   4.546  16.768  0.00  0.00    +0.000 A 
ATOM     14  C   UNL     1       6.527   4.689  17.866  0.00  0.00    +0.000 A 
ENDBRANCH   6   9
BRANCH   3  15
ATOM     15  N   UNL     1       1.350   6.451  20.329  0.00  0.00    +0.000 NA
ATOM     16  C   UNL     1       1.755   7.682  20.458  0.00  0.00    +0.000 C 
BRANCH  16  17
ATOM     17  C   UNL     1       0.947   8.820  20.847  0.00  0.00    +0.000 A 
ATOM     18  N   UNL     1       0.361   8.830  22.031  0.00  0.00    +0.000 NA
ATOM     19  C   UNL     1      -0.285  10.031  22.133  0.00  0.00    +0.000 A 
ATOM     20  C   UNL     1      -1.038  10.542  23.199  0.00  0.00    +0.000 A 
ATOM     21  C   UNL     1      -1.592  11.820  23.082  0.00  0.00    +0.000 A 
ATOM     22  C   UNL     1      -1.406  12.564  21.916  0.00  0.00    +0.000 A 
ATOM     23  C   UNL     1      -0.664  12.066  20.836  0.00  0.00    +0.000 A 
ATOM     24  C   UNL     1      -0.107  10.787  20.979  0.00  0.00    +0.000 A 
ATOM     25  N   UNL     1       0.676   9.986  20.167  0.00  0.00    +0.000 N 
ATOM     26  H   UNL     1       1.020  10.219  19.248  0.00  0.00    +0.000 HD
ENDBRANCH  16  17
ENDBRANCH   3  15
TORSDOF 3
ENDMDL
MODEL 4
REMARK VINA RESULT:      -8.1      1.024      1.026
REMARK  Name = 
REMARK  5 active torsions:
REMARK  status: ('A' for Active; 'I' for Inactive)
REMARK    1  A    between atoms: C_1  and  C_2
REMARK    2  A    between atoms: C_3  and  N_4
REMARK    3  A    between atoms: C_5  and  C_6
REMARK    4  A    between atoms: N_17  and  C_18
REMARK    5  A    between atoms: N_24  and  C_25
REMARK                            x       y       z     vdW  Elec       q    Type
REMARK                         _______ _______ _______ _____ _____    ______ ____
ROOT
ATOM      1  C   UNL     1       0.789   3.245  19.626  0.00  0.00    +0.000 C 
ATOM      2  C   UNL     1       1.990   4.043  19.233  0.00  0.00    +0.000 A 
ATOM      3  C   UNL     1       2.394   5.217  19.758  0.00  0.00    +0.000 A 
ATOM      4  C   UNL     1       3.802   5.392  19.208  0.00  0.00    +0.000 A 
ATOM      5  O   UNL     1       4.541   6.322  19.498  0.00  0.00    +0.000 OA
ATOM      6  N   UNL     1       4.021   4.342  18.306  0.00  0.00    +0.000 N 
ATOM      7  N   UNL     1       2.856   3.560  18.231  0.00  0.00    +0.000 N 
ATOM      8  C   UNL     1       2.997   2.135  17.927  0.00  0.00    +0.000 C 
ENDROOT
BRANCH   6   9
ATOM      9  C   UNL     1       5.014   4.353  17.303  0.00  0.00    +0.000 A 
ATOM     10  C   UNL     1       4.638   4.353  15.953  0.00  0.00    +0.000 A 
ATOM     11  C   UNL     1       5.601   4.458  14.947  0.00  0.00    +0.000 A 
ATOM     12  C   UNL     1       6.953   4.528  15.277  0.00  0.00    +0.000 A 
ATOM     13  C   UNL     1       7.344   4.483  16.613  0.00  0.00    +0.000 A 
ATOM     14  C   UNL     1       6.379   4.399  17.620  0.00  0.00    +0.000 A 
ENDBRANCH   6   9
BRANCH   3  15
ATOM     15  N   UNL     1       1.749   6.069  20.642  0.00  0.00    +0.000 NA
ATOM     16  C   UNL     1       1.643   7.282  20.180  0.00  0.00    +0.000 C 
BRANCH  16  17
ATOM     17  C   UNL     1       1.009   8.405  20.840  0.00  0.00    +0.000 A 
ATOM     18  N   UNL     1       1.103   9.612  20.311  0.00  0.00    +0.000 NA
ATOM     19  C   UNL     1       0.380  10.445  21.118  0.00  0.00    +0.000 A 
ATOM     20  C   UNL     1       0.147  11.821  20.986  0.00  0.00    +0.000 A 
ATOM     21  C   UNL     1      -0.654  12.464  21.935  0.00  0.00    +0.000 A 
ATOM     22  C   UNL     1      -1.197  11.746  23.001  0.00  0.00    +0.000 A 
ATOM     23  C   UNL     1      -0.968  10.372  23.155  0.00  0.00    +0.000 A 
ATOM     24  C   UNL     1      -0.173   9.745  22.185  0.00  0.00    +0.000 A 
ATOM     25  N   UNL     1       0.253   8.442  21.991  0.00  0.00    +0.000 N 
ATOM     26  H   UNL     1       0.029   7.646  22.568  0.00  0.00    +0.000 HD
ENDBRANCH  16  17
ENDBRANCH   3  15
TORSDOF 3
ENDMDL
MODEL 5
REMARK VINA RESULT:      -8.0      5.363      7.436
REMARK  Name = 
REMARK  5 active torsions:
REMARK  status: ('A' for Active; 'I' for Inactive)
REMARK    1  A    between atoms: C_1  and  C_2
REMARK    2  A    between atoms: C_3  and  N_4
REMARK    3  A    between atoms: C_5  and  C_6
REMARK    4  A    between atoms: N_17  and  C_18
REMARK    5  A    between atoms: N_24  and  C_25
REMARK                            x       y       z     vdW  Elec       q    Type
REMARK                         _______ _______ _______ _____ _____    ______ ____
ROOT
ATOM      1  C   UNL     1       7.540   5.223  15.057  0.00  0.00    +0.000 C 
ATOM      2  C   UNL     1       6.487   5.387  16.105  0.00  0.00    +0.000 A 
ATOM      3  C   UNL     1       6.172   6.516  16.773  0.00  0.00    +0.000 A 
ATOM      4  C   UNL     1       4.857   6.172  17.457  0.00  0.00    +0.000 A 
ATOM      5  O   UNL     1       4.206   6.963  18.127  0.00  0.00    +0.000 OA
ATOM      6  N   UNL     1       4.609   4.816  17.210  0.00  0.00    +0.000 N 
ATOM      7  N   UNL     1       5.676   4.291  16.461  0.00  0.00    +0.000 N 
ATOM      8  C   UNL     1       5.400   3.180  15.549  0.00  0.00    +0.000 C 
ENDROOT
BRANCH   6   9
ATOM      9  C   UNL     1       3.730   4.018  17.974  0.00  0.00    +0.000 A 
ATOM     10  C   UNL     1       2.384   3.913  17.600  0.00  0.00    +0.000 A 
ATOM     11  C   UNL     1       1.520   3.055  18.286  0.00  0.00    +0.000 A 
ATOM     12  C   UNL     1       1.984   2.320  19.375  0.00  0.00    +0.000 A 
ATOM     13  C   UNL     1       3.309   2.449  19.786  0.00  0.00    +0.000 A 
ATOM     14  C   UNL     1       4.177   3.292  19.087  0.00  0.00    +0.000 A 
ENDBRANCH   6   9
BRANCH   3  15
ATOM     15  N   UNL     1       6.819   7.741  16.810  0.00  0.00    +0.000 NA
ATOM     16  C   UNL     1       7.485   7.921  17.915  0.00  0.00    +0.000 C 
BRANCH  16  17
ATOM     17  C   UNL     1       8.284   9.079  18.262  0.00  0.00    +0.000 A 
ATOM     18  N   UNL     1       8.201  10.172  17.525  0.00  0.00    +0.000 NA
ATOM     19  C   UNL     1       9.020  11.096  18.111  0.00  0.00    +0.000 A 
ATOM     20  C   UNL     1       9.273  12.422  17.731  0.00  0.00    +0.000 A 
ATOM     21  C   UNL     1      10.143  13.193  18.509  0.00  0.00    +0.000 A 
ATOM     22  C   UNL     1      10.757  12.643  19.635  0.00  0.00    +0.000 A 
ATOM     23  C   UNL     1      10.524  11.317  20.025  0.00  0.00    +0.000 A 
ATOM     24  C   UNL     1       9.638  10.565  19.239  0.00  0.00    +0.000 A 
ATOM     25  N   UNL     1       9.159   9.269  19.308  0.00  0.00    +0.000 N 
ATOM     26  H   UNL     1       9.381   8.585  20.014  0.00  0.00    +0.000 HD
ENDBRANCH  16  17
ENDBRANCH   3  15
TORSDOF 3
ENDMDL
MODEL 6
REMARK VINA RESULT:      -7.9      4.962      7.603
REMARK  Name = 
REMARK  5 active torsions:
REMARK  status: ('A' for Active; 'I' for Inactive)
REMARK    1  A    between atoms: C_1  and  C_2
REMARK    2  A    between atoms: C_3  and  N_4
REMARK    3  A    between atoms: C_5  and  C_6
REMARK    4  A    between atoms: N_17  and  C_18
REMARK    5  A    between atoms: N_24  and  C_25
REMARK                            x       y       z     vdW  Elec       q    Type
REMARK                         _______ _______ _______ _____ _____    ______ ____
ROOT
ATOM      1  C   UNL     1       7.585   5.016  15.951  0.00  0.00    +0.000 C 
ATOM      2  C   UNL     1       6.392   5.468  16.728  0.00  0.00    +0.000 A 
ATOM      3  C   UNL     1       6.076   6.734  17.071  0.00  0.00    +0.000 A 
ATOM      4  C   UNL     1       4.639   6.626  17.559  0.00  0.00    +0.000 A 
ATOM      5  O   UNL     1       3.962   7.581  17.914  0.00  0.00    +0.000 OA
ATOM      6  N   UNL     1       4.310   5.264  17.564  0.00  0.00    +0.000 N 
ATOM      7  N   UNL     1       5.434   4.526  17.153  0.00  0.00    +0.000 N 
ATOM      8  C   UNL     1       5.212   3.255  16.462  0.00  0.00    +0.000 C 
ENDROOT
BRANCH   6   9
ATOM      9  C   UNL     1       3.244   4.707  18.305  0.00  0.00    +0.000 A 
ATOM     10  C   UNL     1       3.276   4.749  19.704  0.00  0.00    +0.000 A 
ATOM     11  C   UNL     1       2.191   4.290  20.454  0.00  0.00    +0.000 A 
ATOM     12  C   UNL     1       1.077   3.751  19.814  0.00  0.00    +0.000 A 
ATOM     13  C   UNL     1       1.051   3.662  18.424  0.00  0.00    +0.000 A 
ATOM     14  C   UNL     1       2.128   4.140  17.674  0.00  0.00    +0.000 A 
ENDBRANCH   6   9
BRANCH   3  15
ATOM     15  N   UNL     1       6.820   7.899  16.967  0.00  0.00    +0.000 NA
ATOM     16  C   UNL     1       7.449   8.191  18.069  0.00  0.00    +0.000 C 
BRANCH  16  17
ATOM     17  C   UNL     1       8.324   9.325  18.288  0.00  0.00    +0.000 A 
ATOM     18  N   UNL     1       8.161  10.423  17.571  0.00  0.00    +0.000 NA
ATOM     19  C   UNL     1       9.087  11.321  18.024  0.00  0.00    +0.000 A 
ATOM     20  C   UNL     1       9.316  12.640  17.608  0.00  0.00    +0.000 A 
ATOM     21  C   UNL     1      10.316  13.384  18.242  0.00  0.00    +0.000 A 
ATOM     22  C   UNL     1      11.079  12.813  19.262  0.00  0.00    +0.000 A 
ATOM     23  C   UNL     1      10.871  11.493  19.685  0.00  0.00    +0.000 A 
ATOM     24  C   UNL     1       9.854  10.769  19.045  0.00  0.00    +0.000 A 
ATOM     25  N   UNL     1       9.354   9.487  19.188  0.00  0.00    +0.000 N 
ATOM     26  H   UNL     1       9.662   8.795  19.853  0.00  0.00    +0.000 HD
ENDBRANCH  16  17
ENDBRANCH   3  15
TORSDOF 3
ENDMDL
MODEL 7
REMARK VINA RESULT:      -7.8      0.897      1.019
REMARK  Name = 
REMARK  5 active torsions:
REMARK  status: ('A' for Active; 'I' for Inactive)
REMARK    1  A    between atoms: C_1  and  C_2
REMARK    2  A    between atoms: C_3  and  N_4
REMARK    3  A    between atoms: C_5  and  C_6
REMARK    4  A    between atoms: N_17  and  C_18
REMARK    5  A    between atoms: N_24  and  C_25
REMARK                            x       y       z     vdW  Elec       q    Type
REMARK                         _______ _______ _______ _____ _____    ______ ____
ROOT
ATOM      1  C   UNL     1       2.288   4.428  20.709  0.00  0.00    +0.000 C 
ATOM      2  C   UNL     1       2.887   5.068  19.499  0.00  0.00    +0.000 A 
ATOM      3  C   UNL     1       2.587   6.279  18.986  0.00  0.00    +0.000 A 
ATOM      4  C   UNL     1       3.699   6.527  17.977  0.00  0.00    +0.000 A 
ATOM      5  O   UNL     1       3.819   7.558  17.329  0.00  0.00    +0.000 OA
ATOM      6  N   UNL     1       4.469   5.359  17.923  0.00  0.00    +0.000 N 
ATOM      7  N   UNL     1       3.904   4.404  18.786  0.00  0.00    +0.000 N 
ATOM      8  C   UNL     1       4.793   3.421  19.405  0.00  0.00    +0.000 C 
ENDROOT
BRANCH   6   9
ATOM      9  C   UNL     1       5.331   5.026  16.854  0.00  0.00    +0.000 A 
ATOM     10  C   UNL     1       4.830   4.324  15.751  0.00  0.00    +0.000 A 
ATOM     11  C   UNL     1       5.642   4.067  14.643  0.00  0.00    +0.000 A 
ATOM     12  C   UNL     1       6.973   4.479  14.641  0.00  0.00    +0.000 A 
ATOM     13  C   UNL     1       7.497   5.138  15.751  0.00  0.00    +0.000 A 
ATOM     14  C   UNL     1       6.679   5.413  16.850  0.00  0.00    +0.000 A 
ENDBRANCH   6   9
BRANCH   3  15
ATOM     15  N   UNL     1       1.562   7.157  19.308  0.00  0.00    +0.000 NA
ATOM     16  C   UNL     1       1.838   7.885  20.352  0.00  0.00    +0.000 C 
BRANCH  16  17
ATOM     17  C   UNL     1       0.996   8.908  20.937  0.00  0.00    +0.000 A 
ATOM     18  N   UNL     1       0.649   9.959  20.214  0.00  0.00    +0.000 NA
ATOM     19  C   UNL     1      -0.171  10.717  21.004  0.00  0.00    +0.000 A 
ATOM     20  C   UNL     1      -0.822  11.922  20.703  0.00  0.00    +0.000 A 
ATOM     21  C   UNL     1      -1.637  12.509  21.674  0.00  0.00    +0.000 A 
ATOM     22  C   UNL     1      -1.786  11.910  22.926  0.00  0.00    +0.000 A 
ATOM     23  C   UNL     1      -1.136  10.710  23.248  0.00  0.00    +0.000 A 
ATOM     24  C   UNL     1      -0.333  10.131  22.255  0.00  0.00    +0.000 A 
ATOM     25  N   UNL     1       0.432   8.980  22.191  0.00  0.00    +0.000 N 
ATOM     26  H   UNL     1       0.541   8.291  22.920  0.00  0.00    +0.000 HD
ENDBRANCH  16  17
ENDBRANCH   3  15
TORSDOF 3
ENDMDL
MODEL 8
REMARK VINA RESULT:      -7.7      2.352      9.606
REMARK  Name = 
REMARK  5 active torsions:
REMARK  status: ('A' for Active; 'I' for Inactive)
REMARK    1  A    between atoms: C_1  and  C_2
REMARK    2  A    between atoms: C_3  and  N_4
REMARK    3  A    between atoms: C_5  and  C_6
REMARK    4  A    between atoms: N_17  and  C_18
REMARK    5  A    between atoms: N_24  and  C_25
REMARK                            x       y       z     vdW  Elec       q    Type
REMARK                         _______ _______ _______ _____ _____    ______ ____
ROOT
ATOM      1  C   UNL     1      -0.128  10.015  18.856  0.00  0.00    +0.000 C 
ATOM      2  C   UNL     1      -0.421  10.280  20.297  0.00  0.00    +0.000 A 
ATOM      3  C   UNL     1      -0.099   9.500  21.350  0.00  0.00    +0.000 A 
ATOM      4  C   UNL     1      -0.355  10.397  22.552  0.00  0.00    +0.000 A 
ATOM      5  O   UNL     1      -0.130  10.072  23.710  0.00  0.00    +0.000 OA
ATOM      6  N   UNL     1      -0.926  11.580  22.066  0.00  0.00    +0.000 N 
ATOM      7  N   UNL     1      -1.074  11.471  20.672  0.00  0.00    +0.000 N 
ATOM      8  C   UNL     1      -1.009  12.695  19.872  0.00  0.00    +0.000 C 
ENDROOT
BRANCH   6   9
ATOM      9  C   UNL     1      -1.665  12.488  22.856  0.00  0.00    +0.000 A 
ATOM     10  C   UNL     1      -2.991  12.190  23.198  0.00  0.00    +0.000 A 
ATOM     11  C   UNL     1      -3.709  13.028  24.055  0.00  0.00    +0.000 A 
ATOM     12  C   UNL     1      -3.121  14.190  24.551  0.00  0.00    +0.000 A 
ATOM     13  C   UNL     1      -1.819  14.521  24.183  0.00  0.00    +0.000 A 
ATOM     14  C   UNL     1      -1.095  13.672  23.341  0.00  0.00    +0.000 A 
ENDBRANCH   6   9
BRANCH   3  15
ATOM     15  N   UNL     1       0.407   8.209  21.384  0.00  0.00    +0.000 NA
ATOM     16  C   UNL     1       1.363   8.025  20.518  0.00  0.00    +0.000 C 
BRANCH  16  17
ATOM     17  C   UNL     1       2.115   6.804  20.311  0.00  0.00    +0.000 A 
ATOM     18  N   UNL     1       1.653   5.664  20.794  0.00  0.00    +0.000 NA
ATOM     19  C   UNL     1       2.537   4.695  20.409  0.00  0.00    +0.000 A 
ATOM     20  C   UNL     1       2.496   3.314  20.648  0.00  0.00    +0.000 A 
ATOM     21  C   UNL     1       3.514   2.508  20.130  0.00  0.00    +0.000 A 
ATOM     22  C   UNL     1       4.558   3.076  19.399  0.00  0.00    +0.000 A 
ATOM     23  C   UNL     1       4.622   4.455  19.158  0.00  0.00    +0.000 A 
ATOM     24  C   UNL     1       3.584   5.243  19.676  0.00  0.00    +0.000 A 
ATOM     25  N   UNL     1       3.296   6.596  19.636  0.00  0.00    +0.000 N 
ATOM     26  H   UNL     1       3.835   7.310  19.170  0.00  0.00    +0.000 HD
ENDBRANCH  16  17
ENDBRANCH   3  15
TORSDOF 3
ENDMDL
MODEL 9
REMARK VINA RESULT:      -7.6      5.180      7.657
REMARK  Name = 
REMARK  5 active torsions:
REMARK  status: ('A' for Active; 'I' for Inactive)
REMARK    1  A    between atoms: C_1  and  C_2
REMARK    2  A    between atoms: C_3  and  N_4
REMARK    3  A    between atoms: C_5  and  C_6
REMARK    4  A    between atoms: N_17  and  C_18
REMARK    5  A    between atoms: N_24  and  C_25
REMARK                            x       y       z     vdW  Elec       q    Type
REMARK                         _______ _______ _______ _____ _____    ______ ____
ROOT
ATOM      1  C   UNL     1       7.562   5.469  15.421  0.00  0.00    +0.000 C 
ATOM      2  C   UNL     1       6.399   5.608  16.350  0.00  0.00    +0.000 A 
ATOM      3  C   UNL     1       5.946   6.743  16.921  0.00  0.00    +0.000 A 
ATOM      4  C   UNL     1       4.594   6.342  17.492  0.00  0.00    +0.000 A 
ATOM      5  O   UNL     1       3.828   7.116  18.050  0.00  0.00    +0.000 OA
ATOM      6  N   UNL     1       4.460   4.962  17.295  0.00  0.00    +0.000 N 
ATOM      7  N   UNL     1       5.629   4.477  16.684  0.00  0.00    +0.000 N 
ATOM      8  C   UNL     1       5.519   3.308  15.810  0.00  0.00    +0.000 C 
ENDROOT
BRANCH   6   9
ATOM      9  C   UNL     1       3.561   4.141  18.011  0.00  0.00    +0.000 A 
ATOM     10  C   UNL     1       3.986   3.509  19.187  0.00  0.00    +0.000 A 
ATOM     11  C   UNL     1       3.087   2.770  19.961  0.00  0.00    +0.000 A 
ATOM     12  C   UNL     1       1.764   2.626  19.549  0.00  0.00    +0.000 A 
ATOM     13  C   UNL     1       1.340   3.211  18.359  0.00  0.00    +0.000 A 
ATOM     14  C   UNL     1       2.234   3.967  17.596  0.00  0.00    +0.000 A 
ENDBRANCH   6   9
BRANCH   3  15
ATOM     15  N   UNL     1       6.506   8.011  16.956  0.00  0.00    +0.000 NA
ATOM     16  C   UNL     1       7.439   8.121  17.858  0.00  0.00    +0.000 C 
BRANCH  16  17
ATOM     17  C   UNL     1       8.232   9.300  18.139  0.00  0.00    +0.000 A 
ATOM     18  N   UNL     1       8.956   9.352  19.243  0.00  0.00    +0.000 NA
ATOM     19  C   UNL     1       9.621  10.546  19.214  0.00  0.00    +0.000 A 
ATOM     20  C   UNL     1      10.531  11.075  20.140  0.00  0.00    +0.000 A 
ATOM     21  C   UNL     1      11.107  12.322  19.884  0.00  0.00    +0.000 A 
ATOM     22  C   UNL     1      10.769  13.031  18.730  0.00  0.00    +0.000 A 
ATOM     23  C   UNL     1       9.855  12.523  17.797  0.00  0.00    +0.000 A 
ATOM     24  C   UNL     1       9.298  11.265  18.067  0.00  0.00    +0.000 A 
ATOM     25  N   UNL     1       8.399  10.451  17.401  0.00  0.00    +0.000 N 
ATOM     26  H   UNL     1       7.960  10.643  16.513  0.00  0.00    +0.000 HD
ENDBRANCH  16  17
ENDBRANCH   3  15
TORSDOF 3
ENDMDL
