MODEL 1
REMARK VINA RESULT:      -7.2      0.000      0.000
REMARK  Name = 
REMARK  3 active torsions:
REMARK  status: ('A' for Active; 'I' for Inactive)
REMARK    1  A    between atoms: C_2  and  C_3
REMARK    2  A    between atoms: C_2  and  C_12
REMARK    3  A    between atoms: C_4  and  C_5
REMARK                            x       y       z     vdW  Elec       q    Type
REMARK                         _______ _______ _______ _____ _____    ______ ____
ROOT
ATOM      1  C   UNL     1       3.481   6.066  17.985  0.00  0.00    +0.000 C 
ATOM      2  C   UNL     1       4.390   5.083  17.931  0.00  0.00    +0.000 C 
ENDROOT
BRANCH   2   3
ATOM      3  C   UNL     1       5.307   4.968  16.791  0.00  0.00    +0.000 A 
ATOM      4  C   UNL     1       4.781   4.468  15.592  0.00  0.00    +0.000 A 
ATOM      5  C   UNL     1       5.589   4.318  14.465  0.00  0.00    +0.000 A 
ATOM      6  C   UNL     1       6.935   4.671  14.520  0.00  0.00    +0.000 A 
ATOM      7  C   UNL     1       7.476   5.163  15.709  0.00  0.00    +0.000 A 
ATOM      8  C   UNL     1       6.669   5.308  16.843  0.00  0.00    +0.000 A 
ATOM      9 BR   UNL     1       7.486   5.966  18.428  0.00  0.00    +0.000 Br
ENDBRANCH   2   3
BRANCH   1  11
ATOM     10  O   UNL     1       2.268   7.306  19.613  0.00  0.00    +0.000 OA
ATOM     11  C   UNL     1       2.609   6.212  19.182  0.00  0.00    +0.000 C 
BRANCH  11  12
ATOM     12  C   UNL     1       2.117   4.958  19.806  0.00  0.00    +0.000 A 
ATOM     13  C   UNL     1       2.507   4.652  21.114  0.00  0.00    +0.000 A 
ATOM     14  C   UNL     1       2.059   3.475  21.719  0.00  0.00    +0.000 A 
ATOM     15  C   UNL     1       1.234   2.598  21.013  0.00  0.00    +0.000 A 
ATOM     16  C   UNL     1       0.857   2.892  19.703  0.00  0.00    +0.000 A 
ATOM     17  C   UNL     1       1.299   4.068  19.097  0.00  0.00    +0.000 A 
ENDBRANCH  11  12
ENDBRANCH   1  11
TORSDOF 3
ENDMDL
MODEL 2
REMARK VINA RESULT:      -7.2      2.603      6.099
REMARK  Name = 
REMARK  3 active torsions:
REMARK  status: ('A' for Active; 'I' for Inactive)
REMARK    1  A    between atoms: C_2  and  C_3
REMARK    2  A    between atoms: C_2  and  C_12
REMARK    3  A    between atoms: C_4  and  C_5
REMARK                            x       y       z     vdW  Elec       q    Type
REMARK                         _______ _______ _______ _____ _____    ______ ____
ROOT
ATOM      1  C   UNL     1       4.810   3.890  16.987  0.00  0.00    +0.000 C 
ATOM      2  C   UNL     1       3.859   4.653  17.544  0.00  0.00    +0.000 C 
ENDROOT
BRANCH   2   3
ATOM      3  C   UNL     1       2.746   4.048  18.285  0.00  0.00    +0.000 A 
ATOM      4  C   UNL     1       2.368   2.747  17.925  0.00  0.00    +0.000 A 
ATOM      5  C   UNL     1       1.313   2.104  18.574  0.00  0.00    +0.000 A 
ATOM      6  C   UNL     1       0.624   2.754  19.595  0.00  0.00    +0.000 A 
ATOM      7  C   UNL     1       0.984   4.052  19.961  0.00  0.00    +0.000 A 
ATOM      8  C   UNL     1       2.037   4.701  19.307  0.00  0.00    +0.000 A 
ATOM      9 BR   UNL     1       2.451   6.475  19.848  0.00  0.00    +0.000 Br
ENDBRANCH   2   3
BRANCH   1  11
ATOM     10  O   UNL     1       6.243   4.293  15.132  0.00  0.00    +0.000 OA
ATOM     11  C   UNL     1       5.969   4.524  16.304  0.00  0.00    +0.000 C 
BRANCH  11  12
ATOM     12  C   UNL     1       6.755   5.506  17.093  0.00  0.00    +0.000 A 
ATOM     13  C   UNL     1       7.358   5.090  18.285  0.00  0.00    +0.000 A 
ATOM     14  C   UNL     1       8.098   5.998  19.046  0.00  0.00    +0.000 A 
ATOM     15  C   UNL     1       8.225   7.322  18.624  0.00  0.00    +0.000 A 
ATOM     16  C   UNL     1       7.612   7.743  17.444  0.00  0.00    +0.000 A 
ATOM     17  C   UNL     1       6.875   6.838  16.679  0.00  0.00    +0.000 A 
ENDBRANCH  11  12
ENDBRANCH   1  11
TORSDOF 3
ENDMDL
MODEL 3
REMARK VINA RESULT:      -7.2      2.427      6.764
REMARK  Name = 
REMARK  3 active torsions:
REMARK  status: ('A' for Active; 'I' for Inactive)
REMARK    1  A    between atoms: C_2  and  C_3
REMARK    2  A    between atoms: C_2  and  C_12
REMARK    3  A    between atoms: C_4  and  C_5
REMARK                            x       y       z     vdW  Elec       q    Type
REMARK                         _______ _______ _______ _____ _____    ______ ____
ROOT
ATOM      1  C   UNL     1       5.399   4.212  16.647  0.00  0.00    +0.000 C 
ATOM      2  C   UNL     1       4.329   4.916  17.043  0.00  0.00    +0.000 C 
ENDROOT
BRANCH   2   3
ATOM      3  C   UNL     1       3.239   4.275  17.787  0.00  0.00    +0.000 A 
ATOM      4  C   UNL     1       3.018   2.911  17.553  0.00  0.00    +0.000 A 
ATOM      5  C   UNL     1       1.995   2.229  18.212  0.00  0.00    +0.000 A 
ATOM      6  C   UNL     1       1.181   2.903  19.120  0.00  0.00    +0.000 A 
ATOM      7  C   UNL     1       1.383   4.263  19.359  0.00  0.00    +0.000 A 
ATOM      8  C   UNL     1       2.404   4.950  18.693  0.00  0.00    +0.000 A 
ATOM      9 BR   UNL     1       2.602   6.805  19.058  0.00  0.00    +0.000 Br
ENDBRANCH   2   3
BRANCH   1  11
ATOM     10  O   UNL     1       7.324   5.607  16.559  0.00  0.00    +0.000 OA
ATOM     11  C   UNL     1       6.528   4.894  15.959  0.00  0.00    +0.000 C 
BRANCH  11  12
ATOM     12  C   UNL     1       6.686   4.625  14.508  0.00  0.00    +0.000 A 
ATOM     13  C   UNL     1       7.642   5.347  13.785  0.00  0.00    +0.000 A 
ATOM     14  C   UNL     1       7.805   5.113  12.417  0.00  0.00    +0.000 A 
ATOM     15  C   UNL     1       7.005   4.170  11.770  0.00  0.00    +0.000 A 
ATOM     16  C   UNL     1       6.040   3.461  12.485  0.00  0.00    +0.000 A 
ATOM     17  C   UNL     1       5.877   3.688  13.852  0.00  0.00    +0.000 A 
ENDBRANCH  11  12
ENDBRANCH   1  11
TORSDOF 3
ENDMDL
MODEL 4
REMARK VINA RESULT:      -7.2      0.110      1.179
REMARK  Name = 
REMARK  3 active torsions:
REMARK  status: ('A' for Active; 'I' for Inactive)
REMARK    1  A    between atoms: C_2  and  C_3
REMARK    2  A    between atoms: C_2  and  C_12
REMARK    3  A    between atoms: C_4  and  C_5
REMARK                            x       y       z     vdW  Elec       q    Type
REMARK                         _______ _______ _______ _____ _____    ______ ____
ROOT
ATOM      1  C   UNL     1       3.536   6.127  17.911  0.00  0.00    +0.000 C 
ATOM      2  C   UNL     1       4.352   5.069  17.810  0.00  0.00    +0.000 C 
ENDROOT
BRANCH   2   3
ATOM      3  C   UNL     1       5.293   4.948  16.691  0.00  0.00    +0.000 A 
ATOM      4  C   UNL     1       4.798   4.427  15.488  0.00  0.00    +0.000 A 
ATOM      5  C   UNL     1       5.630   4.271  14.380  0.00  0.00    +0.000 A 
ATOM      6  C   UNL     1       6.971   4.639  14.458  0.00  0.00    +0.000 A 
ATOM      7  C   UNL     1       7.482   5.154  15.651  0.00  0.00    +0.000 A 
ATOM      8  C   UNL     1       6.650   5.305  16.766  0.00  0.00    +0.000 A 
ATOM      9 BR   UNL     1       7.427   5.992  18.359  0.00  0.00    +0.000 Br
ENDBRANCH   2   3
BRANCH   1  11
ATOM     10  O   UNL     1       2.263   7.361  19.497  0.00  0.00    +0.000 OA
ATOM     11  C   UNL     1       2.640   6.268  19.090  0.00  0.00    +0.000 C 
BRANCH  11  12
ATOM     12  C   UNL     1       2.170   5.012  19.727  0.00  0.00    +0.000 A 
ATOM     13  C   UNL     1       1.353   4.145  18.994  0.00  0.00    +0.000 A 
ATOM     14  C   UNL     1       0.894   2.960  19.575  0.00  0.00    +0.000 A 
ATOM     15  C   UNL     1       1.241   2.649  20.890  0.00  0.00    +0.000 A 
ATOM     16  C   UNL     1       2.041   3.519  21.629  0.00  0.00    +0.000 A 
ATOM     17  C   UNL     1       2.505   4.702  21.051  0.00  0.00    +0.000 A 
ENDBRANCH  11  12
ENDBRANCH   1  11
TORSDOF 3
ENDMDL
MODEL 5
REMARK VINA RESULT:      -7.1      2.430      6.855
REMARK  Name = 
REMARK  3 active torsions:
REMARK  status: ('A' for Active; 'I' for Inactive)
REMARK    1  A    between atoms: C_2  and  C_3
REMARK    2  A    between atoms: C_2  and  C_12
REMARK    3  A    between atoms: C_4  and  C_5
REMARK                            x       y       z     vdW  Elec       q    Type
REMARK                         _______ _______ _______ _____ _____    ______ ____
ROOT
ATOM      1  C   UNL     1       5.242   4.117  16.520  0.00  0.00    +0.000 C 
ATOM      2  C   UNL     1       4.441   4.805  17.345  0.00  0.00    +0.000 C 
ENDROOT
BRANCH   2   3
ATOM      3  C   UNL     1       3.279   4.166  17.972  0.00  0.00    +0.000 A 
ATOM      4  C   UNL     1       3.046   2.818  17.668  0.00  0.00    +0.000 A 
ATOM      5  C   UNL     1       1.957   2.139  18.215  0.00  0.00    +0.000 A 
ATOM      6  C   UNL     1       1.087   2.800  19.079  0.00  0.00    +0.000 A 
ATOM      7  C   UNL     1       1.301   4.145  19.387  0.00  0.00    +0.000 A 
ATOM      8  C   UNL     1       2.389   4.829  18.833  0.00  0.00    +0.000 A 
ATOM      9 BR   UNL     1       2.599   6.663  19.284  0.00  0.00    +0.000 Br
ENDBRANCH   2   3
BRANCH   1  11
ATOM     10  O   UNL     1       7.267   5.358  16.649  0.00  0.00    +0.000 OA
ATOM     11  C   UNL     1       6.457   4.760  15.951  0.00  0.00    +0.000 C 
BRANCH  11  12
ATOM     12  C   UNL     1       6.681   4.594  14.493  0.00  0.00    +0.000 A 
ATOM     13  C   UNL     1       5.933   3.639  13.796  0.00  0.00    +0.000 A 
ATOM     14  C   UNL     1       6.130   3.462  12.424  0.00  0.00    +0.000 A 
ATOM     15  C   UNL     1       7.083   4.230  11.753  0.00  0.00    +0.000 A 
ATOM     16  C   UNL     1       7.841   5.171  12.447  0.00  0.00    +0.000 A 
ATOM     17  C   UNL     1       7.644   5.353  13.816  0.00  0.00    +0.000 A 
ENDBRANCH  11  12
ENDBRANCH   1  11
TORSDOF 3
ENDMDL
MODEL 6
REMARK VINA RESULT:      -7.0      2.599      6.217
REMARK  Name = 
REMARK  3 active torsions:
REMARK  status: ('A' for Active; 'I' for Inactive)
REMARK    1  A    between atoms: C_2  and  C_3
REMARK    2  A    between atoms: C_2  and  C_12
REMARK    3  A    between atoms: C_4  and  C_5
REMARK                            x       y       z     vdW  Elec       q    Type
REMARK                         _______ _______ _______ _____ _____    ______ ____
ROOT
ATOM      1  C   UNL     1       4.855   3.876  17.391  0.00  0.00    +0.000 C 
ATOM      2  C   UNL     1       3.683   4.521  17.484  0.00  0.00    +0.000 C 
ENDROOT
BRANCH   2   3
ATOM      3  C   UNL     1       2.588   3.980  18.296  0.00  0.00    +0.000 A 
ATOM      4  C   UNL     1       2.130   2.694  17.981  0.00  0.00    +0.000 A 
ATOM      5  C   UNL     1       1.085   2.111  18.699  0.00  0.00    +0.000 A 
ATOM      6  C   UNL     1       0.487   2.807  19.747  0.00  0.00    +0.000 A 
ATOM      7  C   UNL     1       0.927   4.092  20.069  0.00  0.00    +0.000 A 
ATOM      8  C   UNL     1       1.970   4.680  19.346  0.00  0.00    +0.000 A 
ATOM      9 BR   UNL     1       2.497   6.441  19.832  0.00  0.00    +0.000 Br
ENDBRANCH   2   3
BRANCH   1  11
ATOM     10  O   UNL     1       6.224   4.155  15.467  0.00  0.00    +0.000 OA
ATOM     11  C   UNL     1       5.978   4.476  16.623  0.00  0.00    +0.000 C 
BRANCH  11  12
ATOM     12  C   UNL     1       6.763   5.536  17.305  0.00  0.00    +0.000 A 
ATOM     13  C   UNL     1       6.804   6.817  16.743  0.00  0.00    +0.000 A 
ATOM     14  C   UNL     1       7.541   7.828  17.365  0.00  0.00    +0.000 A 
ATOM     15  C   UNL     1       8.246   7.556  18.538  0.00  0.00    +0.000 A 
ATOM     16  C   UNL     1       8.221   6.277  19.091  0.00  0.00    +0.000 A 
ATOM     17  C   UNL     1       7.483   5.265  18.475  0.00  0.00    +0.000 A 
ENDBRANCH  11  12
ENDBRANCH   1  11
TORSDOF 3
ENDMDL
MODEL 7
REMARK VINA RESULT:      -6.8      2.511      6.865
REMARK  Name = 
REMARK  3 active torsions:
REMARK  status: ('A' for Active; 'I' for Inactive)
REMARK    1  A    between atoms: C_2  and  C_3
REMARK    2  A    between atoms: C_2  and  C_12
REMARK    3  A    between atoms: C_4  and  C_5
REMARK                            x       y       z     vdW  Elec       q    Type
REMARK                         _______ _______ _______ _____ _____    ______ ____
ROOT
ATOM      1  C   UNL     1       5.113   4.400  16.543  0.00  0.00    +0.000 C 
ATOM      2  C   UNL     1       4.930   3.893  17.770  0.00  0.00    +0.000 C 
ENDROOT
BRANCH   2   3
ATOM      3  C   UNL     1       3.584   3.583  18.264  0.00  0.00    +0.000 A 
ATOM      4  C   UNL     1       2.504   4.171  17.594  0.00  0.00    +0.000 A 
ATOM      5  C   UNL     1       1.192   3.936  18.007  0.00  0.00    +0.000 A 
ATOM      6  C   UNL     1       0.943   3.103  19.095  0.00  0.00    +0.000 A 
ATOM      7  C   UNL     1       2.009   2.514  19.778  0.00  0.00    +0.000 A 
ATOM      8  C   UNL     1       3.325   2.755  19.369  0.00  0.00    +0.000 A 
ATOM      9 BR   UNL     1       4.721   1.934  20.364  0.00  0.00    +0.000 Br
ENDBRANCH   2   3
BRANCH   1  11
ATOM     10  O   UNL     1       7.432   4.873  16.778  0.00  0.00    +0.000 OA
ATOM     11  C   UNL     1       6.489   4.639  16.032  0.00  0.00    +0.000 C 
BRANCH  11  12
ATOM     12  C   UNL     1       6.687   4.524  14.565  0.00  0.00    +0.000 A 
ATOM     13  C   UNL     1       5.922   3.596  13.849  0.00  0.00    +0.000 A 
ATOM     14  C   UNL     1       6.095   3.466  12.469  0.00  0.00    +0.000 A 
ATOM     15  C   UNL     1       7.039   4.253  11.807  0.00  0.00    +0.000 A 
ATOM     16  C   UNL     1       7.814   5.167  12.520  0.00  0.00    +0.000 A 
ATOM     17  C   UNL     1       7.642   5.302  13.899  0.00  0.00    +0.000 A 
ENDBRANCH  11  12
ENDBRANCH   1  11
TORSDOF 3
ENDMDL
MODEL 8
REMARK VINA RESULT:      -6.8      2.384      6.350
REMARK  Name = 
REMARK  3 active torsions:
REMARK  status: ('A' for Active; 'I' for Inactive)
REMARK    1  A    between atoms: C_2  and  C_3
REMARK    2  A    between atoms: C_2  and  C_12
REMARK    3  A    between atoms: C_4  and  C_5
REMARK                            x       y       z     vdW  Elec       q    Type
REMARK                         _______ _______ _______ _____ _____    ______ ____
ROOT
ATOM      1  C   UNL     1       5.334   4.810  19.465  0.00  0.00    +0.000 C 
ATOM      2  C   UNL     1       4.560   3.772  19.119  0.00  0.00    +0.000 C 
ENDROOT
BRANCH   2   3
ATOM      3  C   UNL     1       3.325   3.476  19.853  0.00  0.00    +0.000 A 
ATOM      4  C   UNL     1       3.442   2.720  21.027  0.00  0.00    +0.000 A 
ATOM      5  C   UNL     1       2.314   2.386  21.778  0.00  0.00    +0.000 A 
ATOM      6  C   UNL     1       1.053   2.811  21.367  0.00  0.00    +0.000 A 
ATOM      7  C   UNL     1       0.919   3.559  20.196  0.00  0.00    +0.000 A 
ATOM      8  C   UNL     1       2.048   3.888  19.438  0.00  0.00    +0.000 A 
ATOM      9 BR   UNL     1       1.779   4.891  17.846  0.00  0.00    +0.000 Br
ENDBRANCH   2   3
BRANCH   1  11
ATOM     10  O   UNL     1       7.641   5.315  19.179  0.00  0.00    +0.000 OA
ATOM     11  C   UNL     1       6.544   5.139  18.664  0.00  0.00    +0.000 C 
BRANCH  11  12
ATOM     12  C   UNL     1       6.376   5.188  17.189  0.00  0.00    +0.000 A 
ATOM     13  C   UNL     1       7.190   4.382  16.387  0.00  0.00    +0.000 A 
ATOM     14  C   UNL     1       7.053   4.416  14.997  0.00  0.00    +0.000 A 
ATOM     15  C   UNL     1       6.113   5.264  14.410  0.00  0.00    +0.000 A 
ATOM     16  C   UNL     1       5.311   6.081  15.206  0.00  0.00    +0.000 A 
ATOM     17  C   UNL     1       5.442   6.047  16.595  0.00  0.00    +0.000 A 
ENDBRANCH  11  12
ENDBRANCH   1  11
TORSDOF 3
ENDMDL
MODEL 9
REMARK VINA RESULT:      -6.7      2.342      6.615
REMARK  Name = 
REMARK  3 active torsions:
REMARK  status: ('A' for Active; 'I' for Inactive)
REMARK    1  A    between atoms: C_2  and  C_3
REMARK    2  A    between atoms: C_2  and  C_12
REMARK    3  A    between atoms: C_4  and  C_5
REMARK                            x       y       z     vdW  Elec       q    Type
REMARK                         _______ _______ _______ _____ _____    ______ ____
ROOT
ATOM      1  C   UNL     1       5.125   5.587  16.793  0.00  0.00    +0.000 C 
ATOM      2  C   UNL     1       5.059   4.871  17.924  0.00  0.00    +0.000 C 
ENDROOT
BRANCH   2   3
ATOM      3  C   UNL     1       3.804   4.766  18.676  0.00  0.00    +0.000 A 
ATOM      4  C   UNL     1       3.371   5.906  19.366  0.00  0.00    +0.000 A 
ATOM      5  C   UNL     1       2.193   5.886  20.113  0.00  0.00    +0.000 A 
ATOM      6  C   UNL     1       1.428   4.723  20.176  0.00  0.00    +0.000 A 
ATOM      7  C   UNL     1       1.849   3.577  19.500  0.00  0.00    +0.000 A 
ATOM      8  C   UNL     1       3.034   3.593  18.757  0.00  0.00    +0.000 A 
ATOM      9 BR   UNL     1       3.549   1.985  17.883  0.00  0.00    +0.000 Br
ENDBRANCH   2   3
BRANCH   1  11
ATOM     10  O   UNL     1       7.406   6.156  16.427  0.00  0.00    +0.000 OA
ATOM     11  C   UNL     1       6.386   5.623  16.005  0.00  0.00    +0.000 C 
BRANCH  11  12
ATOM     12  C   UNL     1       6.375   4.926  14.694  0.00  0.00    +0.000 A 
ATOM     13  C   UNL     1       7.444   5.122  13.813  0.00  0.00    +0.000 A 
ATOM     14  C   UNL     1       7.452   4.480  12.572  0.00  0.00    +0.000 A 
ATOM     15  C   UNL     1       6.387   3.656  12.206  0.00  0.00    +0.000 A 
ATOM     16  C   UNL     1       5.312   3.472  13.075  0.00  0.00    +0.000 A 
ATOM     17  C   UNL     1       5.302   4.108  14.317  0.00  0.00    +0.000 A 
ENDBRANCH  11  12
ENDBRANCH   1  11
TORSDOF 3
ENDMDL
