MODEL 1
REMARK VINA RESULT:      -8.3      0.000      0.000
REMARK  Name = 
REMARK  8 active torsions:
REMARK  status: ('A' for Active; 'I' for Inactive)
REMARK    1  A    between atoms: C_1  and  C_2
REMARK    2  A    between atoms: C_2  and  C_3
REMARK    3  A    between atoms: C_7  and  O_8
REMARK    4  A    between atoms: O_8  and  C_9
REMARK    5  A    between atoms: C_9  and  C_10
REMARK    6  A    between atoms: N_12  and  C_13
REMARK    7  A    between atoms: C_16  and  S_17
REMARK    8  A    between atoms: S_17  and  N_20
REMARK                            x       y       z     vdW  Elec       q    Type
REMARK                         _______ _______ _______ _____ _____    ______ ____
ROOT
ATOM      1  C   UNL     1       2.345   7.221  19.797  0.00  0.00    +0.000 A 
ATOM      2  C   UNL     1       2.268   7.963  18.615  0.00  0.00    +0.000 A 
ATOM      3  C   UNL     1       1.445   9.081  18.510  0.00  0.00    +0.000 A 
ATOM      4  C   UNL     1       0.659   9.460  19.593  0.00  0.00    +0.000 A 
ATOM      5  C   UNL     1       0.753   8.766  20.806  0.00  0.00    +0.000 A 
ATOM      6  C   UNL     1       1.580   7.634  20.900  0.00  0.00    +0.000 A 
ENDROOT
BRANCH   1   9
ATOM      7  C   UNL     1       2.800   4.813  19.405  0.00  0.00    +0.000 C 
ATOM      8  O   UNL     1       1.780   4.555  18.769  0.00  0.00    +0.000 OA
ATOM      9  N   UNL     1       3.157   6.066  19.898  0.00  0.00    +0.000 N 
ATOM     10  H   UNL     1       4.109   6.192  20.225  0.00  0.00    +0.000 HD
BRANCH   7  11
ATOM     11  C   UNL     1       3.802   3.706  19.675  0.00  0.00    +0.000 C 
BRANCH  11  12
ATOM     12  O   UNL     1       4.365   3.329  18.425  0.00  0.00    +0.000 OA
BRANCH  12  17
ATOM     13  C   UNL     1       6.855   5.971  17.633  0.00  0.00    +0.000 A 
ATOM     14  C   UNL     1       6.492   6.217  16.304  0.00  0.00    +0.000 A 
ATOM     15  C   UNL     1       5.453   5.493  15.722  0.00  0.00    +0.000 A 
ATOM     16  C   UNL     1       4.773   4.529  16.468  0.00  0.00    +0.000 A 
ATOM     17  C   UNL     1       5.137   4.261  17.789  0.00  0.00    +0.000 A 
ATOM     18  C   UNL     1       6.190   4.971  18.361  0.00  0.00    +0.000 A 
BRANCH  13  20
ATOM     19  C   UNL     1       7.893   8.216  17.650  0.00  0.00    +0.000 C 
ATOM     20  C   UNL     1       7.853   6.857  18.334  0.00  0.00    +0.000 C 
ENDBRANCH  13  20
ENDBRANCH  12  17
ENDBRANCH  11  12
ENDBRANCH   7  11
ENDBRANCH   1   9
BRANCH   4  21
ATOM     21  S   UNL     1      -0.424  10.860  19.407  0.00  0.00    +0.000 S 
ATOM     22  O   UNL     1      -0.487  11.544  20.686  0.00  0.00    +0.000 OA
ATOM     23  O   UNL     1      -0.017  11.561  18.216  0.00  0.00    +0.000 OA
BRANCH  21  24
ATOM     24  N   UNL     1      -1.933  10.185  19.070  0.00  0.00    +0.000 N 
ATOM     25  C   UNL     1      -2.461  10.391  17.781  0.00  0.00    +0.000 A 
ATOM     26  C   UNL     1      -2.165   9.565  16.707  0.00  0.00    +0.000 A 
ATOM     27  C   UNL     1      -2.825   9.806  15.503  0.00  0.00    +0.000 A 
ATOM     28  C   UNL     1      -3.724  10.866  15.415  0.00  0.00    +0.000 A 
ATOM     29  C   UNL     1      -3.928  11.641  16.545  0.00  0.00    +0.000 A 
ATOM     30  N   UNL     1      -3.319  11.422  17.732  0.00  0.00    +0.000 NA
ATOM     31  H   UNL     1      -2.610  10.477  19.773  0.00  0.00    +0.000 HD
ENDBRANCH  21  24
ENDBRANCH   4  21
TORSDOF 7
ENDMDL
MODEL 2
REMARK VINA RESULT:      -8.3      2.829      4.173
REMARK  Name = 
REMARK  8 active torsions:
REMARK  status: ('A' for Active; 'I' for Inactive)
REMARK    1  A    between atoms: C_1  and  C_2
REMARK    2  A    between atoms: C_2  and  C_3
REMARK    3  A    between atoms: C_7  and  O_8
REMARK    4  A    between atoms: O_8  and  C_9
REMARK    5  A    between atoms: C_9  and  C_10
REMARK    6  A    between atoms: N_12  and  C_13
REMARK    7  A    between atoms: C_16  and  S_17
REMARK    8  A    between atoms: S_17  and  N_20
REMARK                            x       y       z     vdW  Elec       q    Type
REMARK                         _______ _______ _______ _____ _____    ______ ____
ROOT
ATOM      1  C   UNL     1       2.874   6.254  18.528  0.00  0.00    +0.000 A 
ATOM      2  C   UNL     1       2.601   7.578  18.171  0.00  0.00    +0.000 A 
ATOM      3  C   UNL     1       1.976   8.456  19.052  0.00  0.00    +0.000 A 
ATOM      4  C   UNL     1       1.590   8.006  20.311  0.00  0.00    +0.000 A 
ATOM      5  C   UNL     1       1.895   6.701  20.715  0.00  0.00    +0.000 A 
ATOM      6  C   UNL     1       2.518   5.820  19.815  0.00  0.00    +0.000 A 
ENDROOT
BRANCH   1   9
ATOM      7  C   UNL     1       4.840   5.044  17.619  0.00  0.00    +0.000 C 
ATOM      8  O   UNL     1       5.673   5.458  18.423  0.00  0.00    +0.000 OA
ATOM      9  N   UNL     1       3.481   5.350  17.624  0.00  0.00    +0.000 N 
ATOM     10  H   UNL     1       2.868   4.792  17.040  0.00  0.00    +0.000 HD
BRANCH   7  11
ATOM     11  C   UNL     1       5.280   4.089  16.524  0.00  0.00    +0.000 C 
BRANCH  11  12
ATOM     12  O   UNL     1       6.434   4.650  15.910  0.00  0.00    +0.000 OA
BRANCH  12  17
ATOM     13  C   UNL     1       6.011   3.541  12.388  0.00  0.00    +0.000 A 
ATOM     14  C   UNL     1       7.060   4.265  11.809  0.00  0.00    +0.000 A 
ATOM     15  C   UNL     1       7.852   5.096  12.599  0.00  0.00    +0.000 A 
ATOM     16  C   UNL     1       7.600   5.200  13.969  0.00  0.00    +0.000 A 
ATOM     17  C   UNL     1       6.547   4.498  14.556  0.00  0.00    +0.000 A 
ATOM     18  C   UNL     1       5.744   3.685  13.760  0.00  0.00    +0.000 A 
BRANCH  13  20
ATOM     19  C   UNL     1       3.949   3.109  11.093  0.00  0.00    +0.000 C 
ATOM     20  C   UNL     1       5.257   2.509  11.592  0.00  0.00    +0.000 C 
ENDBRANCH  13  20
ENDBRANCH  12  17
ENDBRANCH  11  12
ENDBRANCH   7  11
ENDBRANCH   1   9
BRANCH   4  21
ATOM     21  S   UNL     1       0.742   9.138  21.392  0.00  0.00    +0.000 S 
ATOM     22  O   UNL     1      -0.613   8.647  21.571  0.00  0.00    +0.000 OA
ATOM     23  O   UNL     1       1.599   9.367  22.528  0.00  0.00    +0.000 OA
BRANCH  21  24
ATOM     24  N   UNL     1       0.693  10.588  20.533  0.00  0.00    +0.000 N 
ATOM     25  C   UNL     1      -0.576  11.099  20.197  0.00  0.00    +0.000 A 
ATOM     26  C   UNL     1      -1.311  11.906  21.050  0.00  0.00    +0.000 A 
ATOM     27  C   UNL     1      -2.509  12.436  20.572  0.00  0.00    +0.000 A 
ATOM     28  C   UNL     1      -2.929  12.120  19.282  0.00  0.00    +0.000 A 
ATOM     29  C   UNL     1      -2.126  11.286  18.522  0.00  0.00    +0.000 A 
ATOM     30  N   UNL     1      -0.951  10.772  18.949  0.00  0.00    +0.000 NA
ATOM     31  H   UNL     1       1.271  10.518  19.697  0.00  0.00    +0.000 HD
ENDBRANCH  21  24
ENDBRANCH   4  21
TORSDOF 7
ENDMDL
MODEL 3
REMARK VINA RESULT:      -8.3      1.082      1.647
REMARK  Name = 
REMARK  8 active torsions:
REMARK  status: ('A' for Active; 'I' for Inactive)
REMARK    1  A    between atoms: C_1  and  C_2
REMARK    2  A    between atoms: C_2  and  C_3
REMARK    3  A    between atoms: C_7  and  O_8
REMARK    4  A    between atoms: O_8  and  C_9
REMARK    5  A    between atoms: C_9  and  C_10
REMARK    6  A    between atoms: N_12  and  C_13
REMARK    7  A    between atoms: C_16  and  S_17
REMARK    8  A    between atoms: S_17  and  N_20
REMARK                            x       y       z     vdW  Elec       q    Type
REMARK                         _______ _______ _______ _____ _____    ______ ____
ROOT
ATOM      1  C   UNL     1       2.356   6.913  19.554  0.00  0.00    +0.000 A 
ATOM      2  C   UNL     1       1.690   7.304  20.719  0.00  0.00    +0.000 A 
ATOM      3  C   UNL     1       1.063   8.543  20.818  0.00  0.00    +0.000 A 
ATOM      4  C   UNL     1       1.118   9.428  19.747  0.00  0.00    +0.000 A 
ATOM      5  C   UNL     1       1.734   9.044  18.549  0.00  0.00    +0.000 A 
ATOM      6  C   UNL     1       2.371   7.795  18.461  0.00  0.00    +0.000 A 
ENDROOT
BRANCH   1   9
ATOM      7  C   UNL     1       2.575   4.600  18.680  0.00  0.00    +0.000 C 
ATOM      8  O   UNL     1       1.600   4.614  17.932  0.00  0.00    +0.000 OA
ATOM      9  N   UNL     1       3.020   5.666  19.459  0.00  0.00    +0.000 N 
ATOM     10  H   UNL     1       3.944   5.597  19.873  0.00  0.00    +0.000 HD
BRANCH   7  11
ATOM     11  C   UNL     1       3.417   3.341  18.774  0.00  0.00    +0.000 C 
BRANCH  11  12
ATOM     12  O   UNL     1       3.998   3.122  17.495  0.00  0.00    +0.000 OA
BRANCH  12  17
ATOM     13  C   UNL     1       6.887   5.460  17.519  0.00  0.00    +0.000 A 
ATOM     14  C   UNL     1       6.957   5.727  16.146  0.00  0.00    +0.000 A 
ATOM     15  C   UNL     1       6.060   5.117  15.272  0.00  0.00    +0.000 A 
ATOM     16  C   UNL     1       5.089   4.244  15.768  0.00  0.00    +0.000 A 
ATOM     17  C   UNL     1       5.019   3.954  17.131  0.00  0.00    +0.000 A 
ATOM     18  C   UNL     1       5.931   4.550  18.000  0.00  0.00    +0.000 A 
BRANCH  13  20
ATOM     19  C   UNL     1       7.924   7.656  17.983  0.00  0.00    +0.000 C 
ATOM     20  C   UNL     1       7.727   6.237  18.498  0.00  0.00    +0.000 C 
ENDBRANCH  13  20
ENDBRANCH  12  17
ENDBRANCH  11  12
ENDBRANCH   7  11
ENDBRANCH   1   9
BRANCH   4  21
ATOM     21  S   UNL     1       0.355  11.026  19.927  0.00  0.00    +0.000 S 
ATOM     22  O   UNL     1      -0.794  10.872  20.801  0.00  0.00    +0.000 OA
ATOM     23  O   UNL     1       1.401  11.966  20.246  0.00  0.00    +0.000 OA
BRANCH  21  24
ATOM     24  N   UNL     1      -0.181  11.417  18.377  0.00  0.00    +0.000 N 
ATOM     25  C   UNL     1      -1.519  11.114  18.058  0.00  0.00    +0.000 A 
ATOM     26  C   UNL     1      -2.570  11.973  18.334  0.00  0.00    +0.000 A 
ATOM     27  C   UNL     1      -3.839  11.612  17.882  0.00  0.00    +0.000 A 
ATOM     28  C   UNL     1      -4.006  10.407  17.204  0.00  0.00    +0.000 A 
ATOM     29  C   UNL     1      -2.889   9.614  17.001  0.00  0.00    +0.000 A 
ATOM     30  N   UNL     1      -1.642   9.945  17.409  0.00  0.00    +0.000 NA
ATOM     31  H   UNL     1       0.442  11.012  17.680  0.00  0.00    +0.000 HD
ENDBRANCH  21  24
ENDBRANCH   4  21
TORSDOF 7
ENDMDL
MODEL 4
REMARK VINA RESULT:      -8.2      2.384      3.126
REMARK  Name = 
REMARK  8 active torsions:
REMARK  status: ('A' for Active; 'I' for Inactive)
REMARK    1  A    between atoms: C_1  and  C_2
REMARK    2  A    between atoms: C_2  and  C_3
REMARK    3  A    between atoms: C_7  and  O_8
REMARK    4  A    between atoms: O_8  and  C_9
REMARK    5  A    between atoms: C_9  and  C_10
REMARK    6  A    between atoms: N_12  and  C_13
REMARK    7  A    between atoms: C_16  and  S_17
REMARK    8  A    between atoms: S_17  and  N_20
REMARK                            x       y       z     vdW  Elec       q    Type
REMARK                         _______ _______ _______ _____ _____    ______ ____
ROOT
ATOM      1  C   UNL     1       2.213   7.413  19.753  0.00  0.00    +0.000 A 
ATOM      2  C   UNL     1       2.158   8.152  18.567  0.00  0.00    +0.000 A 
ATOM      3  C   UNL     1       1.337   9.269  18.443  0.00  0.00    +0.000 A 
ATOM      4  C   UNL     1       0.531   9.651  19.510  0.00  0.00    +0.000 A 
ATOM      5  C   UNL     1       0.601   8.961  20.726  0.00  0.00    +0.000 A 
ATOM      6  C   UNL     1       1.427   7.829  20.839  0.00  0.00    +0.000 A 
ENDROOT
BRANCH   1   9
ATOM      7  C   UNL     1       2.636   4.986  19.460  0.00  0.00    +0.000 C 
ATOM      8  O   UNL     1       1.586   4.704  18.886  0.00  0.00    +0.000 OA
ATOM      9  N   UNL     1       3.023   6.258  19.873  0.00  0.00    +0.000 N 
ATOM     10  H   UNL     1       3.990   6.394  20.148  0.00  0.00    +0.000 HD
BRANCH   7  11
ATOM     11  C   UNL     1       3.645   3.886  19.738  0.00  0.00    +0.000 C 
BRANCH  11  12
ATOM     12  O   UNL     1       4.129   3.426  18.482  0.00  0.00    +0.000 OA
BRANCH  12  17
ATOM     13  C   UNL     1       6.867   5.805  17.673  0.00  0.00    +0.000 A 
ATOM     14  C   UNL     1       6.649   5.921  16.295  0.00  0.00    +0.000 A 
ATOM     15  C   UNL     1       5.620   5.202  15.690  0.00  0.00    +0.000 A 
ATOM     16  C   UNL     1       4.805   4.371  16.461  0.00  0.00    +0.000 A 
ATOM     17  C   UNL     1       5.022   4.232  17.833  0.00  0.00    +0.000 A 
ATOM     18  C   UNL     1       6.065   4.936  18.431  0.00  0.00    +0.000 A 
BRANCH  13  20
ATOM     19  C   UNL     1       7.888   8.057  17.684  0.00  0.00    +0.000 C 
ATOM     20  C   UNL     1       7.854   6.701  18.374  0.00  0.00    +0.000 C 
ENDBRANCH  13  20
ENDBRANCH  12  17
ENDBRANCH  11  12
ENDBRANCH   7  11
ENDBRANCH   1   9
BRANCH   4  21
ATOM     21  S   UNL     1      -0.549  11.050  19.298  0.00  0.00    +0.000 S 
ATOM     22  O   UNL     1      -1.811  10.559  18.773  0.00  0.00    +0.000 OA
ATOM     23  O   UNL     1      -0.507  11.812  20.521  0.00  0.00    +0.000 OA
BRANCH  21  24
ATOM     24  N   UNL     1       0.206  11.994  18.122  0.00  0.00    +0.000 N 
ATOM     25  C   UNL     1       1.016  13.057  18.566  0.00  0.00    +0.000 A 
ATOM     26  C   UNL     1       2.352  12.898  18.895  0.00  0.00    +0.000 A 
ATOM     27  C   UNL     1       3.080  14.040  19.226  0.00  0.00    +0.000 A 
ATOM     28  C   UNL     1       2.442  15.277  19.239  0.00  0.00    +0.000 A 
ATOM     29  C   UNL     1       1.096  15.319  18.914  0.00  0.00    +0.000 A 
ATOM     30  N   UNL     1       0.367  14.233  18.571  0.00  0.00    +0.000 NA
ATOM     31  H   UNL     1      -0.484  12.338  17.456  0.00  0.00    +0.000 HD
ENDBRANCH  21  24
ENDBRANCH   4  21
TORSDOF 7
ENDMDL
MODEL 5
REMARK VINA RESULT:      -8.2      1.543      2.526
REMARK  Name = 
REMARK  8 active torsions:
REMARK  status: ('A' for Active; 'I' for Inactive)
REMARK    1  A    between atoms: C_1  and  C_2
REMARK    2  A    between atoms: C_2  and  C_3
REMARK    3  A    between atoms: C_7  and  O_8
REMARK    4  A    between atoms: O_8  and  C_9
REMARK    5  A    between atoms: C_9  and  C_10
REMARK    6  A    between atoms: N_12  and  C_13
REMARK    7  A    between atoms: C_16  and  S_17
REMARK    8  A    between atoms: S_17  and  N_20
REMARK                            x       y       z     vdW  Elec       q    Type
REMARK                         _______ _______ _______ _____ _____    ______ ____
ROOT
ATOM      1  C   UNL     1       2.471   7.024  19.102  0.00  0.00    +0.000 A 
ATOM      2  C   UNL     1       2.396   8.022  18.127  0.00  0.00    +0.000 A 
ATOM      3  C   UNL     1       1.757   9.234  18.374  0.00  0.00    +0.000 A 
ATOM      4  C   UNL     1       1.157   9.455  19.609  0.00  0.00    +0.000 A 
ATOM      5  C   UNL     1       1.260   8.494  20.622  0.00  0.00    +0.000 A 
ATOM      6  C   UNL     1       1.899   7.270  20.360  0.00  0.00    +0.000 A 
ENDROOT
BRANCH   1   9
ATOM      7  C   UNL     1       2.504   4.746  18.118  0.00  0.00    +0.000 C 
ATOM      8  O   UNL     1       1.412   4.795  17.555  0.00  0.00    +0.000 OA
ATOM      9  N   UNL     1       3.093   5.778  18.845  0.00  0.00    +0.000 N 
ATOM     10  H   UNL     1       4.074   5.687  19.086  0.00  0.00    +0.000 HD
BRANCH   7  11
ATOM     11  C   UNL     1       3.332   3.479  18.015  0.00  0.00    +0.000 C 
BRANCH  11  12
ATOM     12  O   UNL     1       4.698   3.851  18.155  0.00  0.00    +0.000 OA
BRANCH  12  17
ATOM     13  C   UNL     1       5.737   4.223  14.606  0.00  0.00    +0.000 A 
ATOM     14  C   UNL     1       7.004   4.782  14.812  0.00  0.00    +0.000 A 
ATOM     15  C   UNL     1       7.455   5.024  16.107  0.00  0.00    +0.000 A 
ATOM     16  C   UNL     1       6.645   4.704  17.198  0.00  0.00    +0.000 A 
ATOM     17  C   UNL     1       5.372   4.163  17.008  0.00  0.00    +0.000 A 
ATOM     18  C   UNL     1       4.915   3.941  15.710  0.00  0.00    +0.000 A 
BRANCH  13  20
ATOM     19  C   UNL     1       6.514   3.702  12.317  0.00  0.00    +0.000 C 
ATOM     20  C   UNL     1       5.300   3.791  13.230  0.00  0.00    +0.000 C 
ENDBRANCH  13  20
ENDBRANCH  12  17
ENDBRANCH  11  12
ENDBRANCH   7  11
ENDBRANCH   1   9
BRANCH   4  21
ATOM     21  S   UNL     1       0.300  10.993  19.872  0.00  0.00    +0.000 S 
ATOM     22  O   UNL     1      -0.851  10.719  20.714  0.00  0.00    +0.000 OA
ATOM     23  O   UNL     1       1.284  11.970  20.266  0.00  0.00    +0.000 OA
BRANCH  21  24
ATOM     24  N   UNL     1      -0.235  11.447  18.339  0.00  0.00    +0.000 N 
ATOM     25  C   UNL     1      -1.559  11.115  17.990  0.00  0.00    +0.000 A 
ATOM     26  C   UNL     1      -2.642  11.921  18.299  0.00  0.00    +0.000 A 
ATOM     27  C   UNL     1      -3.894  11.540  17.815  0.00  0.00    +0.000 A 
ATOM     28  C   UNL     1      -4.012  10.368  17.072  0.00  0.00    +0.000 A 
ATOM     29  C   UNL     1      -2.865   9.627  16.840  0.00  0.00    +0.000 A 
ATOM     30  N   UNL     1      -1.635   9.978  17.279  0.00  0.00    +0.000 NA
ATOM     31  H   UNL     1       0.408  11.102  17.628  0.00  0.00    +0.000 HD
ENDBRANCH  21  24
ENDBRANCH   4  21
TORSDOF 7
ENDMDL
MODEL 6
REMARK VINA RESULT:      -8.1      2.475      3.303
REMARK  Name = 
REMARK  8 active torsions:
REMARK  status: ('A' for Active; 'I' for Inactive)
REMARK    1  A    between atoms: C_1  and  C_2
REMARK    2  A    between atoms: C_2  and  C_3
REMARK    3  A    between atoms: C_7  and  O_8
REMARK    4  A    between atoms: O_8  and  C_9
REMARK    5  A    between atoms: C_9  and  C_10
REMARK    6  A    between atoms: N_12  and  C_13
REMARK    7  A    between atoms: C_16  and  S_17
REMARK    8  A    between atoms: S_17  and  N_20
REMARK                            x       y       z     vdW  Elec       q    Type
REMARK                         _______ _______ _______ _____ _____    ______ ____
ROOT
ATOM      1  C   UNL     1       2.270   7.312  19.787  0.00  0.00    +0.000 A 
ATOM      2  C   UNL     1       1.517   7.790  20.863  0.00  0.00    +0.000 A 
ATOM      3  C   UNL     1       0.797   8.979  20.777  0.00  0.00    +0.000 A 
ATOM      4  C   UNL     1       0.843   9.726  19.605  0.00  0.00    +0.000 A 
ATOM      5  C   UNL     1       1.548   9.248  18.494  0.00  0.00    +0.000 A 
ATOM      6  C   UNL     1       2.278   8.051  18.593  0.00  0.00    +0.000 A 
ENDROOT
BRANCH   1   9
ATOM      7  C   UNL     1       2.523   4.850  19.607  0.00  0.00    +0.000 C 
ATOM      8  O   UNL     1       1.393   4.599  19.192  0.00  0.00    +0.000 OA
ATOM      9  N   UNL     1       3.027   6.119  19.880  0.00  0.00    +0.000 N 
ATOM     10  H   UNL     1       4.027   6.212  20.020  0.00  0.00    +0.000 HD
BRANCH   7  11
ATOM     11  C   UNL     1       3.500   3.710  19.827  0.00  0.00    +0.000 C 
BRANCH  11  12
ATOM     12  O   UNL     1       3.945   3.278  18.546  0.00  0.00    +0.000 OA
BRANCH  12  17
ATOM     13  C   UNL     1       6.741   5.600  17.772  0.00  0.00    +0.000 A 
ATOM     14  C   UNL     1       6.519   5.751  16.398  0.00  0.00    +0.000 A 
ATOM     15  C   UNL     1       5.468   5.073  15.784  0.00  0.00    +0.000 A 
ATOM     16  C   UNL     1       4.635   4.248  16.542  0.00  0.00    +0.000 A 
ATOM     17  C   UNL     1       4.855   4.074  17.910  0.00  0.00    +0.000 A 
ATOM     18  C   UNL     1       5.920   4.736  18.516  0.00  0.00    +0.000 A 
BRANCH  13  20
ATOM     19  C   UNL     1       7.863   7.803  17.791  0.00  0.00    +0.000 C 
ATOM     20  C   UNL     1       7.757   6.453  18.487  0.00  0.00    +0.000 C 
ENDBRANCH  13  20
ENDBRANCH  12  17
ENDBRANCH  11  12
ENDBRANCH   7  11
ENDBRANCH   1   9
BRANCH   4  21
ATOM     21  S   UNL     1      -0.042  11.270  19.548  0.00  0.00    +0.000 S 
ATOM     22  O   UNL     1       0.566  12.089  18.515  0.00  0.00    +0.000 OA
ATOM     23  O   UNL     1      -1.448  10.956  19.507  0.00  0.00    +0.000 OA
BRANCH  21  24
ATOM     24  N   UNL     1       0.245  11.978  21.051  0.00  0.00    +0.000 N 
ATOM     25  C   UNL     1      -0.877  12.349  21.817  0.00  0.00    +0.000 A 
ATOM     26  C   UNL     1      -1.529  11.472  22.669  0.00  0.00    +0.000 A 
ATOM     27  C   UNL     1      -2.565  11.977  23.452  0.00  0.00    +0.000 A 
ATOM     28  C   UNL     1      -2.920  13.318  23.334  0.00  0.00    +0.000 A 
ATOM     29  C   UNL     1      -2.215  14.101  22.435  0.00  0.00    +0.000 A 
ATOM     30  N   UNL     1      -1.193  13.646  21.675  0.00  0.00    +0.000 NA
ATOM     31  H   UNL     1       0.873  12.774  20.947  0.00  0.00    +0.000 HD
ENDBRANCH  21  24
ENDBRANCH   4  21
TORSDOF 7
ENDMDL
MODEL 7
REMARK VINA RESULT:      -8.1      2.877      4.146
REMARK  Name = 
REMARK  8 active torsions:
REMARK  status: ('A' for Active; 'I' for Inactive)
REMARK    1  A    between atoms: C_1  and  C_2
REMARK    2  A    between atoms: C_2  and  C_3
REMARK    3  A    between atoms: C_7  and  O_8
REMARK    4  A    between atoms: O_8  and  C_9
REMARK    5  A    between atoms: C_9  and  C_10
REMARK    6  A    between atoms: N_12  and  C_13
REMARK    7  A    between atoms: C_16  and  S_17
REMARK    8  A    between atoms: S_17  and  N_20
REMARK                            x       y       z     vdW  Elec       q    Type
REMARK                         _______ _______ _______ _____ _____    ______ ____
ROOT
ATOM      1  C   UNL     1       3.151   6.722  18.454  0.00  0.00    +0.000 A 
ATOM      2  C   UNL     1       2.696   6.388  19.733  0.00  0.00    +0.000 A 
ATOM      3  C   UNL     1       1.833   7.221  20.439  0.00  0.00    +0.000 A 
ATOM      4  C   UNL     1       1.430   8.428  19.877  0.00  0.00    +0.000 A 
ATOM      5  C   UNL     1       1.831   8.766  18.578  0.00  0.00    +0.000 A 
ATOM      6  C   UNL     1       2.708   7.922  17.877  0.00  0.00    +0.000 A 
ENDROOT
BRANCH   1   9
ATOM      7  C   UNL     1       3.747   4.607  17.301  0.00  0.00    +0.000 C 
ATOM      8  O   UNL     1       2.656   4.051  17.404  0.00  0.00    +0.000 OA
ATOM      9  N   UNL     1       4.053   5.892  17.745  0.00  0.00    +0.000 N 
ATOM     10  H   UNL     1       4.919   6.311  17.424  0.00  0.00    +0.000 HD
BRANCH   7  11
ATOM     11  C   UNL     1       4.886   3.879  16.610  0.00  0.00    +0.000 C 
BRANCH  11  12
ATOM     12  O   UNL     1       5.707   4.863  15.994  0.00  0.00    +0.000 OA
BRANCH  12  17
ATOM     13  C   UNL     1       5.917   3.597  12.507  0.00  0.00    +0.000 A 
ATOM     14  C   UNL     1       7.101   4.234  12.119  0.00  0.00    +0.000 A 
ATOM     15  C   UNL     1       7.772   5.062  13.016  0.00  0.00    +0.000 A 
ATOM     16  C   UNL     1       7.264   5.250  14.302  0.00  0.00    +0.000 A 
ATOM     17  C   UNL     1       6.074   4.636  14.697  0.00  0.00    +0.000 A 
ATOM     18  C   UNL     1       5.394   3.825  13.790  0.00  0.00    +0.000 A 
BRANCH  13  20
ATOM     19  C   UNL     1       3.961   3.115  11.071  0.00  0.00    +0.000 C 
ATOM     20  C   UNL     1       5.271   2.565  11.619  0.00  0.00    +0.000 C 
ENDBRANCH  13  20
ENDBRANCH  12  17
ENDBRANCH  11  12
ENDBRANCH   7  11
ENDBRANCH   1   9
BRANCH   4  21
ATOM     21  S   UNL     1       0.373   9.497  20.830  0.00  0.00    +0.000 S 
ATOM     22  O   UNL     1      -0.469   8.657  21.663  0.00  0.00    +0.000 OA
ATOM     23  O   UNL     1       1.209  10.514  21.417  0.00  0.00    +0.000 OA
BRANCH  21  24
ATOM     24  N   UNL     1      -0.588  10.274  19.683  0.00  0.00    +0.000 N 
ATOM     25  C   UNL     1      -0.436  11.668  19.547  0.00  0.00    +0.000 A 
ATOM     26  C   UNL     1       0.519  12.243  18.725  0.00  0.00    +0.000 A 
ATOM     27  C   UNL     1       0.511  13.631  18.593  0.00  0.00    +0.000 A 
ATOM     28  C   UNL     1      -0.426  14.380  19.301  0.00  0.00    +0.000 A 
ATOM     29  C   UNL     1      -1.322  13.703  20.111  0.00  0.00    +0.000 A 
ATOM     30  N   UNL     1      -1.353  12.357  20.246  0.00  0.00    +0.000 NA
ATOM     31  H   UNL     1      -1.569  10.046  19.837  0.00  0.00    +0.000 HD
ENDBRANCH  21  24
ENDBRANCH   4  21
TORSDOF 7
ENDMDL
MODEL 8
REMARK VINA RESULT:      -8.0      2.868      4.058
REMARK  Name = 
REMARK  8 active torsions:
REMARK  status: ('A' for Active; 'I' for Inactive)
REMARK    1  A    between atoms: C_1  and  C_2
REMARK    2  A    between atoms: C_2  and  C_3
REMARK    3  A    between atoms: C_7  and  O_8
REMARK    4  A    between atoms: O_8  and  C_9
REMARK    5  A    between atoms: C_9  and  C_10
REMARK    6  A    between atoms: N_12  and  C_13
REMARK    7  A    between atoms: C_16  and  S_17
REMARK    8  A    between atoms: S_17  and  N_20
REMARK                            x       y       z     vdW  Elec       q    Type
REMARK                         _______ _______ _______ _____ _____    ______ ____
ROOT
ATOM      1  C   UNL     1       2.416   7.337  18.914  0.00  0.00    +0.000 A 
ATOM      2  C   UNL     1       1.835   7.605  20.157  0.00  0.00    +0.000 A 
ATOM      3  C   UNL     1       1.134   8.785  20.393  0.00  0.00    +0.000 A 
ATOM      4  C   UNL     1       1.026   9.734  19.383  0.00  0.00    +0.000 A 
ATOM      5  C   UNL     1       1.555   9.472  18.113  0.00  0.00    +0.000 A 
ATOM      6  C   UNL     1       2.268   8.282  17.886  0.00  0.00    +0.000 A 
ENDROOT
BRANCH   1   9
ATOM      7  C   UNL     1       2.622   4.998  18.111  0.00  0.00    +0.000 C 
ATOM      8  O   UNL     1       1.476   4.870  17.684  0.00  0.00    +0.000 OA
ATOM      9  N   UNL     1       3.156   6.153  18.679  0.00  0.00    +0.000 N 
ATOM     10  H   UNL     1       4.161   6.198  18.804  0.00  0.00    +0.000 HD
BRANCH   7  11
ATOM     11  C   UNL     1       3.586   3.831  18.004  0.00  0.00    +0.000 C 
BRANCH  11  12
ATOM     12  O   UNL     1       4.903   4.366  18.012  0.00  0.00    +0.000 OA
BRANCH  12  17
ATOM     13  C   UNL     1       5.748   4.238  14.396  0.00  0.00    +0.000 A 
ATOM     14  C   UNL     1       7.062   4.715  14.466  0.00  0.00    +0.000 A 
ATOM     15  C   UNL     1       7.608   5.070  15.698  0.00  0.00    +0.000 A 
ATOM     16  C   UNL     1       6.845   4.944  16.860  0.00  0.00    +0.000 A 
ATOM     17  C   UNL     1       5.528   4.487  16.803  0.00  0.00    +0.000 A 
ATOM     18  C   UNL     1       4.977   4.153  15.567  0.00  0.00    +0.000 A 
BRANCH  13  20
ATOM     19  C   UNL     1       6.344   3.393  12.149  0.00  0.00    +0.000 C 
ATOM     20  C   UNL     1       5.197   3.686  13.107  0.00  0.00    +0.000 C 
ENDBRANCH  13  20
ENDBRANCH  12  17
ENDBRANCH  11  12
ENDBRANCH   7  11
ENDBRANCH   1   9
BRANCH   4  21
ATOM     21  S   UNL     1       0.173  11.256  19.736  0.00  0.00    +0.000 S 
ATOM     22  O   UNL     1      -1.241  10.951  19.859  0.00  0.00    +0.000 OA
ATOM     23  O   UNL     1       0.883  11.906  20.809  0.00  0.00    +0.000 OA
BRANCH  21  24
ATOM     24  N   UNL     1       0.413  12.204  18.362  0.00  0.00    +0.000 N 
ATOM     25  C   UNL     1       1.350  13.252  18.454  0.00  0.00    +0.000 A 
ATOM     26  C   UNL     1       2.704  13.071  18.222  0.00  0.00    +0.000 A 
ATOM     27  C   UNL     1       3.523  14.200  18.242  0.00  0.00    +0.000 A 
ATOM     28  C   UNL     1       2.963  15.445  18.516  0.00  0.00    +0.000 A 
ATOM     29  C   UNL     1       1.600  15.508  18.755  0.00  0.00    +0.000 A 
ATOM     30  N   UNL     1       0.777  14.436  18.723  0.00  0.00    +0.000 NA
ATOM     31  H   UNL     1      -0.479  12.565  18.027  0.00  0.00    +0.000 HD
ENDBRANCH  21  24
ENDBRANCH   4  21
TORSDOF 7
ENDMDL
MODEL 9
REMARK VINA RESULT:      -7.9      2.594      3.432
REMARK  Name = 
REMARK  8 active torsions:
REMARK  status: ('A' for Active; 'I' for Inactive)
REMARK    1  A    between atoms: C_1  and  C_2
REMARK    2  A    between atoms: C_2  and  C_3
REMARK    3  A    between atoms: C_7  and  O_8
REMARK    4  A    between atoms: O_8  and  C_9
REMARK    5  A    between atoms: C_9  and  C_10
REMARK    6  A    between atoms: N_12  and  C_13
REMARK    7  A    between atoms: C_16  and  S_17
REMARK    8  A    between atoms: S_17  and  N_20
REMARK                            x       y       z     vdW  Elec       q    Type
REMARK                         _______ _______ _______ _____ _____    ______ ____
ROOT
ATOM      1  C   UNL     1       2.321   7.368  19.300  0.00  0.00    +0.000 A 
ATOM      2  C   UNL     1       1.670   7.723  20.485  0.00  0.00    +0.000 A 
ATOM      3  C   UNL     1       0.938   8.903  20.588  0.00  0.00    +0.000 A 
ATOM      4  C   UNL     1       0.868   9.766  19.499  0.00  0.00    +0.000 A 
ATOM      5  C   UNL     1       1.468   9.413  18.284  0.00  0.00    +0.000 A 
ATOM      6  C   UNL     1       2.212   8.224  18.193  0.00  0.00    +0.000 A 
ENDROOT
BRANCH   1   9
ATOM      7  C   UNL     1       2.627   4.994  18.648  0.00  0.00    +0.000 C 
ATOM      8  O   UNL     1       1.528   4.825  18.122  0.00  0.00    +0.000 OA
ATOM      9  N   UNL     1       3.092   6.185  19.201  0.00  0.00    +0.000 N 
ATOM     10  H   UNL     1       4.080   6.252  19.418  0.00  0.00    +0.000 HD
BRANCH   7  11
ATOM     11  C   UNL     1       3.609   3.837  18.696  0.00  0.00    +0.000 C 
BRANCH  11  12
ATOM     12  O   UNL     1       3.921   3.489  17.353  0.00  0.00    +0.000 OA
BRANCH  12  17
ATOM     13  C   UNL     1       6.849   5.686  16.712  0.00  0.00    +0.000 A 
ATOM     14  C   UNL     1       7.053   5.381  15.361  0.00  0.00    +0.000 A 
ATOM     15  C   UNL     1       6.228   4.457  14.724  0.00  0.00    +0.000 A 
ATOM     16  C   UNL     1       5.195   3.841  15.433  0.00  0.00    +0.000 A 
ATOM     17  C   UNL     1       4.991   4.122  16.785  0.00  0.00    +0.000 A 
ATOM     18  C   UNL     1       5.831   5.031  17.425  0.00  0.00    +0.000 A 
BRANCH  13  20
ATOM     19  C   UNL     1       7.913   6.429  18.817  0.00  0.00    +0.000 C 
ATOM     20  C   UNL     1       7.612   6.805  17.373  0.00  0.00    +0.000 C 
ENDBRANCH  13  20
ENDBRANCH  12  17
ENDBRANCH  11  12
ENDBRANCH   7  11
ENDBRANCH   1   9
BRANCH   4  21
ATOM     21  S   UNL     1      -0.028  11.292  19.683  0.00  0.00    +0.000 S 
ATOM     22  O   UNL     1      -1.446  10.978  19.659  0.00  0.00    +0.000 OA
ATOM     23  O   UNL     1       0.551  11.997  20.799  0.00  0.00    +0.000 OA
BRANCH  21  24
ATOM     24  N   UNL     1       0.362  12.181  18.304  0.00  0.00    +0.000 N 
ATOM     25  C   UNL     1       1.313  13.210  18.444  0.00  0.00    +0.000 A 
ATOM     26  C   UNL     1       2.677  12.991  18.346  0.00  0.00    +0.000 A 
ATOM     27  C   UNL     1       3.519  14.102  18.401  0.00  0.00    +0.000 A 
ATOM     28  C   UNL     1       2.968  15.369  18.575  0.00  0.00    +0.000 A 
ATOM     29  C   UNL     1       1.590  15.471  18.683  0.00  0.00    +0.000 A 
ATOM     30  N   UNL     1       0.746  14.416  18.614  0.00  0.00    +0.000 NA
ATOM     31  H   UNL     1      -0.486  12.548  17.874  0.00  0.00    +0.000 HD
ENDBRANCH  21  24
ENDBRANCH   4  21
TORSDOF 7
ENDMDL
