MODEL 1
REMARK VINA RESULT:      -8.6      0.000      0.000
REMARK  Name = 
REMARK  11 active torsions:
REMARK  status: ('A' for Active; 'I' for Inactive)
REMARK    1  A    between atoms: C_1  and  C_2
REMARK    2  A    between atoms: C_2  and  C_3
REMARK    3  A    between atoms: C_2  and  C_4
REMARK    4  A    between atoms: C_2  and  O_5
REMARK    5  A    between atoms: O_5  and  C_6
REMARK    6  A    between atoms: C_13  and  C_14
REMARK    7  A    between atoms: C_14  and  C_15
REMARK    8  A    between atoms: C_15  and  O_16
REMARK    9  A    between atoms: O_16  and  C_17
REMARK   10  A    between atoms: C_20  and  C_21
REMARK   11  A    between atoms: C_25  and  C_26
REMARK                            x       y       z     vdW  Elec       q    Type
REMARK                         _______ _______ _______ _____ _____    ______ ____
ROOT
ATOM      1  C   UNL     1       2.341   8.647  18.230  0.00  0.00    +0.000 A 
ATOM      2  C   UNL     1       1.804   8.267  19.458  0.00  0.00    +0.000 A 
ATOM      3  C   UNL     1       0.950   9.125  20.145  0.00  0.00    +0.000 A 
ATOM      4  C   UNL     1       0.605  10.381  19.629  0.00  0.00    +0.000 A 
ATOM      5  C   UNL     1       1.160  10.770  18.405  0.00  0.00    +0.000 A 
ATOM      6  C   UNL     1       2.023   9.905  17.712  0.00  0.00    +0.000 A 
ENDROOT
BRANCH   4   7
ATOM      7  C   UNL     1      -0.373  11.170  20.381  0.00  0.00    +0.000 A 
ATOM      8  N   UNL     1      -0.463  11.173  21.699  0.00  0.00    +0.000 NA
ATOM      9  C   UNL     1      -1.611  11.841  22.002  0.00  0.00    +0.000 A 
ATOM     10  C   UNL     1      -2.204  12.033  23.253  0.00  0.00    +0.000 A 
ATOM     11  C   UNL     1      -3.425  12.715  23.307  0.00  0.00    +0.000 A 
ATOM     12  C   UNL     1      -4.035  13.181  22.131  0.00  0.00    +0.000 A 
ATOM     13  C   UNL     1      -3.435  13.014  20.872  0.00  0.00    +0.000 A 
ATOM     14  C   UNL     1      -2.218  12.332  20.855  0.00  0.00    +0.000 A 
ATOM     15  N   UNL     1      -1.373  11.948  19.841  0.00  0.00    +0.000 N 
ATOM     16  H   UNL     1      -1.515  12.126  18.859  0.00  0.00    +0.000 HD
BRANCH  11  17
ATOM     17  C   UNL     1      -4.113  12.920  24.604  0.00  0.00    +0.000 C 
ATOM     18  N   UNL     1      -5.146  12.077  24.905  0.00  0.00    +0.000 N 
ATOM     19  O   UNL     1      -3.758  13.790  25.390  0.00  0.00    +0.000 OA
ATOM     20  H   UNL     1      -5.337  11.231  24.384  0.00  0.00    +0.000 HD
ATOM     21  H   UNL     1      -5.565  12.173  25.821  0.00  0.00    +0.000 HD
ENDBRANCH  11  17
ENDBRANCH   4   7
BRANCH   1  22
ATOM     22  O   UNL     1       3.175   7.870  17.468  0.00  0.00    +0.000 OA
BRANCH  22  23
ATOM     23  C   UNL     1       3.524   6.613  18.059  0.00  0.00    +0.000 C 
BRANCH  23  24
ATOM     24  C   UNL     1       5.021   6.378  17.928  0.00  0.00    +0.000 C 
BRANCH  24  32
ATOM     25  C   UNL     1       3.844   2.919  18.261  0.00  0.00    +0.000 C 
ATOM     26  O   UNL     1       3.385   1.955  17.656  0.00  0.00    +0.000 OA
ATOM     27  N   UNL     1       4.545   3.931  17.616  0.00  0.00    +0.000 N 
ATOM     28  C   UNL     1       4.700   3.839  16.166  0.00  0.00    +0.000 C 
ATOM     29  C   UNL     1       6.148   3.557  15.785  0.00  0.00    +0.000 C 
ATOM     30  C   UNL     1       7.107   4.548  16.445  0.00  0.00    +0.000 C 
ATOM     31  C   UNL     1       6.866   4.627  17.956  0.00  0.00    +0.000 C 
ATOM     32  C   UNL     1       5.392   4.926  18.299  0.00  0.00    +0.000 C 
BRANCH  25  33
ATOM     33  O   UNL     1       3.684   3.110  19.603  0.00  0.00    +0.000 OA
BRANCH  33  35
ATOM     34  C   UNL     1       1.938   2.414  21.201  0.00  0.00    +0.000 C 
ATOM     35  C   UNL     1       2.353   3.418  20.114  0.00  0.00    +0.000 C 
ATOM     36  C   UNL     1       1.312   3.513  18.985  0.00  0.00    +0.000 C 
ATOM     37  C   UNL     1       2.439   4.806  20.772  0.00  0.00    +0.000 C 
ENDBRANCH  33  35
ENDBRANCH  25  33
ENDBRANCH  24  32
ENDBRANCH  23  24
ENDBRANCH  22  23
ENDBRANCH   1  22
TORSDOF 8
ENDMDL
MODEL 2
REMARK VINA RESULT:      -8.6      1.858      3.373
REMARK  Name = 
REMARK  11 active torsions:
REMARK  status: ('A' for Active; 'I' for Inactive)
REMARK    1  A    between atoms: C_1  and  C_2
REMARK    2  A    between atoms: C_2  and  C_3
REMARK    3  A    between atoms: C_2  and  C_4
REMARK    4  A    between atoms: C_2  and  O_5
REMARK    5  A    between atoms: O_5  and  C_6
REMARK    6  A    between atoms: C_13  and  C_14
REMARK    7  A    between atoms: C_14  and  C_15
REMARK    8  A    between atoms: C_15  and  O_16
REMARK    9  A    between atoms: O_16  and  C_17
REMARK   10  A    between atoms: C_20  and  C_21
REMARK   11  A    between atoms: C_25  and  C_26
REMARK                            x       y       z     vdW  Elec       q    Type
REMARK                         _______ _______ _______ _____ _____    ______ ____
ROOT
ATOM      1  C   UNL     1       1.635   8.054  20.298  0.00  0.00    +0.000 A 
ATOM      2  C   UNL     1       1.288   8.280  21.628  0.00  0.00    +0.000 A 
ATOM      3  C   UNL     1       0.605   9.439  21.986  0.00  0.00    +0.000 A 
ATOM      4  C   UNL     1       0.247  10.401  21.033  0.00  0.00    +0.000 A 
ATOM      5  C   UNL     1       0.613  10.182  19.700  0.00  0.00    +0.000 A 
ATOM      6  C   UNL     1       1.303   9.014  19.338  0.00  0.00    +0.000 A 
ENDROOT
BRANCH   4   7
ATOM      7  C   UNL     1      -0.551  11.538  21.495  0.00  0.00    +0.000 A 
ATOM      8  N   UNL     1      -0.241  12.281  22.543  0.00  0.00    +0.000 NA
ATOM      9  C   UNL     1      -1.319  13.080  22.778  0.00  0.00    +0.000 A 
ATOM     10  C   UNL     1      -1.527  13.976  23.830  0.00  0.00    +0.000 A 
ATOM     11  C   UNL     1      -2.752  14.652  23.888  0.00  0.00    +0.000 A 
ATOM     12  C   UNL     1      -3.741  14.423  22.917  0.00  0.00    +0.000 A 
ATOM     13  C   UNL     1      -3.530  13.544  21.843  0.00  0.00    +0.000 A 
ATOM     14  C   UNL     1      -2.299  12.888  21.815  0.00  0.00    +0.000 A 
ATOM     15  N   UNL     1      -1.757  11.948  20.971  0.00  0.00    +0.000 N 
ATOM     16  H   UNL     1      -2.208  11.558  20.159  0.00  0.00    +0.000 HD
BRANCH  11  17
ATOM     17  C   UNL     1      -3.038  15.591  24.999  0.00  0.00    +0.000 C 
ATOM     18  N   UNL     1      -4.279  16.163  25.031  0.00  0.00    +0.000 N 
ATOM     19  O   UNL     1      -2.211  15.827  25.872  0.00  0.00    +0.000 OA
ATOM     20  H   UNL     1      -5.048  15.846  24.455  0.00  0.00    +0.000 HD
ATOM     21  H   UNL     1      -4.496  16.746  25.829  0.00  0.00    +0.000 HD
ENDBRANCH  11  17
ENDBRANCH   4   7
BRANCH   1  22
ATOM     22  O   UNL     1       2.290   6.940  19.840  0.00  0.00    +0.000 OA
BRANCH  22  23
ATOM     23  C   UNL     1       1.999   5.737  20.561  0.00  0.00    +0.000 C 
BRANCH  23  24
ATOM     24  C   UNL     1       1.684   4.613  19.587  0.00  0.00    +0.000 C 
BRANCH  24  32
ATOM     25  C   UNL     1       5.285   4.627  18.885  0.00  0.00    +0.000 C 
ATOM     26  O   UNL     1       6.350   4.059  19.106  0.00  0.00    +0.000 OA
ATOM     27  N   UNL     1       4.060   3.993  19.056  0.00  0.00    +0.000 N 
ATOM     28  C   UNL     1       4.065   2.617  19.547  0.00  0.00    +0.000 C 
ATOM     29  C   UNL     1       3.619   1.645  18.460  0.00  0.00    +0.000 C 
ATOM     30  C   UNL     1       2.292   2.071  17.835  0.00  0.00    +0.000 C 
ATOM     31  C   UNL     1       2.339   3.534  17.379  0.00  0.00    +0.000 C 
ATOM     32  C   UNL     1       2.782   4.484  18.509  0.00  0.00    +0.000 C 
BRANCH  25  33
ATOM     33  O   UNL     1       5.196   5.930  18.490  0.00  0.00    +0.000 OA
BRANCH  33  35
ATOM     34  C   UNL     1       5.832   5.073  16.265  0.00  0.00    +0.000 C 
ATOM     35  C   UNL     1       5.714   6.303  17.178  0.00  0.00    +0.000 C 
ATOM     36  C   UNL     1       7.040   7.075  17.283  0.00  0.00    +0.000 C 
ATOM     37  C   UNL     1       4.682   7.254  16.546  0.00  0.00    +0.000 C 
ENDBRANCH  33  35
ENDBRANCH  25  33
ENDBRANCH  24  32
ENDBRANCH  23  24
ENDBRANCH  22  23
ENDBRANCH   1  22
TORSDOF 8
ENDMDL
MODEL 3
REMARK VINA RESULT:      -8.6      3.252     10.262
REMARK  Name = 
REMARK  11 active torsions:
REMARK  status: ('A' for Active; 'I' for Inactive)
REMARK    1  A    between atoms: C_1  and  C_2
REMARK    2  A    between atoms: C_2  and  C_3
REMARK    3  A    between atoms: C_2  and  C_4
REMARK    4  A    between atoms: C_2  and  O_5
REMARK    5  A    between atoms: O_5  and  C_6
REMARK    6  A    between atoms: C_13  and  C_14
REMARK    7  A    between atoms: C_14  and  C_15
REMARK    8  A    between atoms: C_15  and  O_16
REMARK    9  A    between atoms: O_16  and  C_17
REMARK   10  A    between atoms: C_20  and  C_21
REMARK   11  A    between atoms: C_25  and  C_26
REMARK                            x       y       z     vdW  Elec       q    Type
REMARK                         _______ _______ _______ _____ _____    ______ ____
ROOT
ATOM      1  C   UNL     1       0.942  11.002  19.027  0.00  0.00    +0.000 A 
ATOM      2  C   UNL     1       0.612  10.377  20.228  0.00  0.00    +0.000 A 
ATOM      3  C   UNL     1       1.021   9.069  20.472  0.00  0.00    +0.000 A 
ATOM      4  C   UNL     1       1.770   8.349  19.532  0.00  0.00    +0.000 A 
ATOM      5  C   UNL     1       2.084   8.971  18.318  0.00  0.00    +0.000 A 
ATOM      6  C   UNL     1       1.671  10.290  18.071  0.00  0.00    +0.000 A 
ENDROOT
BRANCH   4   7
ATOM      7  C   UNL     1       2.230   7.015  19.920  0.00  0.00    +0.000 A 
ATOM      8  N   UNL     1       3.187   6.353  19.295  0.00  0.00    +0.000 NA
ATOM      9  C   UNL     1       3.174   5.089  19.802  0.00  0.00    +0.000 A 
ATOM     10  C   UNL     1       3.927   3.981  19.405  0.00  0.00    +0.000 A 
ATOM     11  C   UNL     1       3.695   2.761  20.050  0.00  0.00    +0.000 A 
ATOM     12  C   UNL     1       2.724   2.659  21.059  0.00  0.00    +0.000 A 
ATOM     13  C   UNL     1       1.980   3.772  21.481  0.00  0.00    +0.000 A 
ATOM     14  C   UNL     1       2.237   4.973  20.819  0.00  0.00    +0.000 A 
ATOM     15  N   UNL     1       1.697   6.233  20.920  0.00  0.00    +0.000 N 
ATOM     16  H   UNL     1       0.965   6.509  21.555  0.00  0.00    +0.000 HD
BRANCH  11  17
ATOM     17  C   UNL     1       4.444   1.546  19.647  0.00  0.00    +0.000 C 
ATOM     18  N   UNL     1       4.150   1.003  18.427  0.00  0.00    +0.000 N 
ATOM     19  O   UNL     1       5.313   1.059  20.362  0.00  0.00    +0.000 OA
ATOM     20  H   UNL     1       3.593   1.482  17.731  0.00  0.00    +0.000 HD
ATOM     21  H   UNL     1       4.712   0.219  18.126  0.00  0.00    +0.000 HD
ENDBRANCH  11  17
ENDBRANCH   4   7
BRANCH   1  22
ATOM     22  O   UNL     1       0.604  12.290  18.698  0.00  0.00    +0.000 OA
BRANCH  22  23
ATOM     23  C   UNL     1      -0.751  12.645  18.993  0.00  0.00    +0.000 C 
BRANCH  23  24
ATOM     24  C   UNL     1      -1.643  12.309  17.808  0.00  0.00    +0.000 C 
BRANCH  24  32
ATOM     25  C   UNL     1      -5.171  11.539  18.453  0.00  0.00    +0.000 C 
ATOM     26  O   UNL     1      -6.297  11.515  17.963  0.00  0.00    +0.000 OA
ATOM     27  N   UNL     1      -4.024  11.519  17.670  0.00  0.00    +0.000 N 
ATOM     28  C   UNL     1      -4.187  11.502  16.218  0.00  0.00    +0.000 C 
ATOM     29  C   UNL     1      -3.759  10.162  15.633  0.00  0.00    +0.000 C 
ATOM     30  C   UNL     1      -2.359   9.766  16.100  0.00  0.00    +0.000 C 
ATOM     31  C   UNL     1      -2.242   9.844  17.626  0.00  0.00    +0.000 C 
ATOM     32  C   UNL     1      -2.672  11.219  18.175  0.00  0.00    +0.000 C 
BRANCH  25  33
ATOM     33  O   UNL     1      -4.937  11.623  19.795  0.00  0.00    +0.000 OA
BRANCH  33  35
ATOM     34  C   UNL     1      -4.979  12.910  21.900  0.00  0.00    +0.000 C 
ATOM     35  C   UNL     1      -5.700  12.586  20.582  0.00  0.00    +0.000 C 
ATOM     36  C   UNL     1      -7.147  12.120  20.813  0.00  0.00    +0.000 C 
ATOM     37  C   UNL     1      -5.765  13.883  19.756  0.00  0.00    +0.000 C 
ENDBRANCH  33  35
ENDBRANCH  25  33
ENDBRANCH  24  32
ENDBRANCH  23  24
ENDBRANCH  22  23
ENDBRANCH   1  22
TORSDOF 8
ENDMDL
MODEL 4
REMARK VINA RESULT:      -8.6      0.909      1.298
REMARK  Name = 
REMARK  11 active torsions:
REMARK  status: ('A' for Active; 'I' for Inactive)
REMARK    1  A    between atoms: C_1  and  C_2
REMARK    2  A    between atoms: C_2  and  C_3
REMARK    3  A    between atoms: C_2  and  C_4
REMARK    4  A    between atoms: C_2  and  O_5
REMARK    5  A    between atoms: O_5  and  C_6
REMARK    6  A    between atoms: C_13  and  C_14
REMARK    7  A    between atoms: C_14  and  C_15
REMARK    8  A    between atoms: C_15  and  O_16
REMARK    9  A    between atoms: O_16  and  C_17
REMARK   10  A    between atoms: C_20  and  C_21
REMARK   11  A    between atoms: C_25  and  C_26
REMARK                            x       y       z     vdW  Elec       q    Type
REMARK                         _______ _______ _______ _____ _____    ______ ____
ROOT
ATOM      1  C   UNL     1       2.083   8.501  18.406  0.00  0.00    +0.000 A 
ATOM      2  C   UNL     1       1.751   8.125  19.705  0.00  0.00    +0.000 A 
ATOM      3  C   UNL     1       1.158   9.040  20.570  0.00  0.00    +0.000 A 
ATOM      4  C   UNL     1       0.876  10.352  20.165  0.00  0.00    +0.000 A 
ATOM      5  C   UNL     1       1.227  10.735  18.865  0.00  0.00    +0.000 A 
ATOM      6  C   UNL     1       1.827   9.812  17.994  0.00  0.00    +0.000 A 
ENDROOT
BRANCH   4   7
ATOM      7  C   UNL     1       0.166  11.210  21.115  0.00  0.00    +0.000 A 
ATOM      8  N   UNL     1      -0.907  10.836  21.789  0.00  0.00    +0.000 NA
ATOM      9  C   UNL     1      -1.395  11.959  22.386  0.00  0.00    +0.000 A 
ATOM     10  C   UNL     1      -2.567  12.112  23.130  0.00  0.00    +0.000 A 
ATOM     11  C   UNL     1      -2.887  13.391  23.602  0.00  0.00    +0.000 A 
ATOM     12  C   UNL     1      -2.053  14.485  23.322  0.00  0.00    +0.000 A 
ATOM     13  C   UNL     1      -0.860  14.336  22.596  0.00  0.00    +0.000 A 
ATOM     14  C   UNL     1      -0.571  13.048  22.143  0.00  0.00    +0.000 A 
ATOM     15  N   UNL     1       0.452  12.529  21.386  0.00  0.00    +0.000 N 
ATOM     16  H   UNL     1       1.230  13.051  21.013  0.00  0.00    +0.000 HD
BRANCH  11  17
ATOM     17  C   UNL     1      -4.135  13.616  24.371  0.00  0.00    +0.000 C 
ATOM     18  N   UNL     1      -4.575  12.594  25.165  0.00  0.00    +0.000 N 
ATOM     19  O   UNL     1      -4.737  14.683  24.322  0.00  0.00    +0.000 OA
ATOM     20  H   UNL     1      -4.009  11.785  25.386  0.00  0.00    +0.000 HD
ATOM     21  H   UNL     1      -5.385  12.777  25.742  0.00  0.00    +0.000 HD
ENDBRANCH  11  17
ENDBRANCH   4   7
BRANCH   1  22
ATOM     22  O   UNL     1       2.653   7.672  17.474  0.00  0.00    +0.000 OA
BRANCH  22  23
ATOM     23  C   UNL     1       3.080   6.405  17.985  0.00  0.00    +0.000 C 
BRANCH  23  24
ATOM     24  C   UNL     1       4.597   6.377  18.098  0.00  0.00    +0.000 C 
BRANCH  24  32
ATOM     25  C   UNL     1       3.743   2.832  18.502  0.00  0.00    +0.000 C 
ATOM     26  O   UNL     1       3.369   1.819  17.918  0.00  0.00    +0.000 OA
ATOM     27  N   UNL     1       4.344   3.891  17.834  0.00  0.00    +0.000 N 
ATOM     28  C   UNL     1       4.497   3.787  16.384  0.00  0.00    +0.000 C 
ATOM     29  C   UNL     1       5.962   3.631  15.997  0.00  0.00    +0.000 C 
ATOM     30  C   UNL     1       6.831   4.717  16.631  0.00  0.00    +0.000 C 
ATOM     31  C   UNL     1       6.594   4.802  18.142  0.00  0.00    +0.000 C 
ATOM     32  C   UNL     1       5.101   4.971  18.491  0.00  0.00    +0.000 C 
BRANCH  25  33
ATOM     33  O   UNL     1       3.574   3.032  19.842  0.00  0.00    +0.000 OA
BRANCH  33  35
ATOM     34  C   UNL     1       1.213   3.370  19.209  0.00  0.00    +0.000 C 
ATOM     35  C   UNL     1       2.260   3.433  20.332  0.00  0.00    +0.000 C 
ATOM     36  C   UNL     1       2.298   4.813  21.011  0.00  0.00    +0.000 C 
ATOM     37  C   UNL     1       1.853   2.408  21.405  0.00  0.00    +0.000 C 
ENDBRANCH  33  35
ENDBRANCH  25  33
ENDBRANCH  24  32
ENDBRANCH  23  24
ENDBRANCH  22  23
ENDBRANCH   1  22
TORSDOF 8
ENDMDL
MODEL 5
REMARK VINA RESULT:      -8.5      1.481      1.928
REMARK  Name = 
REMARK  11 active torsions:
REMARK  status: ('A' for Active; 'I' for Inactive)
REMARK    1  A    between atoms: C_1  and  C_2
REMARK    2  A    between atoms: C_2  and  C_3
REMARK    3  A    between atoms: C_2  and  C_4
REMARK    4  A    between atoms: C_2  and  O_5
REMARK    5  A    between atoms: O_5  and  C_6
REMARK    6  A    between atoms: C_13  and  C_14
REMARK    7  A    between atoms: C_14  and  C_15
REMARK    8  A    between atoms: C_15  and  O_16
REMARK    9  A    between atoms: O_16  and  C_17
REMARK   10  A    between atoms: C_20  and  C_21
REMARK   11  A    between atoms: C_25  and  C_26
REMARK                            x       y       z     vdW  Elec       q    Type
REMARK                         _______ _______ _______ _____ _____    ______ ____
ROOT
ATOM      1  C   UNL     1       1.863   8.189  19.590  0.00  0.00    +0.000 A 
ATOM      2  C   UNL     1       1.430   9.255  18.805  0.00  0.00    +0.000 A 
ATOM      3  C   UNL     1       0.621  10.246  19.353  0.00  0.00    +0.000 A 
ATOM      4  C   UNL     1       0.225  10.206  20.696  0.00  0.00    +0.000 A 
ATOM      5  C   UNL     1       0.644   9.125  21.479  0.00  0.00    +0.000 A 
ATOM      6  C   UNL     1       1.459   8.124  20.926  0.00  0.00    +0.000 A 
ENDROOT
BRANCH   4   7
ATOM      7  C   UNL     1      -0.547  11.342  21.202  0.00  0.00    +0.000 A 
ATOM      8  N   UNL     1      -0.185  12.079  22.238  0.00  0.00    +0.000 NA
ATOM      9  C   UNL     1      -1.248  12.878  22.530  0.00  0.00    +0.000 A 
ATOM     10  C   UNL     1      -1.404  13.768  23.595  0.00  0.00    +0.000 A 
ATOM     11  C   UNL     1      -2.622  14.447  23.716  0.00  0.00    +0.000 A 
ATOM     12  C   UNL     1      -3.658  14.225  22.794  0.00  0.00    +0.000 A 
ATOM     13  C   UNL     1      -3.501  13.352  21.706  0.00  0.00    +0.000 A 
ATOM     14  C   UNL     1      -2.274  12.693  21.614  0.00  0.00    +0.000 A 
ATOM     15  N   UNL     1      -1.776  11.758  20.740  0.00  0.00    +0.000 N 
ATOM     16  H   UNL     1      -2.267  11.373  19.948  0.00  0.00    +0.000 HD
BRANCH  11  17
ATOM     17  C   UNL     1      -2.853  15.380  24.845  0.00  0.00    +0.000 C 
ATOM     18  N   UNL     1      -1.994  15.303  25.907  0.00  0.00    +0.000 N 
ATOM     19  O   UNL     1      -3.757  16.207  24.823  0.00  0.00    +0.000 OA
ATOM     20  H   UNL     1      -1.127  14.782  25.878  0.00  0.00    +0.000 HD
ATOM     21  H   UNL     1      -2.110  15.988  26.642  0.00  0.00    +0.000 HD
ENDBRANCH  11  17
ENDBRANCH   4   7
BRANCH   1  22
ATOM     22  O   UNL     1       2.674   7.173  19.151  0.00  0.00    +0.000 OA
BRANCH  22  23
ATOM     23  C   UNL     1       2.964   7.205  17.749  0.00  0.00    +0.000 C 
BRANCH  23  24
ATOM     24  C   UNL     1       4.450   6.976  17.523  0.00  0.00    +0.000 C 
BRANCH  24  32
ATOM     25  C   UNL     1       3.986   3.382  18.089  0.00  0.00    +0.000 C 
ATOM     26  O   UNL     1       4.010   2.274  17.562  0.00  0.00    +0.000 OA
ATOM     27  N   UNL     1       4.655   4.473  17.548  0.00  0.00    +0.000 N 
ATOM     28  C   UNL     1       5.376   4.278  16.292  0.00  0.00    +0.000 C 
ATOM     29  C   UNL     1       6.882   4.355  16.506  0.00  0.00    +0.000 C 
ATOM     30  C   UNL     1       7.280   5.628  17.253  0.00  0.00    +0.000 C 
ATOM     31  C   UNL     1       6.460   5.794  18.538  0.00  0.00    +0.000 C 
ATOM     32  C   UNL     1       4.942   5.722  18.276  0.00  0.00    +0.000 C 
BRANCH  25  33
ATOM     33  O   UNL     1       3.281   3.658  19.225  0.00  0.00    +0.000 OA
BRANCH  33  35
ATOM     34  C   UNL     1       1.291   4.109  17.838  0.00  0.00    +0.000 C 
ATOM     35  C   UNL     1       1.825   3.589  19.182  0.00  0.00    +0.000 C 
ATOM     36  C   UNL     1       1.181   4.309  20.379  0.00  0.00    +0.000 C 
ATOM     37  C   UNL     1       1.447   2.101  19.288  0.00  0.00    +0.000 C 
ENDBRANCH  33  35
ENDBRANCH  25  33
ENDBRANCH  24  32
ENDBRANCH  23  24
ENDBRANCH  22  23
ENDBRANCH   1  22
TORSDOF 8
ENDMDL
MODEL 6
REMARK VINA RESULT:      -8.5      0.795      1.136
REMARK  Name = 
REMARK  11 active torsions:
REMARK  status: ('A' for Active; 'I' for Inactive)
REMARK    1  A    between atoms: C_1  and  C_2
REMARK    2  A    between atoms: C_2  and  C_3
REMARK    3  A    between atoms: C_2  and  C_4
REMARK    4  A    between atoms: C_2  and  O_5
REMARK    5  A    between atoms: O_5  and  C_6
REMARK    6  A    between atoms: C_13  and  C_14
REMARK    7  A    between atoms: C_14  and  C_15
REMARK    8  A    between atoms: C_15  and  O_16
REMARK    9  A    between atoms: O_16  and  C_17
REMARK   10  A    between atoms: C_20  and  C_21
REMARK   11  A    between atoms: C_25  and  C_26
REMARK                            x       y       z     vdW  Elec       q    Type
REMARK                         _______ _______ _______ _____ _____    ______ ____
ROOT
ATOM      1  C   UNL     1       2.295   8.210  18.278  0.00  0.00    +0.000 A 
ATOM      2  C   UNL     1       1.665   9.314  17.708  0.00  0.00    +0.000 A 
ATOM      3  C   UNL     1       0.786  10.085  18.462  0.00  0.00    +0.000 A 
ATOM      4  C   UNL     1       0.513   9.783  19.802  0.00  0.00    +0.000 A 
ATOM      5  C   UNL     1       1.132   8.663  20.369  0.00  0.00    +0.000 A 
ATOM      6  C   UNL     1       2.018   7.883  19.608  0.00  0.00    +0.000 A 
ENDROOT
BRANCH   4   7
ATOM      7  C   UNL     1      -0.351  10.709  20.536  0.00  0.00    +0.000 A 
ATOM      8  N   UNL     1      -0.597  10.621  21.831  0.00  0.00    +0.000 NA
ATOM      9  C   UNL     1      -1.599  11.506  22.092  0.00  0.00    +0.000 A 
ATOM     10  C   UNL     1      -2.282  11.722  23.292  0.00  0.00    +0.000 A 
ATOM     11  C   UNL     1      -3.322  12.659  23.300  0.00  0.00    +0.000 A 
ATOM     12  C   UNL     1      -3.670  13.351  22.128  0.00  0.00    +0.000 A 
ATOM     13  C   UNL     1      -2.973  13.158  20.924  0.00  0.00    +0.000 A 
ATOM     14  C   UNL     1      -1.941  12.218  20.952  0.00  0.00    +0.000 A 
ATOM     15  N   UNL     1      -1.086  11.738  19.990  0.00  0.00    +0.000 N 
ATOM     16  H   UNL     1      -1.066  12.026  19.024  0.00  0.00    +0.000 HD
BRANCH  11  17
ATOM     17  C   UNL     1      -4.100  12.906  24.538  0.00  0.00    +0.000 C 
ATOM     18  N   UNL     1      -3.838  14.061  25.222  0.00  0.00    +0.000 N 
ATOM     19  O   UNL     1      -4.962  12.125  24.922  0.00  0.00    +0.000 OA
ATOM     20  H   UNL     1      -3.287  14.817  24.837  0.00  0.00    +0.000 HD
ATOM     21  H   UNL     1      -4.420  14.260  26.025  0.00  0.00    +0.000 HD
ENDBRANCH  11  17
ENDBRANCH   4   7
BRANCH   1  22
ATOM     22  O   UNL     1       3.189   7.398  17.627  0.00  0.00    +0.000 OA
BRANCH  22  23
ATOM     23  C   UNL     1       4.370   7.090  18.377  0.00  0.00    +0.000 C 
BRANCH  23  24
ATOM     24  C   UNL     1       5.423   6.489  17.459  0.00  0.00    +0.000 C 
BRANCH  24  32
ATOM     25  C   UNL     1       3.934   3.144  17.685  0.00  0.00    +0.000 C 
ATOM     26  O   UNL     1       3.388   2.246  17.050  0.00  0.00    +0.000 OA
ATOM     27  N   UNL     1       4.725   4.107  17.071  0.00  0.00    +0.000 N 
ATOM     28  C   UNL     1       4.871   4.048  15.618  0.00  0.00    +0.000 C 
ATOM     29  C   UNL     1       6.287   3.646  15.225  0.00  0.00    +0.000 C 
ATOM     30  C   UNL     1       7.332   4.524  15.913  0.00  0.00    +0.000 C 
ATOM     31  C   UNL     1       7.100   4.576  17.427  0.00  0.00    +0.000 C 
ATOM     32  C   UNL     1       5.660   4.998  17.782  0.00  0.00    +0.000 C 
BRANCH  25  33
ATOM     33  O   UNL     1       3.792   3.305  19.033  0.00  0.00    +0.000 OA
BRANCH  33  35
ATOM     34  C   UNL     1       1.785   2.359  20.113  0.00  0.00    +0.000 C 
ATOM     35  C   UNL     1       2.471   3.621  19.566  0.00  0.00    +0.000 C 
ATOM     36  C   UNL     1       1.597   4.355  18.536  0.00  0.00    +0.000 C 
ATOM     37  C   UNL     1       2.687   4.582  20.748  0.00  0.00    +0.000 C 
ENDBRANCH  33  35
ENDBRANCH  25  33
ENDBRANCH  24  32
ENDBRANCH  23  24
ENDBRANCH  22  23
ENDBRANCH   1  22
TORSDOF 8
ENDMDL
MODEL 7
REMARK VINA RESULT:      -8.5      1.506      2.040
REMARK  Name = 
REMARK  11 active torsions:
REMARK  status: ('A' for Active; 'I' for Inactive)
REMARK    1  A    between atoms: C_1  and  C_2
REMARK    2  A    between atoms: C_2  and  C_3
REMARK    3  A    between atoms: C_2  and  C_4
REMARK    4  A    between atoms: C_2  and  O_5
REMARK    5  A    between atoms: O_5  and  C_6
REMARK    6  A    between atoms: C_13  and  C_14
REMARK    7  A    between atoms: C_14  and  C_15
REMARK    8  A    between atoms: C_15  and  O_16
REMARK    9  A    between atoms: O_16  and  C_17
REMARK   10  A    between atoms: C_20  and  C_21
REMARK   11  A    between atoms: C_25  and  C_26
REMARK                            x       y       z     vdW  Elec       q    Type
REMARK                         _______ _______ _______ _____ _____    ______ ____
ROOT
ATOM      1  C   UNL     1       1.894   8.052  19.778  0.00  0.00    +0.000 A 
ATOM      2  C   UNL     1       1.444   9.183  19.103  0.00  0.00    +0.000 A 
ATOM      3  C   UNL     1       0.735  10.169  19.783  0.00  0.00    +0.000 A 
ATOM      4  C   UNL     1       0.459  10.058  21.152  0.00  0.00    +0.000 A 
ATOM      5  C   UNL     1       0.896   8.912  21.826  0.00  0.00    +0.000 A 
ATOM      6  C   UNL     1       1.609   7.916  21.139  0.00  0.00    +0.000 A 
ENDROOT
BRANCH   4   7
ATOM      7  C   UNL     1      -0.210  11.190  21.796  0.00  0.00    +0.000 A 
ATOM      8  N   UNL     1      -1.301  11.082  22.532  0.00  0.00    +0.000 NA
ATOM      9  C   UNL     1      -1.735  12.353  22.764  0.00  0.00    +0.000 A 
ATOM     10  C   UNL     1      -2.900  12.773  23.410  0.00  0.00    +0.000 A 
ATOM     11  C   UNL     1      -3.158  14.147  23.479  0.00  0.00    +0.000 A 
ATOM     12  C   UNL     1      -2.270  15.070  22.903  0.00  0.00    +0.000 A 
ATOM     13  C   UNL     1      -1.085  14.658  22.273  0.00  0.00    +0.000 A 
ATOM     14  C   UNL     1      -0.858  13.282  22.224  0.00  0.00    +0.000 A 
ATOM     15  N   UNL     1       0.140  12.517  21.671  0.00  0.00    +0.000 N 
ATOM     16  H   UNL     1       0.944  12.868  21.174  0.00  0.00    +0.000 HD
BRANCH  11  17
ATOM     17  C   UNL     1      -4.395  14.646  24.126  0.00  0.00    +0.000 C 
ATOM     18  N   UNL     1      -4.271  15.709  24.977  0.00  0.00    +0.000 N 
ATOM     19  O   UNL     1      -5.490  14.149  23.891  0.00  0.00    +0.000 OA
ATOM     20  H   UNL     1      -3.430  16.268  25.042  0.00  0.00    +0.000 HD
ATOM     21  H   UNL     1      -5.125  16.093  25.361  0.00  0.00    +0.000 HD
ENDBRANCH  11  17
ENDBRANCH   4   7
BRANCH   1  22
ATOM     22  O   UNL     1       2.614   7.034  19.205  0.00  0.00    +0.000 OA
BRANCH  22  23
ATOM     23  C   UNL     1       2.896   7.214  17.812  0.00  0.00    +0.000 C 
BRANCH  23  24
ATOM     24  C   UNL     1       4.371   6.961  17.546  0.00  0.00    +0.000 C 
BRANCH  24  32
ATOM     25  C   UNL     1       3.968   3.361  18.121  0.00  0.00    +0.000 C 
ATOM     26  O   UNL     1       4.024   2.251  17.599  0.00  0.00    +0.000 OA
ATOM     27  N   UNL     1       4.625   4.462  17.588  0.00  0.00    +0.000 N 
ATOM     28  C   UNL     1       5.376   4.277  16.348  0.00  0.00    +0.000 C 
ATOM     29  C   UNL     1       6.876   4.385  16.593  0.00  0.00    +0.000 C 
ATOM     30  C   UNL     1       7.233   5.669  17.342  0.00  0.00    +0.000 C 
ATOM     31  C   UNL     1       6.383   5.824  18.608  0.00  0.00    +0.000 C 
ATOM     32  C   UNL     1       4.873   5.720  18.315  0.00  0.00    +0.000 C 
BRANCH  25  33
ATOM     33  O   UNL     1       3.234   3.629  19.240  0.00  0.00    +0.000 OA
BRANCH  33  35
ATOM     34  C   UNL     1       1.267   4.090  17.824  0.00  0.00    +0.000 C 
ATOM     35  C   UNL     1       1.780   3.541  19.164  0.00  0.00    +0.000 C 
ATOM     36  C   UNL     1       1.101   4.221  20.366  0.00  0.00    +0.000 C 
ATOM     37  C   UNL     1       1.420   2.047  19.223  0.00  0.00    +0.000 C 
ENDBRANCH  33  35
ENDBRANCH  25  33
ENDBRANCH  24  32
ENDBRANCH  23  24
ENDBRANCH  22  23
ENDBRANCH   1  22
TORSDOF 8
ENDMDL
MODEL 8
REMARK VINA RESULT:      -8.5      1.056      1.166
REMARK  Name = 
REMARK  11 active torsions:
REMARK  status: ('A' for Active; 'I' for Inactive)
REMARK    1  A    between atoms: C_1  and  C_2
REMARK    2  A    between atoms: C_2  and  C_3
REMARK    3  A    between atoms: C_2  and  C_4
REMARK    4  A    between atoms: C_2  and  O_5
REMARK    5  A    between atoms: O_5  and  C_6
REMARK    6  A    between atoms: C_13  and  C_14
REMARK    7  A    between atoms: C_14  and  C_15
REMARK    8  A    between atoms: C_15  and  O_16
REMARK    9  A    between atoms: O_16  and  C_17
REMARK   10  A    between atoms: C_20  and  C_21
REMARK   11  A    between atoms: C_25  and  C_26
REMARK                            x       y       z     vdW  Elec       q    Type
REMARK                         _______ _______ _______ _____ _____    ______ ____
ROOT
ATOM      1  C   UNL     1       1.878   8.361  19.180  0.00  0.00    +0.000 A 
ATOM      2  C   UNL     1       1.354   8.357  20.470  0.00  0.00    +0.000 A 
ATOM      3  C   UNL     1       0.436   9.330  20.856  0.00  0.00    +0.000 A 
ATOM      4  C   UNL     1       0.013  10.329  19.970  0.00  0.00    +0.000 A 
ATOM      5  C   UNL     1       0.555  10.344  18.680  0.00  0.00    +0.000 A 
ATOM      6  C   UNL     1       1.482   9.363  18.290  0.00  0.00    +0.000 A 
ENDROOT
BRANCH   4   7
ATOM      7  C   UNL     1      -1.024  11.249  20.442  0.00  0.00    +0.000 A 
ATOM      8  N   UNL     1      -1.236  11.534  21.714  0.00  0.00    +0.000 NA
ATOM      9  C   UNL     1      -2.401  12.237  21.760  0.00  0.00    +0.000 A 
ATOM     10  C   UNL     1      -3.106  12.686  22.880  0.00  0.00    +0.000 A 
ATOM     11  C   UNL     1      -4.322  13.348  22.673  0.00  0.00    +0.000 A 
ATOM     12  C   UNL     1      -4.817  13.542  21.373  0.00  0.00    +0.000 A 
ATOM     13  C   UNL     1      -4.105  13.116  20.241  0.00  0.00    +0.000 A 
ATOM     14  C   UNL     1      -2.896  12.462  20.483  0.00  0.00    +0.000 A 
ATOM     15  N   UNL     1      -1.964  11.879  19.658  0.00  0.00    +0.000 N 
ATOM     16  H   UNL     1      -2.014  11.840  18.652  0.00  0.00    +0.000 HD
BRANCH  11  17
ATOM     17  C   UNL     1      -5.125  13.819  23.827  0.00  0.00    +0.000 C 
ATOM     18  N   UNL     1      -5.630  12.867  24.669  0.00  0.00    +0.000 N 
ATOM     19  O   UNL     1      -5.310  15.012  24.039  0.00  0.00    +0.000 OA
ATOM     20  H   UNL     1      -5.337  11.899  24.645  0.00  0.00    +0.000 HD
ATOM     21  H   UNL     1      -6.116  13.194  25.493  0.00  0.00    +0.000 HD
ENDBRANCH  11  17
ENDBRANCH   4   7
BRANCH   1  22
ATOM     22  O   UNL     1       2.771   7.439  18.696  0.00  0.00    +0.000 OA
BRANCH  22  23
ATOM     23  C   UNL     1       3.631   7.928  17.661  0.00  0.00    +0.000 C 
BRANCH  23  24
ATOM     24  C   UNL     1       4.237   6.761  16.897  0.00  0.00    +0.000 C 
BRANCH  24  32
ATOM     25  C   UNL     1       4.017   3.296  18.081  0.00  0.00    +0.000 C 
ATOM     26  O   UNL     1       4.129   2.117  17.756  0.00  0.00    +0.000 OA
ATOM     27  N   UNL     1       4.617   4.321  17.361  0.00  0.00    +0.000 N 
ATOM     28  C   UNL     1       5.374   3.964  16.163  0.00  0.00    +0.000 C 
ATOM     29  C   UNL     1       6.867   4.187  16.370  0.00  0.00    +0.000 C 
ATOM     30  C   UNL     1       7.159   5.596  16.885  0.00  0.00    +0.000 C 
ATOM     31  C   UNL     1       6.306   5.923  18.116  0.00  0.00    +0.000 C 
ATOM     32  C   UNL     1       4.802   5.696  17.861  0.00  0.00    +0.000 C 
BRANCH  25  33
ATOM     33  O   UNL     1       3.273   3.714  19.146  0.00  0.00    +0.000 OA
BRANCH  33  35
ATOM     34  C   UNL     1       1.256   2.294  19.175  0.00  0.00    +0.000 C 
ATOM     35  C   UNL     1       1.819   3.716  19.030  0.00  0.00    +0.000 C 
ATOM     36  C   UNL     1       1.349   4.396  17.732  0.00  0.00    +0.000 C 
ATOM     37  C   UNL     1       1.280   4.552  20.203  0.00  0.00    +0.000 C 
ENDBRANCH  33  35
ENDBRANCH  25  33
ENDBRANCH  24  32
ENDBRANCH  23  24
ENDBRANCH  22  23
ENDBRANCH   1  22
TORSDOF 8
ENDMDL
MODEL 9
REMARK VINA RESULT:      -8.4      2.714     11.662
REMARK  Name = 
REMARK  11 active torsions:
REMARK  status: ('A' for Active; 'I' for Inactive)
REMARK    1  A    between atoms: C_1  and  C_2
REMARK    2  A    between atoms: C_2  and  C_3
REMARK    3  A    between atoms: C_2  and  C_4
REMARK    4  A    between atoms: C_2  and  O_5
REMARK    5  A    between atoms: O_5  and  C_6
REMARK    6  A    between atoms: C_13  and  C_14
REMARK    7  A    between atoms: C_14  and  C_15
REMARK    8  A    between atoms: C_15  and  O_16
REMARK    9  A    between atoms: O_16  and  C_17
REMARK   10  A    between atoms: C_20  and  C_21
REMARK   11  A    between atoms: C_25  and  C_26
REMARK                            x       y       z     vdW  Elec       q    Type
REMARK                         _______ _______ _______ _____ _____    ______ ____
ROOT
ATOM      1  C   UNL     1       0.061   9.985  20.239  0.00  0.00    +0.000 A 
ATOM      2  C   UNL     1       0.633   8.924  20.938  0.00  0.00    +0.000 A 
ATOM      3  C   UNL     1       1.499   8.046  20.294  0.00  0.00    +0.000 A 
ATOM      4  C   UNL     1       1.824   8.201  18.939  0.00  0.00    +0.000 A 
ATOM      5  C   UNL     1       1.234   9.255  18.233  0.00  0.00    +0.000 A 
ATOM      6  C   UNL     1       0.359  10.140  18.882  0.00  0.00    +0.000 A 
ENDROOT
BRANCH   4   7
ATOM      7  C   UNL     1       2.816   7.283  18.378  0.00  0.00    +0.000 A 
ATOM      8  N   UNL     1       3.688   7.619  17.444  0.00  0.00    +0.000 NA
ATOM      9  C   UNL     1       4.276   6.461  17.034  0.00  0.00    +0.000 A 
ATOM     10  C   UNL     1       5.196   6.267  16.000  0.00  0.00    +0.000 A 
ATOM     11  C   UNL     1       5.621   4.961  15.730  0.00  0.00    +0.000 A 
ATOM     12  C   UNL     1       5.123   3.880  16.476  0.00  0.00    +0.000 A 
ATOM     13  C   UNL     1       4.218   4.067  17.532  0.00  0.00    +0.000 A 
ATOM     14  C   UNL     1       3.817   5.382  17.775  0.00  0.00    +0.000 A 
ATOM     15  N   UNL     1       2.937   5.942  18.670  0.00  0.00    +0.000 N 
ATOM     16  H   UNL     1       2.400   5.440  19.359  0.00  0.00    +0.000 HD
BRANCH  11  17
ATOM     17  C   UNL     1       6.572   4.695  14.625  0.00  0.00    +0.000 C 
ATOM     18  N   UNL     1       7.711   5.450  14.583  0.00  0.00    +0.000 N 
ATOM     19  O   UNL     1       6.366   3.817  13.795  0.00  0.00    +0.000 OA
ATOM     20  H   UNL     1       8.012   6.037  15.351  0.00  0.00    +0.000 HD
ATOM     21  H   UNL     1       8.391   5.218  13.871  0.00  0.00    +0.000 HD
ENDBRANCH  11  17
ENDBRANCH   4   7
BRANCH   1  22
ATOM     22  O   UNL     1      -0.788  10.913  20.785  0.00  0.00    +0.000 OA
BRANCH  22  23
ATOM     23  C   UNL     1      -0.345  11.469  22.028  0.00  0.00    +0.000 C 
BRANCH  23  24
ATOM     24  C   UNL     1      -1.535  11.696  22.947  0.00  0.00    +0.000 C 
BRANCH  24  32
ATOM     25  C   UNL     1      -4.998  12.902  22.862  0.00  0.00    +0.000 C 
ATOM     26  O   UNL     1      -5.897  13.411  23.524  0.00  0.00    +0.000 OA
ATOM     27  N   UNL     1      -3.662  13.002  23.230  0.00  0.00    +0.000 N 
ATOM     28  C   UNL     1      -3.344  13.713  24.467  0.00  0.00    +0.000 C 
ATOM     29  C   UNL     1      -2.632  15.028  24.176  0.00  0.00    +0.000 C 
ATOM     30  C   UNL     1      -1.429  14.825  23.256  0.00  0.00    +0.000 C 
ATOM     31  C   UNL     1      -1.819  14.039  21.999  0.00  0.00    +0.000 C 
ATOM     32  C   UNL     1      -2.526  12.711  22.337  0.00  0.00    +0.000 C 
BRANCH  25  33
ATOM     33  O   UNL     1      -5.219  12.167  21.733  0.00  0.00    +0.000 OA
BRANCH  33  35
ATOM     34  C   UNL     1      -4.737  12.291  19.317  0.00  0.00    +0.000 C 
ATOM     35  C   UNL     1      -5.543  12.863  20.493  0.00  0.00    +0.000 C 
ATOM     36  C   UNL     1      -5.370  14.386  20.628  0.00  0.00    +0.000 C 
ATOM     37  C   UNL     1      -7.032  12.598  20.209  0.00  0.00    +0.000 C 
ENDBRANCH  33  35
ENDBRANCH  25  33
ENDBRANCH  24  32
ENDBRANCH  23  24
ENDBRANCH  22  23
ENDBRANCH   1  22
TORSDOF 8
ENDMDL
