MODEL 1
REMARK VINA RESULT:      -7.9      0.000      0.000
REMARK  Name = 
REMARK  4 active torsions:
REMARK  status: ('A' for Active; 'I' for Inactive)
REMARK    1  A    between atoms: C_1  and  S_2
REMARK    2  A    between atoms: S_2  and  C_3
REMARK    3  A    between atoms: C_6  and  C_7
REMARK    4  A    between atoms: C_15  and  C_16
REMARK                            x       y       z     vdW  Elec       q    Type
REMARK                         _______ _______ _______ _____ _____    ______ ____
ROOT
ATOM      1  C   UNL     1       2.711   6.985  17.767  0.00  0.00    +0.000 C 
ATOM      2  C   UNL     1       4.270   7.245  17.766  0.00  0.00    +0.000 C 
ATOM      3  N   UNL     1       4.999   5.997  17.798  0.00  0.00    +0.000 NA
ATOM      4  C   UNL     1       6.433   6.045  17.640  0.00  0.00    +0.000 C 
ATOM      5  C   UNL     1       6.742   4.574  17.854  0.00  0.00    +0.000 C 
ATOM      6  C   UNL     1       5.695   4.101  18.884  0.00  0.00    +0.000 C 
ATOM      7  C   UNL     1       4.722   5.278  19.062  0.00  0.00    +0.000 C 
ATOM      8  C   UNL     1       3.246   4.946  19.119  0.00  0.00    +0.000 A 
ATOM      9  C   UNL     1       2.654   4.026  19.974  0.00  0.00    +0.000 A 
ATOM     10  C   UNL     1       2.607   4.347  21.454  0.00  0.00    +0.000 C 
ATOM     11  C   UNL     1       1.660   3.198  19.454  0.00  0.00    +0.000 A 
ATOM     12  C   UNL     1       1.124   3.488  18.200  0.00  0.00    +0.000 A 
ATOM     13  C   UNL     1       1.423   4.717  17.603  0.00  0.00    +0.000 A 
ATOM     14  C   UNL     1       2.426   5.523  18.145  0.00  0.00    +0.000 A 
ENDROOT
BRANCH   1  18
ATOM     15  C   UNL     1       0.509   9.715  20.421  0.00  0.00    +0.000 A 
ATOM     16  C   UNL     1       1.105   8.575  20.910  0.00  0.00    +0.000 A 
ATOM     17  C   UNL     1       1.887   7.754  20.074  0.00  0.00    +0.000 A 
ATOM     18  C   UNL     1       2.034   8.024  18.702  0.00  0.00    +0.000 A 
ATOM     19  C   UNL     1       1.481   9.228  18.233  0.00  0.00    +0.000 A 
ATOM     20  C   UNL     1       0.713  10.054  19.084  0.00  0.00    +0.000 A 
BRANCH  15  22
ATOM     21  C   UNL     1      -0.442   9.951  23.029  0.00  0.00    +0.000 C 
ATOM     22  S   UNL     1      -0.615  10.708  21.391  0.00  0.00    +0.000 S 
ENDBRANCH  15  22
ENDBRANCH   1  18
TORSDOF 2
ENDMDL
MODEL 2
REMARK VINA RESULT:      -7.8      0.323      1.067
REMARK  Name = 
REMARK  4 active torsions:
REMARK  status: ('A' for Active; 'I' for Inactive)
REMARK    1  A    between atoms: C_1  and  S_2
REMARK    2  A    between atoms: S_2  and  C_3
REMARK    3  A    between atoms: C_6  and  C_7
REMARK    4  A    between atoms: C_15  and  C_16
REMARK                            x       y       z     vdW  Elec       q    Type
REMARK                         _______ _______ _______ _____ _____    ______ ____
ROOT
ATOM      1  C   UNL     1       2.651   6.908  17.743  0.00  0.00    +0.000 C 
ATOM      2  C   UNL     1       4.193   7.243  17.809  0.00  0.00    +0.000 C 
ATOM      3  N   UNL     1       4.980   6.033  17.900  0.00  0.00    +0.000 NA
ATOM      4  C   UNL     1       6.415   6.148  17.807  0.00  0.00    +0.000 C 
ATOM      5  C   UNL     1       6.784   4.699  18.066  0.00  0.00    +0.000 C 
ATOM      6  C   UNL     1       5.714   4.195  19.057  0.00  0.00    +0.000 C 
ATOM      7  C   UNL     1       4.679   5.326  19.165  0.00  0.00    +0.000 C 
ATOM      8  C   UNL     1       3.220   4.923  19.161  0.00  0.00    +0.000 A 
ATOM      9  C   UNL     1       2.632   3.991  20.008  0.00  0.00    +0.000 A 
ATOM     10  C   UNL     1       2.501   4.337  21.477  0.00  0.00    +0.000 C 
ATOM     11  C   UNL     1       1.705   3.106  19.460  0.00  0.00    +0.000 A 
ATOM     12  C   UNL     1       1.215   3.346  18.177  0.00  0.00    +0.000 A 
ATOM     13  C   UNL     1       1.482   4.577  17.569  0.00  0.00    +0.000 A 
ATOM     14  C   UNL     1       2.419   5.441  18.139  0.00  0.00    +0.000 A 
ENDROOT
BRANCH   1  18
ATOM     15  C   UNL     1       0.758  10.012  20.219  0.00  0.00    +0.000 A 
ATOM     16  C   UNL     1       0.838  10.144  18.851  0.00  0.00    +0.000 A 
ATOM     17  C   UNL     1       1.361   9.107  18.055  0.00  0.00    +0.000 A 
ATOM     18  C   UNL     1       1.881   7.930  18.624  0.00  0.00    +0.000 A 
ATOM     19  C   UNL     1       1.726   7.779  20.013  0.00  0.00    +0.000 A 
ATOM     20  C   UNL     1       1.184   8.818  20.801  0.00  0.00    +0.000 A 
BRANCH  15  22
ATOM     21  C   UNL     1      -0.511  10.441  22.662  0.00  0.00    +0.000 C 
ATOM     22  S   UNL     1       0.249  11.348  21.289  0.00  0.00    +0.000 S 
ENDBRANCH  15  22
ENDBRANCH   1  18
TORSDOF 2
ENDMDL
MODEL 3
REMARK VINA RESULT:      -7.5      1.947      4.019
REMARK  Name = 
REMARK  4 active torsions:
REMARK  status: ('A' for Active; 'I' for Inactive)
REMARK    1  A    between atoms: C_1  and  S_2
REMARK    2  A    between atoms: S_2  and  C_3
REMARK    3  A    between atoms: C_6  and  C_7
REMARK    4  A    between atoms: C_15  and  C_16
REMARK                            x       y       z     vdW  Elec       q    Type
REMARK                         _______ _______ _______ _____ _____    ______ ____
ROOT
ATOM      1  C   UNL     1       4.167   5.424  18.119  0.00  0.00    +0.000 C 
ATOM      2  C   UNL     1       3.912   5.076  16.599  0.00  0.00    +0.000 C 
ATOM      3  N   UNL     1       5.139   4.673  15.950  0.00  0.00    +0.000 NA
ATOM      4  C   UNL     1       5.059   4.166  14.602  0.00  0.00    +0.000 C 
ATOM      5  C   UNL     1       6.543   3.999  14.325  0.00  0.00    +0.000 C 
ATOM      6  C   UNL     1       7.217   5.147  15.104  0.00  0.00    +0.000 C 
ATOM      7  C   UNL     1       6.102   5.797  15.939  0.00  0.00    +0.000 C 
ATOM      8  C   UNL     1       6.440   6.162  17.369  0.00  0.00    +0.000 A 
ATOM      9  C   UNL     1       7.516   6.941  17.775  0.00  0.00    +0.000 A 
ATOM     10  C   UNL     1       7.505   8.417  17.434  0.00  0.00    +0.000 C 
ATOM     11  C   UNL     1       8.220   6.538  18.909  0.00  0.00    +0.000 A 
ATOM     12  C   UNL     1       7.679   5.547  19.726  0.00  0.00    +0.000 A 
ATOM     13  C   UNL     1       6.354   5.149  19.523  0.00  0.00    +0.000 A 
ATOM     14  C   UNL     1       5.676   5.565  18.376  0.00  0.00    +0.000 A 
ENDROOT
BRANCH   1  18
ATOM     15  C   UNL     1       1.537   8.811  19.096  0.00  0.00    +0.000 A 
ATOM     16  C   UNL     1       1.749   7.793  19.998  0.00  0.00    +0.000 A 
ATOM     17  C   UNL     1       2.663   6.759  19.716  0.00  0.00    +0.000 A 
ATOM     18  C   UNL     1       3.342   6.687  18.486  0.00  0.00    +0.000 A 
ATOM     19  C   UNL     1       3.171   7.771  17.608  0.00  0.00    +0.000 A 
ATOM     20  C   UNL     1       2.265   8.812  17.907  0.00  0.00    +0.000 A 
BRANCH  15  22
ATOM     21  C   UNL     1      -0.138   9.826  21.077  0.00  0.00    +0.000 C 
ATOM     22  S   UNL     1       0.282  10.061  19.330  0.00  0.00    +0.000 S 
ENDBRANCH  15  22
ENDBRANCH   1  18
TORSDOF 2
ENDMDL
MODEL 4
REMARK VINA RESULT:      -7.4      1.971      4.243
REMARK  Name = 
REMARK  4 active torsions:
REMARK  status: ('A' for Active; 'I' for Inactive)
REMARK    1  A    between atoms: C_1  and  S_2
REMARK    2  A    between atoms: S_2  and  C_3
REMARK    3  A    between atoms: C_6  and  C_7
REMARK    4  A    between atoms: C_15  and  C_16
REMARK                            x       y       z     vdW  Elec       q    Type
REMARK                         _______ _______ _______ _____ _____    ______ ____
ROOT
ATOM      1  C   UNL     1       4.335   4.950  18.150  0.00  0.00    +0.000 C 
ATOM      2  C   UNL     1       4.048   4.600  16.636  0.00  0.00    +0.000 C 
ATOM      3  N   UNL     1       5.283   4.433  15.903  0.00  0.00    +0.000 NA
ATOM      4  C   UNL     1       5.207   3.952  14.545  0.00  0.00    +0.000 C 
ATOM      5  C   UNL     1       6.676   4.054  14.177  0.00  0.00    +0.000 C 
ATOM      6  C   UNL     1       7.189   5.284  14.954  0.00  0.00    +0.000 C 
ATOM      7  C   UNL     1       6.033   5.709  15.875  0.00  0.00    +0.000 C 
ATOM      8  C   UNL     1       6.393   6.093  17.294  0.00  0.00    +0.000 A 
ATOM      9  C   UNL     1       7.341   7.038  17.664  0.00  0.00    +0.000 A 
ATOM     10  C   UNL     1       7.053   8.497  17.375  0.00  0.00    +0.000 C 
ATOM     11  C   UNL     1       8.175   6.738  18.740  0.00  0.00    +0.000 A 
ATOM     12  C   UNL     1       7.867   5.648  19.553  0.00  0.00    +0.000 A 
ATOM     13  C   UNL     1       6.621   5.029  19.413  0.00  0.00    +0.000 A 
ATOM     14  C   UNL     1       5.809   5.347  18.323  0.00  0.00    +0.000 A 
ENDROOT
BRANCH   1  18
ATOM     15  C   UNL     1       1.763   8.243  19.524  0.00  0.00    +0.000 A 
ATOM     16  C   UNL     1       2.356   8.275  18.282  0.00  0.00    +0.000 A 
ATOM     17  C   UNL     1       3.103   7.177  17.811  0.00  0.00    +0.000 A 
ATOM     18  C   UNL     1       3.328   6.040  18.608  0.00  0.00    +0.000 A 
ATOM     19  C   UNL     1       2.657   5.992  19.841  0.00  0.00    +0.000 A 
ATOM     20  C   UNL     1       1.896   7.091  20.298  0.00  0.00    +0.000 A 
BRANCH  15  22
ATOM     21  C   UNL     1       1.098   9.316  22.008  0.00  0.00    +0.000 C 
ATOM     22  S   UNL     1       0.937   9.658  20.235  0.00  0.00    +0.000 S 
ENDBRANCH  15  22
ENDBRANCH   1  18
TORSDOF 2
ENDMDL
MODEL 5
REMARK VINA RESULT:      -7.0      1.703      3.792
REMARK  Name = 
REMARK  4 active torsions:
REMARK  status: ('A' for Active; 'I' for Inactive)
REMARK    1  A    between atoms: C_1  and  S_2
REMARK    2  A    between atoms: S_2  and  C_3
REMARK    3  A    between atoms: C_6  and  C_7
REMARK    4  A    between atoms: C_15  and  C_16
REMARK                            x       y       z     vdW  Elec       q    Type
REMARK                         _______ _______ _______ _____ _____    ______ ____
ROOT
ATOM      1  C   UNL     1       2.993   5.826  19.803  0.00  0.00    +0.000 C 
ATOM      2  C   UNL     1       1.906   4.759  19.385  0.00  0.00    +0.000 C 
ATOM      3  N   UNL     1       2.517   3.642  18.701  0.00  0.00    +0.000 NA
ATOM      4  C   UNL     1       1.691   2.500  18.393  0.00  0.00    +0.000 C 
ATOM      5  C   UNL     1       2.701   1.683  17.608  0.00  0.00    +0.000 C 
ATOM      6  C   UNL     1       3.567   2.730  16.878  0.00  0.00    +0.000 C 
ATOM      7  C   UNL     1       3.128   4.096  17.432  0.00  0.00    +0.000 C 
ATOM      8  C   UNL     1       4.223   5.092  17.748  0.00  0.00    +0.000 A 
ATOM      9  C   UNL     1       5.220   5.508  16.874  0.00  0.00    +0.000 A 
ATOM     10  C   UNL     1       4.824   6.364  15.688  0.00  0.00    +0.000 C 
ATOM     11  C   UNL     1       6.512   5.646  17.377  0.00  0.00    +0.000 A 
ATOM     12  C   UNL     1       6.708   5.619  18.757  0.00  0.00    +0.000 A 
ATOM     13  C   UNL     1       5.595   5.686  19.601  0.00  0.00    +0.000 A 
ATOM     14  C   UNL     1       4.313   5.541  19.069  0.00  0.00    +0.000 A 
ENDROOT
BRANCH   1  18
ATOM     15  C   UNL     1       1.051   9.700  19.051  0.00  0.00    +0.000 A 
ATOM     16  C   UNL     1       1.003   9.111  20.294  0.00  0.00    +0.000 A 
ATOM     17  C   UNL     1       1.705   7.917  20.554  0.00  0.00    +0.000 A 
ATOM     18  C   UNL     1       2.421   7.247  19.545  0.00  0.00    +0.000 A 
ATOM     19  C   UNL     1       2.520   7.898  18.304  0.00  0.00    +0.000 A 
ATOM     20  C   UNL     1       1.827   9.104  18.058  0.00  0.00    +0.000 A 
BRANCH  15  22
ATOM     21  C   UNL     1      -1.406  10.341  17.905  0.00  0.00    +0.000 C 
ATOM     22  S   UNL     1       0.062  11.125  18.621  0.00  0.00    +0.000 S 
ENDBRANCH  15  22
ENDBRANCH   1  18
TORSDOF 2
ENDMDL
MODEL 6
REMARK VINA RESULT:      -6.9      1.810      3.888
REMARK  Name = 
REMARK  4 active torsions:
REMARK  status: ('A' for Active; 'I' for Inactive)
REMARK    1  A    between atoms: C_1  and  S_2
REMARK    2  A    between atoms: S_2  and  C_3
REMARK    3  A    between atoms: C_6  and  C_7
REMARK    4  A    between atoms: C_15  and  C_16
REMARK                            x       y       z     vdW  Elec       q    Type
REMARK                         _______ _______ _______ _____ _____    ______ ____
ROOT
ATOM      1  C   UNL     1       3.377   5.597  19.833  0.00  0.00    +0.000 C 
ATOM      2  C   UNL     1       2.406   4.372  19.607  0.00  0.00    +0.000 C 
ATOM      3  N   UNL     1       3.110   3.260  19.010  0.00  0.00    +0.000 NA
ATOM      4  C   UNL     1       2.412   2.004  18.883  0.00  0.00    +0.000 C 
ATOM      5  C   UNL     1       3.471   1.222  18.127  0.00  0.00    +0.000 C 
ATOM      6  C   UNL     1       4.165   2.269  17.231  0.00  0.00    +0.000 C 
ATOM      7  C   UNL     1       3.595   3.630  17.661  0.00  0.00    +0.000 C 
ATOM      8  C   UNL     1       4.577   4.774  17.794  0.00  0.00    +0.000 A 
ATOM      9  C   UNL     1       5.469   5.197  16.817  0.00  0.00    +0.000 A 
ATOM     10  C   UNL     1       4.912   5.860  15.573  0.00  0.00    +0.000 C 
ATOM     11  C   UNL     1       6.760   5.538  17.217  0.00  0.00    +0.000 A 
ATOM     12  C   UNL     1       7.030   5.694  18.575  0.00  0.00    +0.000 A 
ATOM     13  C   UNL     1       5.963   5.732  19.478  0.00  0.00    +0.000 A 
ATOM     14  C   UNL     1       4.681   5.381  19.050  0.00  0.00    +0.000 A 
ENDROOT
BRANCH   1  18
ATOM     15  C   UNL     1       1.557   9.469  18.812  0.00  0.00    +0.000 A 
ATOM     16  C   UNL     1       2.295   8.765  17.888  0.00  0.00    +0.000 A 
ATOM     17  C   UNL     1       2.797   7.484  18.190  0.00  0.00    +0.000 A 
ATOM     18  C   UNL     1       2.625   6.905  19.460  0.00  0.00    +0.000 A 
ATOM     19  C   UNL     1       1.809   7.602  20.366  0.00  0.00    +0.000 A 
ATOM     20  C   UNL     1       1.295   8.879  20.048  0.00  0.00    +0.000 A 
BRANCH  15  22
ATOM     21  C   UNL     1       1.018  11.804  20.233  0.00  0.00    +0.000 C 
ATOM     22  S   UNL     1       1.027  11.154  18.541  0.00  0.00    +0.000 S 
ENDBRANCH  15  22
ENDBRANCH   1  18
TORSDOF 2
ENDMDL
MODEL 7
REMARK VINA RESULT:      -6.5      1.414      1.873
REMARK  Name = 
REMARK  4 active torsions:
REMARK  status: ('A' for Active; 'I' for Inactive)
REMARK    1  A    between atoms: C_1  and  S_2
REMARK    2  A    between atoms: S_2  and  C_3
REMARK    3  A    between atoms: C_6  and  C_7
REMARK    4  A    between atoms: C_15  and  C_16
REMARK                            x       y       z     vdW  Elec       q    Type
REMARK                         _______ _______ _______ _____ _____    ______ ____
ROOT
ATOM      1  C   UNL     1       3.056   6.168  17.455  0.00  0.00    +0.000 C 
ATOM      2  C   UNL     1       4.480   6.813  17.224  0.00  0.00    +0.000 C 
ATOM      3  N   UNL     1       5.460   5.798  16.908  0.00  0.00    +0.000 NA
ATOM      4  C   UNL     1       6.778   6.228  16.509  0.00  0.00    +0.000 C 
ATOM      5  C   UNL     1       7.447   4.870  16.406  0.00  0.00    +0.000 C 
ATOM      6  C   UNL     1       6.779   4.020  17.506  0.00  0.00    +0.000 C 
ATOM      7  C   UNL     1       5.628   4.879  18.056  0.00  0.00    +0.000 C 
ATOM      8  C   UNL     1       4.312   4.178  18.314  0.00  0.00    +0.000 A 
ATOM      9  C   UNL     1       4.137   3.037  19.088  0.00  0.00    +0.000 A 
ATOM     10  C   UNL     1       4.338   3.146  20.585  0.00  0.00    +0.000 C 
ATOM     11  C   UNL     1       3.266   2.056  18.615  0.00  0.00    +0.000 A 
ATOM     12  C   UNL     1       2.423   2.356  17.547  0.00  0.00    +0.000 A 
ATOM     13  C   UNL     1       2.305   3.686  17.130  0.00  0.00    +0.000 A 
ATOM     14  C   UNL     1       3.194   4.646  17.617  0.00  0.00    +0.000 A 
ENDROOT
BRANCH   1  18
ATOM     15  C   UNL     1       1.446   8.341  20.924  0.00  0.00    +0.000 A 
ATOM     16  C   UNL     1       1.555   8.948  19.693  0.00  0.00    +0.000 A 
ATOM     17  C   UNL     1       1.983   8.220  18.565  0.00  0.00    +0.000 A 
ATOM     18  C   UNL     1       2.380   6.874  18.662  0.00  0.00    +0.000 A 
ATOM     19  C   UNL     1       2.194   6.250  19.907  0.00  0.00    +0.000 A 
ATOM     20  C   UNL     1       1.747   6.984  21.028  0.00  0.00    +0.000 A 
BRANCH  15  22
ATOM     21  C   UNL     1      -0.753   9.169  22.419  0.00  0.00    +0.000 C 
ATOM     22  S   UNL     1       1.057   9.247  22.414  0.00  0.00    +0.000 S 
ENDBRANCH  15  22
ENDBRANCH   1  18
TORSDOF 2
ENDMDL
MODEL 8
REMARK VINA RESULT:      -6.3      5.937      8.105
REMARK  Name = 
REMARK  4 active torsions:
REMARK  status: ('A' for Active; 'I' for Inactive)
REMARK    1  A    between atoms: C_1  and  S_2
REMARK    2  A    between atoms: S_2  and  C_3
REMARK    3  A    between atoms: C_6  and  C_7
REMARK    4  A    between atoms: C_15  and  C_16
REMARK                            x       y       z     vdW  Elec       q    Type
REMARK                         _______ _______ _______ _____ _____    ______ ____
ROOT
ATOM      1  C   UNL     1      -1.114  11.548  18.715  0.00  0.00    +0.000 C 
ATOM      2  C   UNL     1      -0.490  12.963  18.392  0.00  0.00    +0.000 C 
ATOM      3  N   UNL     1       0.573  13.281  19.319  0.00  0.00    +0.000 NA
ATOM      4  C   UNL     1       1.359  14.465  19.070  0.00  0.00    +0.000 C 
ATOM      5  C   UNL     1       2.223  14.439  20.318  0.00  0.00    +0.000 C 
ATOM      6  C   UNL     1       1.310  13.853  21.414  0.00  0.00    +0.000 C 
ATOM      7  C   UNL     1       0.032  13.395  20.693  0.00  0.00    +0.000 C 
ATOM      8  C   UNL     1      -0.545  12.057  21.101  0.00  0.00    +0.000 A 
ATOM      9  C   UNL     1      -0.862  11.671  22.397  0.00  0.00    +0.000 A 
ATOM     10  C   UNL     1      -2.030  12.349  23.084  0.00  0.00    +0.000 C 
ATOM     11  C   UNL     1      -0.540  10.371  22.787  0.00  0.00    +0.000 A 
ATOM     12  C   UNL     1      -0.162   9.446  21.816  0.00  0.00    +0.000 A 
ATOM     13  C   UNL     1      -0.337   9.771  20.466  0.00  0.00    +0.000 A 
ATOM     14  C   UNL     1      -0.655  11.081  20.106  0.00  0.00    +0.000 A 
ENDROOT
BRANCH   1  18
ATOM     15  C   UNL     1      -5.429  12.077  18.048  0.00  0.00    +0.000 A 
ATOM     16  C   UNL     1      -4.629  11.488  17.094  0.00  0.00    +0.000 A 
ATOM     17  C   UNL     1      -3.267  11.237  17.350  0.00  0.00    +0.000 A 
ATOM     18  C   UNL     1      -2.656  11.635  18.553  0.00  0.00    +0.000 A 
ATOM     19  C   UNL     1      -3.500  12.167  19.543  0.00  0.00    +0.000 A 
ATOM     20  C   UNL     1      -4.869  12.399  19.283  0.00  0.00    +0.000 A 
BRANCH  15  22
ATOM     21  C   UNL     1      -6.884  14.093  16.792  0.00  0.00    +0.000 C 
ATOM     22  S   UNL     1      -7.119  12.558  17.725  0.00  0.00    +0.000 S 
ENDBRANCH  15  22
ENDBRANCH   1  18
TORSDOF 2
ENDMDL
MODEL 9
REMARK VINA RESULT:      -6.3      5.790      7.668
REMARK  Name = 
REMARK  4 active torsions:
REMARK  status: ('A' for Active; 'I' for Inactive)
REMARK    1  A    between atoms: C_1  and  S_2
REMARK    2  A    between atoms: S_2  and  C_3
REMARK    3  A    between atoms: C_6  and  C_7
REMARK    4  A    between atoms: C_15  and  C_16
REMARK                            x       y       z     vdW  Elec       q    Type
REMARK                         _______ _______ _______ _____ _____    ______ ____
ROOT
ATOM      1  C   UNL     1      -1.106  11.335  18.696  0.00  0.00    +0.000 C 
ATOM      2  C   UNL     1      -0.362  12.659  18.261  0.00  0.00    +0.000 C 
ATOM      3  N   UNL     1       0.797  12.895  19.091  0.00  0.00    +0.000 NA
ATOM      4  C   UNL     1       1.683  13.974  18.729  0.00  0.00    +0.000 C 
ATOM      5  C   UNL     1       2.635  13.904  19.909  0.00  0.00    +0.000 C 
ATOM      6  C   UNL     1       1.753  13.465  21.096  0.00  0.00    +0.000 C 
ATOM      7  C   UNL     1       0.381  13.122  20.493  0.00  0.00    +0.000 C 
ATOM      8  C   UNL     1      -0.302  11.872  21.007  0.00  0.00    +0.000 A 
ATOM      9  C   UNL     1      -0.556  11.575  22.340  0.00  0.00    +0.000 A 
ATOM     10  C   UNL     1      -1.587  12.404  23.078  0.00  0.00    +0.000 C 
ATOM     11  C   UNL     1      -0.344  10.265  22.767  0.00  0.00    +0.000 A 
ATOM     12  C   UNL     1      -0.144   9.266  21.816  0.00  0.00    +0.000 A 
ATOM     13  C   UNL     1      -0.388   9.554  20.469  0.00  0.00    +0.000 A 
ATOM     14  C   UNL     1      -0.593  10.876  20.070  0.00  0.00    +0.000 A 
ENDROOT
BRANCH   1  18
ATOM     15  C   UNL     1      -5.476  11.821  18.826  0.00  0.00    +0.000 A 
ATOM     16  C   UNL     1      -4.660  12.481  19.718  0.00  0.00    +0.000 A 
ATOM     17  C   UNL     1      -3.258  12.395  19.613  0.00  0.00    +0.000 A 
ATOM     18  C   UNL     1      -2.638  11.584  18.644  0.00  0.00    +0.000 A 
ATOM     19  C   UNL     1      -3.481  10.976  17.698  0.00  0.00    +0.000 A 
ATOM     20  C   UNL     1      -4.886  11.083  17.801  0.00  0.00    +0.000 A 
BRANCH  15  22
ATOM     21  C   UNL     1      -7.441  10.680  20.438  0.00  0.00    +0.000 C 
ATOM     22  S   UNL     1      -7.253  11.769  19.002  0.00  0.00    +0.000 S 
ENDBRANCH  15  22
ENDBRANCH   1  18
TORSDOF 2
ENDMDL
