MODEL 1
REMARK VINA RESULT:      -9.2      0.000      0.000
REMARK  Name = 
REMARK  5 active torsions:
REMARK  status: ('A' for Active; 'I' for Inactive)
REMARK    1  A    between atoms: C_5  and  C_6
REMARK    2  A    between atoms: C_8  and  C_9
REMARK    3  A    between atoms: C_14  and  C_15
REMARK    4  A    between atoms: N_20  and  C_21
REMARK    5  A    between atoms: C_27  and  O_28
REMARK                            x       y       z     vdW  Elec       q    Type
REMARK                         _______ _______ _______ _____ _____    ______ ____
ROOT
ATOM      1  O   UNL     1       8.043   5.240  14.397  0.00  0.00    +0.000 OA
ATOM      2  C   UNL     1       6.915   4.982  14.798  0.00  0.00    +0.000 A 
ATOM      3  O   UNL     1       6.024   4.194  14.108  0.00  0.00    +0.000 OA
ATOM      4  N   UNL     1       4.841   4.123  14.902  0.00  0.00    +0.000 NA
ATOM      5  C   UNL     1       5.090   4.840  15.952  0.00  0.00    +0.000 A 
ATOM      6  N   UNL     1       6.329   5.381  15.953  0.00  0.00    +0.000 N 
ENDROOT
BRANCH   6   7
ATOM      7  C   UNL     1       7.044   6.009  16.988  0.00  0.00    +0.000 A 
ATOM      8  C   UNL     1       7.316   7.379  16.881  0.00  0.00    +0.000 A 
ATOM      9  C   UNL     1       7.966   8.039  17.922  0.00  0.00    +0.000 A 
ATOM     10 CL   UNL     1       8.215   9.738  17.828  0.00  0.00    +0.000 Cl
ATOM     11  C   UNL     1       8.391   7.338  19.051  0.00  0.00    +0.000 A 
ATOM     12  C   UNL     1       8.144   5.968  19.157  0.00  0.00    +0.000 A 
ATOM     13  C   UNL     1       7.455   5.312  18.135  0.00  0.00    +0.000 A 
BRANCH  13  14
ATOM     14  O   UNL     1       7.201   3.973  18.235  0.00  0.00    +0.000 OA
ATOM     15  H   UNL     1       7.048   3.606  17.346  0.00  0.00    +0.000 HD
ENDBRANCH  13  14
ENDBRANCH   6   7
BRANCH   5  16
ATOM     16  C   UNL     1       4.057   5.119  16.980  0.00  0.00    +0.000 A 
ATOM     17  C   UNL     1       3.459   4.053  17.659  0.00  0.00    +0.000 A 
ATOM     18  C   UNL     1       2.435   4.284  18.597  0.00  0.00    +0.000 A 
ATOM     19  C   UNL     1       2.047   5.606  18.876  0.00  0.00    +0.000 A 
ATOM     20  C   UNL     1       2.616   6.682  18.184  0.00  0.00    +0.000 A 
ATOM     21  C   UNL     1       3.590   6.419  17.213  0.00  0.00    +0.000 A 
BRANCH  18  22
ATOM     22  C   UNL     1       1.728   3.139  19.287  0.00  0.00    +0.000 C 
ATOM     23  F   UNL     1       2.567   2.177  19.756  0.00  0.00    +0.000 F 
ATOM     24  F   UNL     1       0.992   3.553  20.353  0.00  0.00    +0.000 F 
ATOM     25  F   UNL     1       0.857   2.504  18.454  0.00  0.00    +0.000 F 
ENDBRANCH  18  22
BRANCH  20  26
ATOM     26  C   UNL     1       2.210   8.113  18.442  0.00  0.00    +0.000 C 
ATOM     27  F   UNL     1       3.170   9.020  18.121  0.00  0.00    +0.000 F 
ATOM     28  F   UNL     1       1.103   8.466  17.733  0.00  0.00    +0.000 F 
ATOM     29  F   UNL     1       1.901   8.334  19.750  0.00  0.00    +0.000 F 
ENDBRANCH  20  26
ENDBRANCH   5  16
TORSDOF 5
ENDMDL
MODEL 2
REMARK VINA RESULT:      -9.2      0.046      1.019
REMARK  Name = 
REMARK  5 active torsions:
REMARK  status: ('A' for Active; 'I' for Inactive)
REMARK    1  A    between atoms: C_5  and  C_6
REMARK    2  A    between atoms: C_8  and  C_9
REMARK    3  A    between atoms: C_14  and  C_15
REMARK    4  A    between atoms: N_20  and  C_21
REMARK    5  A    between atoms: C_27  and  O_28
REMARK                            x       y       z     vdW  Elec       q    Type
REMARK                         _______ _______ _______ _____ _____    ______ ____
ROOT
ATOM      1  O   UNL     1       8.038   5.221  14.409  0.00  0.00    +0.000 OA
ATOM      2  C   UNL     1       6.907   4.967  14.806  0.00  0.00    +0.000 A 
ATOM      3  O   UNL     1       6.013   4.188  14.112  0.00  0.00    +0.000 OA
ATOM      4  N   UNL     1       4.828   4.121  14.903  0.00  0.00    +0.000 NA
ATOM      5  C   UNL     1       5.079   4.833  15.956  0.00  0.00    +0.000 A 
ATOM      6  N   UNL     1       6.321   5.367  15.961  0.00  0.00    +0.000 N 
ENDROOT
BRANCH   6   7
ATOM      7  C   UNL     1       7.037   5.987  16.999  0.00  0.00    +0.000 A 
ATOM      8  C   UNL     1       7.319   7.356  16.898  0.00  0.00    +0.000 A 
ATOM      9  C   UNL     1       7.970   8.008  17.943  0.00  0.00    +0.000 A 
ATOM     10 CL   UNL     1       8.230   9.705  17.854  0.00  0.00    +0.000 Cl
ATOM     11  C   UNL     1       8.388   7.301  19.070  0.00  0.00    +0.000 A 
ATOM     12  C   UNL     1       8.132   5.932  19.171  0.00  0.00    +0.000 A 
ATOM     13  C   UNL     1       7.441   5.284  18.145  0.00  0.00    +0.000 A 
BRANCH  13  14
ATOM     14  O   UNL     1       7.179   3.945  18.241  0.00  0.00    +0.000 OA
ATOM     15  H   UNL     1       7.521   3.609  19.089  0.00  0.00    +0.000 HD
ENDBRANCH  13  14
ENDBRANCH   6   7
BRANCH   5  16
ATOM     16  C   UNL     1       4.045   5.116  16.982  0.00  0.00    +0.000 A 
ATOM     17  C   UNL     1       3.445   4.051  17.663  0.00  0.00    +0.000 A 
ATOM     18  C   UNL     1       2.421   4.285  18.599  0.00  0.00    +0.000 A 
ATOM     19  C   UNL     1       2.034   5.608  18.876  0.00  0.00    +0.000 A 
ATOM     20  C   UNL     1       2.604   6.682  18.182  0.00  0.00    +0.000 A 
ATOM     21  C   UNL     1       3.579   6.416  17.212  0.00  0.00    +0.000 A 
BRANCH  18  22
ATOM     22  C   UNL     1       1.713   3.142  19.292  0.00  0.00    +0.000 C 
ATOM     23  F   UNL     1       0.893   3.536  20.303  0.00  0.00    +0.000 F 
ATOM     24  F   UNL     1       0.942   2.417  18.438  0.00  0.00    +0.000 F 
ATOM     25  F   UNL     1       2.592   2.260  19.844  0.00  0.00    +0.000 F 
ENDBRANCH  18  22
BRANCH  20  26
ATOM     26  C   UNL     1       2.199   8.114  18.437  0.00  0.00    +0.000 C 
ATOM     27  F   UNL     1       1.105   8.506  17.731  0.00  0.00    +0.000 F 
ATOM     28  F   UNL     1       1.903   8.336  19.747  0.00  0.00    +0.000 F 
ATOM     29  F   UNL     1       3.189   8.994  18.123  0.00  0.00    +0.000 F 
ENDBRANCH  20  26
ENDBRANCH   5  16
TORSDOF 5
ENDMDL
MODEL 3
REMARK VINA RESULT:      -9.1      0.466      3.342
REMARK  Name = 
REMARK  5 active torsions:
REMARK  status: ('A' for Active; 'I' for Inactive)
REMARK    1  A    between atoms: C_5  and  C_6
REMARK    2  A    between atoms: C_8  and  C_9
REMARK    3  A    between atoms: C_14  and  C_15
REMARK    4  A    between atoms: N_20  and  C_21
REMARK    5  A    between atoms: C_27  and  O_28
REMARK                            x       y       z     vdW  Elec       q    Type
REMARK                         _______ _______ _______ _____ _____    ______ ____
ROOT
ATOM      1  O   UNL     1       8.186   5.404  14.230  0.00  0.00    +0.000 OA
ATOM      2  C   UNL     1       7.070   5.050  14.589  0.00  0.00    +0.000 A 
ATOM      3  O   UNL     1       6.245   4.249  13.835  0.00  0.00    +0.000 OA
ATOM      4  N   UNL     1       5.055   4.056  14.597  0.00  0.00    +0.000 NA
ATOM      5  C   UNL     1       5.237   4.723  15.692  0.00  0.00    +0.000 A 
ATOM      6  N   UNL     1       6.437   5.342  15.752  0.00  0.00    +0.000 N 
ENDROOT
BRANCH   6   7
ATOM      7  C   UNL     1       7.089   5.953  16.837  0.00  0.00    +0.000 A 
ATOM      8  C   UNL     1       7.326   7.333  16.789  0.00  0.00    +0.000 A 
ATOM      9  C   UNL     1       7.913   7.973  17.879  0.00  0.00    +0.000 A 
ATOM     10 CL   UNL     1       8.115   9.681  17.853  0.00  0.00    +0.000 Cl
ATOM     11  C   UNL     1       8.310   7.245  19.000  0.00  0.00    +0.000 A 
ATOM     12  C   UNL     1       8.100   5.866  19.048  0.00  0.00    +0.000 A 
ATOM     13  C   UNL     1       7.473   5.227  17.976  0.00  0.00    +0.000 A 
BRANCH  13  14
ATOM     14  O   UNL     1       7.255   3.879  18.020  0.00  0.00    +0.000 OA
ATOM     15  H   UNL     1       7.338   3.568  18.939  0.00  0.00    +0.000 HD
ENDBRANCH  13  14
ENDBRANCH   6   7
BRANCH   5  16
ATOM     16  C   UNL     1       4.168   4.875  16.711  0.00  0.00    +0.000 A 
ATOM     17  C   UNL     1       3.758   6.157  17.090  0.00  0.00    +0.000 A 
ATOM     18  C   UNL     1       2.789   6.332  18.094  0.00  0.00    +0.000 A 
ATOM     19  C   UNL     1       2.203   5.199  18.687  0.00  0.00    +0.000 A 
ATOM     20  C   UNL     1       2.622   3.910  18.338  0.00  0.00    +0.000 A 
ATOM     21  C   UNL     1       3.632   3.766  17.378  0.00  0.00    +0.000 A 
BRANCH  18  22
ATOM     22  C   UNL     1       2.386   7.711  18.567  0.00  0.00    +0.000 C 
ATOM     23  F   UNL     1       3.250   8.694  18.196  0.00  0.00    +0.000 F 
ATOM     24  F   UNL     1       1.165   8.082  18.100  0.00  0.00    +0.000 F 
ATOM     25  F   UNL     1       2.303   7.778  19.926  0.00  0.00    +0.000 F 
ENDBRANCH  18  22
BRANCH  20  26
ATOM     26  C   UNL     1       2.031   2.672  18.967  0.00  0.00    +0.000 C 
ATOM     27  F   UNL     1       0.747   2.428  18.592  0.00  0.00    +0.000 F 
ATOM     28  F   UNL     1       2.736   1.551  18.651  0.00  0.00    +0.000 F 
ATOM     29  F   UNL     1       2.024   2.737  20.326  0.00  0.00    +0.000 F 
ENDBRANCH  20  26
ENDBRANCH   5  16
TORSDOF 5
ENDMDL
MODEL 4
REMARK VINA RESULT:      -8.5      4.191      6.069
REMARK  Name = 
REMARK  5 active torsions:
REMARK  status: ('A' for Active; 'I' for Inactive)
REMARK    1  A    between atoms: C_5  and  C_6
REMARK    2  A    between atoms: C_8  and  C_9
REMARK    3  A    between atoms: C_14  and  C_15
REMARK    4  A    between atoms: N_20  and  C_21
REMARK    5  A    between atoms: C_27  and  O_28
REMARK                            x       y       z     vdW  Elec       q    Type
REMARK                         _______ _______ _______ _____ _____    ______ ____
ROOT
ATOM      1  O   UNL     1       0.648   2.884  19.954  0.00  0.00    +0.000 OA
ATOM      2  C   UNL     1       1.603   2.803  19.191  0.00  0.00    +0.000 A 
ATOM      3  O   UNL     1       1.910   1.672  18.473  0.00  0.00    +0.000 OA
ATOM      4  N   UNL     1       3.069   1.980  17.701  0.00  0.00    +0.000 NA
ATOM      5  C   UNL     1       3.364   3.206  17.999  0.00  0.00    +0.000 A 
ATOM      6  N   UNL     1       2.513   3.762  18.890  0.00  0.00    +0.000 N 
ENDROOT
BRANCH   6   7
ATOM      7  C   UNL     1       2.356   5.104  19.279  0.00  0.00    +0.000 A 
ATOM      8  C   UNL     1       2.354   6.096  18.289  0.00  0.00    +0.000 A 
ATOM      9  C   UNL     1       2.137   7.425  18.643  0.00  0.00    +0.000 A 
ATOM     10 CL   UNL     1       2.041   8.626  17.415  0.00  0.00    +0.000 Cl
ATOM     11  C   UNL     1       1.968   7.787  19.979  0.00  0.00    +0.000 A 
ATOM     12  C   UNL     1       1.991   6.808  20.975  0.00  0.00    +0.000 A 
ATOM     13  C   UNL     1       2.166   5.470  20.621  0.00  0.00    +0.000 A 
BRANCH  13  14
ATOM     14  O   UNL     1       2.180   4.505  21.590  0.00  0.00    +0.000 OA
ATOM     15  H   UNL     1       1.336   4.019  21.574  0.00  0.00    +0.000 HD
ENDBRANCH  13  14
ENDBRANCH   6   7
BRANCH   5  16
ATOM     16  C   UNL     1       4.590   3.869  17.490  0.00  0.00    +0.000 A 
ATOM     17  C   UNL     1       4.832   3.899  16.113  0.00  0.00    +0.000 A 
ATOM     18  C   UNL     1       6.014   4.469  15.605  0.00  0.00    +0.000 A 
ATOM     19  C   UNL     1       6.934   5.049  16.497  0.00  0.00    +0.000 A 
ATOM     20  C   UNL     1       6.719   5.002  17.880  0.00  0.00    +0.000 A 
ATOM     21  C   UNL     1       5.563   4.374  18.361  0.00  0.00    +0.000 A 
BRANCH  18  22
ATOM     22  C   UNL     1       6.326   4.446  14.126  0.00  0.00    +0.000 C 
ATOM     23  F   UNL     1       7.308   5.311  13.758  0.00  0.00    +0.000 F 
ATOM     24  F   UNL     1       6.722   3.217  13.699  0.00  0.00    +0.000 F 
ATOM     25  F   UNL     1       5.238   4.771  13.372  0.00  0.00    +0.000 F 
ENDBRANCH  18  22
BRANCH  20  26
ATOM     26  C   UNL     1       7.694   5.595  18.868  0.00  0.00    +0.000 C 
ATOM     27  F   UNL     1       8.188   6.804  18.490  0.00  0.00    +0.000 F 
ATOM     28  F   UNL     1       7.129   5.784  20.093  0.00  0.00    +0.000 F 
ATOM     29  F   UNL     1       8.773   4.792  19.074  0.00  0.00    +0.000 F 
ENDBRANCH  20  26
ENDBRANCH   5  16
TORSDOF 5
ENDMDL
MODEL 5
REMARK VINA RESULT:      -8.5      4.224      6.103
REMARK  Name = 
REMARK  5 active torsions:
REMARK  status: ('A' for Active; 'I' for Inactive)
REMARK    1  A    between atoms: C_5  and  C_6
REMARK    2  A    between atoms: C_8  and  C_9
REMARK    3  A    between atoms: C_14  and  C_15
REMARK    4  A    between atoms: N_20  and  C_21
REMARK    5  A    between atoms: C_27  and  O_28
REMARK                            x       y       z     vdW  Elec       q    Type
REMARK                         _______ _______ _______ _____ _____    ______ ____
ROOT
ATOM      1  O   UNL     1       0.627   2.965  20.030  0.00  0.00    +0.000 OA
ATOM      2  C   UNL     1       1.577   2.864  19.263  0.00  0.00    +0.000 A 
ATOM      3  O   UNL     1       1.870   1.718  18.561  0.00  0.00    +0.000 OA
ATOM      4  N   UNL     1       3.028   2.004  17.779  0.00  0.00    +0.000 NA
ATOM      5  C   UNL     1       3.335   3.231  18.057  0.00  0.00    +0.000 A 
ATOM      6  N   UNL     1       2.493   3.810  18.943  0.00  0.00    +0.000 N 
ENDROOT
BRANCH   6   7
ATOM      7  C   UNL     1       2.351   5.158  19.311  0.00  0.00    +0.000 A 
ATOM      8  C   UNL     1       2.285   6.128  18.303  0.00  0.00    +0.000 A 
ATOM      9  C   UNL     1       2.079   7.464  18.639  0.00  0.00    +0.000 A 
ATOM     10 CL   UNL     1       1.904   8.637  17.394  0.00  0.00    +0.000 Cl
ATOM     11  C   UNL     1       1.986   7.854  19.975  0.00  0.00    +0.000 A 
ATOM     12  C   UNL     1       2.075   6.898  20.989  0.00  0.00    +0.000 A 
ATOM     13  C   UNL     1       2.237   5.552  20.654  0.00  0.00    +0.000 A 
BRANCH  13  14
ATOM     14  O   UNL     1       2.315   4.609  21.641  0.00  0.00    +0.000 OA
ATOM     15  H   UNL     1       1.479   4.597  22.142  0.00  0.00    +0.000 HD
ENDBRANCH  13  14
ENDBRANCH   6   7
BRANCH   5  16
ATOM     16  C   UNL     1       4.565   3.875  17.532  0.00  0.00    +0.000 A 
ATOM     17  C   UNL     1       4.797   3.886  16.152  0.00  0.00    +0.000 A 
ATOM     18  C   UNL     1       5.982   4.438  15.630  0.00  0.00    +0.000 A 
ATOM     19  C   UNL     1       6.914   5.018  16.508  0.00  0.00    +0.000 A 
ATOM     20  C   UNL     1       6.708   4.990  17.893  0.00  0.00    +0.000 A 
ATOM     21  C   UNL     1       5.549   4.380  18.390  0.00  0.00    +0.000 A 
BRANCH  18  22
ATOM     22  C   UNL     1       6.283   4.394  14.148  0.00  0.00    +0.000 C 
ATOM     23  F   UNL     1       5.220   4.711  13.362  0.00  0.00    +0.000 F 
ATOM     24  F   UNL     1       7.282   5.246  13.798  0.00  0.00    +0.000 F 
ATOM     25  F   UNL     1       6.689   3.156  13.749  0.00  0.00    +0.000 F 
ENDBRANCH  18  22
BRANCH  20  26
ATOM     26  C   UNL     1       7.697   5.584  18.867  0.00  0.00    +0.000 C 
ATOM     27  F   UNL     1       7.193   5.759  20.118  0.00  0.00    +0.000 F 
ATOM     28  F   UNL     1       8.804   4.805  19.011  0.00  0.00    +0.000 F 
ATOM     29  F   UNL     1       8.147   6.804  18.465  0.00  0.00    +0.000 F 
ENDBRANCH  20  26
ENDBRANCH   5  16
TORSDOF 5
ENDMDL
MODEL 6
REMARK VINA RESULT:      -8.4      4.177      6.101
REMARK  Name = 
REMARK  5 active torsions:
REMARK  status: ('A' for Active; 'I' for Inactive)
REMARK    1  A    between atoms: C_5  and  C_6
REMARK    2  A    between atoms: C_8  and  C_9
REMARK    3  A    between atoms: C_14  and  C_15
REMARK    4  A    between atoms: N_20  and  C_21
REMARK    5  A    between atoms: C_27  and  O_28
REMARK                            x       y       z     vdW  Elec       q    Type
REMARK                         _______ _______ _______ _____ _____    ______ ____
ROOT
ATOM      1  O   UNL     1       0.491   3.004  19.827  0.00  0.00    +0.000 OA
ATOM      2  C   UNL     1       1.454   2.868  19.082  0.00  0.00    +0.000 A 
ATOM      3  O   UNL     1       1.710   1.721  18.369  0.00  0.00    +0.000 OA
ATOM      4  N   UNL     1       2.900   1.961  17.621  0.00  0.00    +0.000 NA
ATOM      5  C   UNL     1       3.259   3.167  17.927  0.00  0.00    +0.000 A 
ATOM      6  N   UNL     1       2.424   3.772  18.801  0.00  0.00    +0.000 N 
ENDROOT
BRANCH   6   7
ATOM      7  C   UNL     1       2.338   5.120  19.189  0.00  0.00    +0.000 A 
ATOM      8  C   UNL     1       2.353   6.108  18.196  0.00  0.00    +0.000 A 
ATOM      9  C   UNL     1       2.204   7.448  18.550  0.00  0.00    +0.000 A 
ATOM     10 CL   UNL     1       2.128   8.648  17.320  0.00  0.00    +0.000 Cl
ATOM     11  C   UNL     1       2.089   7.820  19.889  0.00  0.00    +0.000 A 
ATOM     12  C   UNL     1       2.096   6.844  20.888  0.00  0.00    +0.000 A 
ATOM     13  C   UNL     1       2.202   5.498  20.535  0.00  0.00    +0.000 A 
BRANCH  13  14
ATOM     14  O   UNL     1       2.200   4.537  21.506  0.00  0.00    +0.000 OA
ATOM     15  H   UNL     1       2.766   3.794  21.226  0.00  0.00    +0.000 HD
ENDBRANCH  13  14
ENDBRANCH   6   7
BRANCH   5  16
ATOM     16  C   UNL     1       4.532   3.758  17.443  0.00  0.00    +0.000 A 
ATOM     17  C   UNL     1       5.426   4.311  18.366  0.00  0.00    +0.000 A 
ATOM     18  C   UNL     1       6.612   4.930  17.932  0.00  0.00    +0.000 A 
ATOM     19  C   UNL     1       6.913   4.950  16.558  0.00  0.00    +0.000 A 
ATOM     20  C   UNL     1       6.015   4.426  15.621  0.00  0.00    +0.000 A 
ATOM     21  C   UNL     1       4.813   3.870  16.076  0.00  0.00    +0.000 A 
BRANCH  18  22
ATOM     22  C   UNL     1       7.555   5.597  18.909  0.00  0.00    +0.000 C 
ATOM     23  F   UNL     1       7.937   6.848  18.538  0.00  0.00    +0.000 F 
ATOM     24  F   UNL     1       7.014   5.717  20.151  0.00  0.00    +0.000 F 
ATOM     25  F   UNL     1       8.706   4.885  19.070  0.00  0.00    +0.000 F 
ENDBRANCH  18  22
BRANCH  20  26
ATOM     26  C   UNL     1       6.294   4.448  14.137  0.00  0.00    +0.000 C 
ATOM     27  F   UNL     1       7.234   5.359  13.771  0.00  0.00    +0.000 F 
ATOM     28  F   UNL     1       6.737   3.244  13.682  0.00  0.00    +0.000 F 
ATOM     29  F   UNL     1       5.182   4.737  13.408  0.00  0.00    +0.000 F 
ENDBRANCH  20  26
ENDBRANCH   5  16
TORSDOF 5
ENDMDL
MODEL 7
REMARK VINA RESULT:      -8.4      4.207      6.134
REMARK  Name = 
REMARK  5 active torsions:
REMARK  status: ('A' for Active; 'I' for Inactive)
REMARK    1  A    between atoms: C_5  and  C_6
REMARK    2  A    between atoms: C_8  and  C_9
REMARK    3  A    between atoms: C_14  and  C_15
REMARK    4  A    between atoms: N_20  and  C_21
REMARK    5  A    between atoms: C_27  and  O_28
REMARK                            x       y       z     vdW  Elec       q    Type
REMARK                         _______ _______ _______ _____ _____    ______ ____
ROOT
ATOM      1  O   UNL     1       0.651   2.912  19.999  0.00  0.00    +0.000 OA
ATOM      2  C   UNL     1       1.623   2.785  19.265  0.00  0.00    +0.000 A 
ATOM      3  O   UNL     1       1.927   1.623  18.597  0.00  0.00    +0.000 OA
ATOM      4  N   UNL     1       3.112   1.880  17.847  0.00  0.00    +0.000 NA
ATOM      5  C   UNL     1       3.424   3.110  18.109  0.00  0.00    +0.000 A 
ATOM      6  N   UNL     1       2.560   3.715  18.955  0.00  0.00    +0.000 N 
ENDROOT
BRANCH   6   7
ATOM      7  C   UNL     1       2.421   5.072  19.291  0.00  0.00    +0.000 A 
ATOM      8  C   UNL     1       2.396   6.021  18.261  0.00  0.00    +0.000 A 
ATOM      9  C   UNL     1       2.194   7.366  18.564  0.00  0.00    +0.000 A 
ATOM     10 CL   UNL     1       2.071   8.514  17.290  0.00  0.00    +0.000 Cl
ATOM     11  C   UNL     1       2.064   7.784  19.888  0.00  0.00    +0.000 A 
ATOM     12  C   UNL     1       2.110   6.849  20.923  0.00  0.00    +0.000 A 
ATOM     13  C   UNL     1       2.269   5.495  20.622  0.00  0.00    +0.000 A 
BRANCH  13  14
ATOM     14  O   UNL     1       2.305   4.572  21.630  0.00  0.00    +0.000 OA
ATOM     15  H   UNL     1       3.221   4.260  21.748  0.00  0.00    +0.000 HD
ENDBRANCH  13  14
ENDBRANCH   6   7
BRANCH   5  16
ATOM     16  C   UNL     1       4.676   3.730  17.610  0.00  0.00    +0.000 A 
ATOM     17  C   UNL     1       5.577   4.286  18.524  0.00  0.00    +0.000 A 
ATOM     18  C   UNL     1       6.745   4.932  18.077  0.00  0.00    +0.000 A 
ATOM     19  C   UNL     1       7.018   4.977  16.698  0.00  0.00    +0.000 A 
ATOM     20  C   UNL     1       6.112   4.450  15.769  0.00  0.00    +0.000 A 
ATOM     21  C   UNL     1       4.928   3.866  16.240  0.00  0.00    +0.000 A 
BRANCH  18  22
ATOM     22  C   UNL     1       7.694   5.600  19.045  0.00  0.00    +0.000 C 
ATOM     23  F   UNL     1       7.156   5.828  20.273  0.00  0.00    +0.000 F 
ATOM     24  F   UNL     1       8.821   4.869  19.254  0.00  0.00    +0.000 F 
ATOM     25  F   UNL     1       8.114   6.813  18.589  0.00  0.00    +0.000 F 
ENDBRANCH  18  22
BRANCH  20  26
ATOM     26  C   UNL     1       6.361   4.499  14.281  0.00  0.00    +0.000 C 
ATOM     27  F   UNL     1       6.538   3.276  13.716  0.00  0.00    +0.000 F 
ATOM     28  F   UNL     1       5.330   5.081  13.609  0.00  0.00    +0.000 F 
ATOM     29  F   UNL     1       7.469   5.226  13.968  0.00  0.00    +0.000 F 
ENDBRANCH  20  26
ENDBRANCH   5  16
TORSDOF 5
ENDMDL
MODEL 8
REMARK VINA RESULT:      -7.8      3.337      5.061
REMARK  Name = 
REMARK  5 active torsions:
REMARK  status: ('A' for Active; 'I' for Inactive)
REMARK    1  A    between atoms: C_5  and  C_6
REMARK    2  A    between atoms: C_8  and  C_9
REMARK    3  A    between atoms: C_14  and  C_15
REMARK    4  A    between atoms: N_20  and  C_21
REMARK    5  A    between atoms: C_27  and  O_28
REMARK                            x       y       z     vdW  Elec       q    Type
REMARK                         _______ _______ _______ _____ _____    ______ ____
ROOT
ATOM      1  O   UNL     1       3.993   2.033  19.767  0.00  0.00    +0.000 OA
ATOM      2  C   UNL     1       3.358   2.976  20.223  0.00  0.00    +0.000 A 
ATOM      3  O   UNL     1       2.542   2.884  21.326  0.00  0.00    +0.000 OA
ATOM      4  N   UNL     1       1.999   4.184  21.543  0.00  0.00    +0.000 NA
ATOM      5  C   UNL     1       2.495   4.924  20.601  0.00  0.00    +0.000 A 
ATOM      6  N   UNL     1       3.329   4.255  19.774  0.00  0.00    +0.000 N 
ENDROOT
BRANCH   6   7
ATOM      7  C   UNL     1       4.221   4.737  18.802  0.00  0.00    +0.000 A 
ATOM      8  C   UNL     1       5.424   5.319  19.222  0.00  0.00    +0.000 A 
ATOM      9  C   UNL     1       6.354   5.746  18.277  0.00  0.00    +0.000 A 
ATOM     10 CL   UNL     1       7.869   6.372  18.798  0.00  0.00    +0.000 Cl
ATOM     11  C   UNL     1       6.079   5.644  16.914  0.00  0.00    +0.000 A 
ATOM     12  C   UNL     1       4.873   5.087  16.484  0.00  0.00    +0.000 A 
ATOM     13  C   UNL     1       3.957   4.618  17.427  0.00  0.00    +0.000 A 
BRANCH  13  14
ATOM     14  O   UNL     1       2.778   4.062  17.015  0.00  0.00    +0.000 OA
ATOM     15  H   UNL     1       2.868   3.093  16.996  0.00  0.00    +0.000 HD
ENDBRANCH  13  14
ENDBRANCH   6   7
BRANCH   5  16
ATOM     16  C   UNL     1       2.077   6.334  20.404  0.00  0.00    +0.000 A 
ATOM     17  C   UNL     1       1.408   7.002  21.434  0.00  0.00    +0.000 A 
ATOM     18  C   UNL     1       0.950   8.320  21.255  0.00  0.00    +0.000 A 
ATOM     19  C   UNL     1       1.208   8.977  20.038  0.00  0.00    +0.000 A 
ATOM     20  C   UNL     1       1.852   8.312  18.987  0.00  0.00    +0.000 A 
ATOM     21  C   UNL     1       2.244   6.980  19.173  0.00  0.00    +0.000 A 
BRANCH  18  22
ATOM     22  C   UNL     1       0.162   9.033  22.331  0.00  0.00    +0.000 C 
ATOM     23  F   UNL     1      -0.981   8.391  22.692  0.00  0.00    +0.000 F 
ATOM     24  F   UNL     1       0.881   9.201  23.473  0.00  0.00    +0.000 F 
ATOM     25  F   UNL     1      -0.217  10.282  21.941  0.00  0.00    +0.000 F 
ENDBRANCH  18  22
BRANCH  20  26
ATOM     26  C   UNL     1       2.128   8.977  17.661  0.00  0.00    +0.000 C 
ATOM     27  F   UNL     1       2.639  10.232  17.774  0.00  0.00    +0.000 F 
ATOM     28  F   UNL     1       3.019   8.272  16.910  0.00  0.00    +0.000 F 
ATOM     29  F   UNL     1       1.006   9.092  16.898  0.00  0.00    +0.000 F 
ENDBRANCH  20  26
ENDBRANCH   5  16
TORSDOF 5
ENDMDL
MODEL 9
REMARK VINA RESULT:      -7.8      3.362      5.094
REMARK  Name = 
REMARK  5 active torsions:
REMARK  status: ('A' for Active; 'I' for Inactive)
REMARK    1  A    between atoms: C_5  and  C_6
REMARK    2  A    between atoms: C_8  and  C_9
REMARK    3  A    between atoms: C_14  and  C_15
REMARK    4  A    between atoms: N_20  and  C_21
REMARK    5  A    between atoms: C_27  and  O_28
REMARK                            x       y       z     vdW  Elec       q    Type
REMARK                         _______ _______ _______ _____ _____    ______ ____
ROOT
ATOM      1  O   UNL     1       3.931   2.009  19.802  0.00  0.00    +0.000 OA
ATOM      2  C   UNL     1       3.306   2.960  20.255  0.00  0.00    +0.000 A 
ATOM      3  O   UNL     1       2.491   2.881  21.359  0.00  0.00    +0.000 OA
ATOM      4  N   UNL     1       1.962   4.188  21.571  0.00  0.00    +0.000 NA
ATOM      5  C   UNL     1       2.464   4.918  20.627  0.00  0.00    +0.000 A 
ATOM      6  N   UNL     1       3.290   4.238  19.801  0.00  0.00    +0.000 N 
ENDROOT
BRANCH   6   7
ATOM      7  C   UNL     1       4.186   4.707  18.826  0.00  0.00    +0.000 A 
ATOM      8  C   UNL     1       5.401   5.267  19.242  0.00  0.00    +0.000 A 
ATOM      9  C   UNL     1       6.334   5.680  18.294  0.00  0.00    +0.000 A 
ATOM     10 CL   UNL     1       7.861   6.279  18.810  0.00  0.00    +0.000 Cl
ATOM     11  C   UNL     1       6.051   5.586  16.931  0.00  0.00    +0.000 A 
ATOM     12  C   UNL     1       4.834   5.051  16.506  0.00  0.00    +0.000 A 
ATOM     13  C   UNL     1       3.914   4.595  17.452  0.00  0.00    +0.000 A 
BRANCH  13  14
ATOM     14  O   UNL     1       2.724   4.061  17.044  0.00  0.00    +0.000 OA
ATOM     15  H   UNL     1       1.992   4.613  17.375  0.00  0.00    +0.000 HD
ENDBRANCH  13  14
ENDBRANCH   6   7
BRANCH   5  16
ATOM     16  C   UNL     1       2.061   6.332  20.424  0.00  0.00    +0.000 A 
ATOM     17  C   UNL     1       1.396   7.010  21.451  0.00  0.00    +0.000 A 
ATOM     18  C   UNL     1       0.950   8.332  21.266  0.00  0.00    +0.000 A 
ATOM     19  C   UNL     1       1.218   8.982  20.049  0.00  0.00    +0.000 A 
ATOM     20  C   UNL     1       1.858   8.308  19.001  0.00  0.00    +0.000 A 
ATOM     21  C   UNL     1       2.237   6.973  19.191  0.00  0.00    +0.000 A 
BRANCH  18  22
ATOM     22  C   UNL     1       0.167   9.055  22.339  0.00  0.00    +0.000 C 
ATOM     23  F   UNL     1      -0.119  10.349  22.033  0.00  0.00    +0.000 F 
ATOM     24  F   UNL     1      -1.024   8.455  22.604  0.00  0.00    +0.000 F 
ATOM     25  F   UNL     1       0.840   9.090  23.523  0.00  0.00    +0.000 F 
ENDBRANCH  18  22
BRANCH  20  26
ATOM     26  C   UNL     1       2.144   8.967  17.674  0.00  0.00    +0.000 C 
ATOM     27  F   UNL     1       3.023   8.277  16.899  0.00  0.00    +0.000 F 
ATOM     28  F   UNL     1       1.017   9.119  16.924  0.00  0.00    +0.000 F 
ATOM     29  F   UNL     1       2.667  10.215  17.819  0.00  0.00    +0.000 F 
ENDBRANCH  20  26
ENDBRANCH   5  16
TORSDOF 5
ENDMDL
