MODEL 1
REMARK VINA RESULT:      -8.2      0.000      0.000
REMARK  Name = 
REMARK  5 active torsions:
REMARK  status: ('A' for Active; 'I' for Inactive)
REMARK    1  A    between atoms: C_2  and  C_4
REMARK    2  A    between atoms: C_8  and  C_9
REMARK    3  A    between atoms: N_11  and  C_12
REMARK    4  A    between atoms: C_15  and  C_16
REMARK    5  A    between atoms: C_20  and  O_21
REMARK                            x       y       z     vdW  Elec       q    Type
REMARK                         _______ _______ _______ _____ _____    ______ ____
ROOT
ATOM      1  C   UNL     1       2.609   7.488  18.269  0.00  0.00    +0.000 A 
ATOM      2  C   UNL     1       1.851   7.720  19.386  0.00  0.00    +0.000 A 
ATOM      3  N   UNL     1       1.397   9.006  19.256  0.00  0.00    +0.000 N 
ATOM      4  N   UNL     1       1.765   9.490  18.041  0.00  0.00    +0.000 NA
ATOM      5  N   UNL     1       2.543   8.582  17.452  0.00  0.00    +0.000 NA
ENDROOT
BRANCH   1  10
ATOM      6  C   UNL     1       5.268   5.025  17.328  0.00  0.00    +0.000 A 
ATOM      7  C   UNL     1       4.518   3.853  17.173  0.00  0.00    +0.000 A 
ATOM      8  C   UNL     1       3.153   3.860  17.444  0.00  0.00    +0.000 A 
ATOM      9  C   UNL     1       2.534   5.045  17.842  0.00  0.00    +0.000 A 
ATOM     10  C   UNL     1       3.274   6.237  17.972  0.00  0.00    +0.000 A 
ATOM     11  C   UNL     1       4.650   6.211  17.738  0.00  0.00    +0.000 A 
BRANCH   6  13
ATOM     12  N   UNL     1       7.533   4.366  17.770  0.00  0.00    +0.000 NA
ATOM     13  C   UNL     1       6.720   5.014  17.004  0.00  0.00    +0.000 C 
ATOM     14  N   UNL     1       7.183   5.688  15.914  0.00  0.00    +0.000 N 
ATOM     15  H   UNL     1       8.477   4.412  17.385  0.00  0.00    +0.000 HD
ATOM     16  H   UNL     1       8.169   5.920  15.925  0.00  0.00    +0.000 HD
ATOM     17  H   UNL     1       6.616   6.474  15.609  0.00  0.00    +0.000 HD
ENDBRANCH   6  13
ENDBRANCH   1  10
BRANCH   3  18
ATOM     18  C   UNL     1       0.609   9.744  20.175  0.00  0.00    +0.000 A 
ATOM     19  C   UNL     1       0.686   9.441  21.544  0.00  0.00    +0.000 A 
ATOM     20  C   UNL     1      -0.019  10.218  22.472  0.00  0.00    +0.000 A 
ATOM     21  C   UNL     1      -0.829  11.272  22.036  0.00  0.00    +0.000 A 
ATOM     22  C   UNL     1      -0.944  11.542  20.670  0.00  0.00    +0.000 A 
ATOM     23  C   UNL     1      -0.229  10.786  19.746  0.00  0.00    +0.000 A 
BRANCH  21  24
ATOM     24  C   UNL     1      -1.576  12.132  22.995  0.00  0.00    +0.000 C 
ATOM     25  N   UNL     1      -1.113  13.251  23.450  0.00  0.00    +0.000 NA
ATOM     26  N   UNL     1      -2.807  11.753  23.441  0.00  0.00    +0.000 N 
ATOM     27  H   UNL     1      -0.169  13.440  23.105  0.00  0.00    +0.000 HD
ATOM     28  H   UNL     1      -3.419  11.331  22.753  0.00  0.00    +0.000 HD
ATOM     29  H   UNL     1      -3.258  12.521  23.930  0.00  0.00    +0.000 HD
ENDBRANCH  21  24
BRANCH  23  30
ATOM     30  O   UNL     1      -0.412  11.041  18.416  0.00  0.00    +0.000 OA
ATOM     31  H   UNL     1       0.143  11.796  18.150  0.00  0.00    +0.000 HD
ENDBRANCH  23  30
ENDBRANCH   3  18
TORSDOF 5
ENDMDL
MODEL 2
REMARK VINA RESULT:      -8.1      2.553      8.876
REMARK  Name = 
REMARK  5 active torsions:
REMARK  status: ('A' for Active; 'I' for Inactive)
REMARK    1  A    between atoms: C_2  and  C_4
REMARK    2  A    between atoms: C_8  and  C_9
REMARK    3  A    between atoms: N_11  and  C_12
REMARK    4  A    between atoms: C_15  and  C_16
REMARK    5  A    between atoms: C_20  and  O_21
REMARK                            x       y       z     vdW  Elec       q    Type
REMARK                         _______ _______ _______ _____ _____    ______ ____
ROOT
ATOM      1  C   UNL     1       1.396   8.471  19.830  0.00  0.00    +0.000 A 
ATOM      2  C   UNL     1       2.050   8.296  18.639  0.00  0.00    +0.000 A 
ATOM      3  N   UNL     1       2.721   7.108  18.763  0.00  0.00    +0.000 N 
ATOM      4  N   UNL     1       2.380   6.525  19.943  0.00  0.00    +0.000 NA
ATOM      5  N   UNL     1       1.606   7.373  20.617  0.00  0.00    +0.000 NA
ENDROOT
BRANCH   1  10
ATOM      6  C   UNL     1      -0.591  11.621  19.448  0.00  0.00    +0.000 A 
ATOM      7  C   UNL     1      -0.936  11.894  20.777  0.00  0.00    +0.000 A 
ATOM      8  C   UNL     1      -0.575  11.007  21.785  0.00  0.00    +0.000 A 
ATOM      9  C   UNL     1       0.158   9.863  21.469  0.00  0.00    +0.000 A 
ATOM     10  C   UNL     1       0.537   9.594  20.139  0.00  0.00    +0.000 A 
ATOM     11  C   UNL     1       0.134  10.469  19.127  0.00  0.00    +0.000 A 
BRANCH   6  13
ATOM     12  N   UNL     1      -1.538  12.167  17.311  0.00  0.00    +0.000 NA
ATOM     13  C   UNL     1      -0.954  12.593  18.382  0.00  0.00    +0.000 C 
ATOM     14  N   UNL     1      -0.667  13.917  18.534  0.00  0.00    +0.000 N 
ATOM     15  H   UNL     1      -1.766  12.957  16.707  0.00  0.00    +0.000 HD
ATOM     16  H   UNL     1      -0.630  14.461  17.681  0.00  0.00    +0.000 HD
ATOM     17  H   UNL     1       0.114  14.129  19.149  0.00  0.00    +0.000 HD
ENDBRANCH   6  13
ENDBRANCH   1  10
BRANCH   3  18
ATOM     18  C   UNL     1       3.589   6.500  17.823  0.00  0.00    +0.000 A 
ATOM     19  C   UNL     1       4.487   7.302  17.098  0.00  0.00    +0.000 A 
ATOM     20  C   UNL     1       5.411   6.706  16.230  0.00  0.00    +0.000 A 
ATOM     21  C   UNL     1       5.416   5.318  16.053  0.00  0.00    +0.000 A 
ATOM     22  C   UNL     1       4.491   4.525  16.737  0.00  0.00    +0.000 A 
ATOM     23  C   UNL     1       3.586   5.112  17.616  0.00  0.00    +0.000 A 
BRANCH  21  24
ATOM     24  C   UNL     1       6.397   4.649  15.155  0.00  0.00    +0.000 C 
ATOM     25  N   UNL     1       7.545   5.163  14.852  0.00  0.00    +0.000 NA
ATOM     26  N   UNL     1       6.105   3.437  14.601  0.00  0.00    +0.000 N 
ATOM     27  H   UNL     1       7.668   6.089  15.268  0.00  0.00    +0.000 HD
ATOM     28  H   UNL     1       5.629   2.777  15.203  0.00  0.00    +0.000 HD
ATOM     29  H   UNL     1       6.934   3.034  14.175  0.00  0.00    +0.000 HD
ENDBRANCH  21  24
BRANCH  23  30
ATOM     30  O   UNL     1       2.658   4.312  18.222  0.00  0.00    +0.000 OA
ATOM     31  H   UNL     1       2.337   3.646  17.588  0.00  0.00    +0.000 HD
ENDBRANCH  23  30
ENDBRANCH   3  18
TORSDOF 5
ENDMDL
MODEL 3
REMARK VINA RESULT:      -8.1      2.636      8.956
REMARK  Name = 
REMARK  5 active torsions:
REMARK  status: ('A' for Active; 'I' for Inactive)
REMARK    1  A    between atoms: C_2  and  C_4
REMARK    2  A    between atoms: C_8  and  C_9
REMARK    3  A    between atoms: N_11  and  C_12
REMARK    4  A    between atoms: C_15  and  C_16
REMARK    5  A    between atoms: C_20  and  O_21
REMARK                            x       y       z     vdW  Elec       q    Type
REMARK                         _______ _______ _______ _____ _____    ______ ____
ROOT
ATOM      1  C   UNL     1       1.235   8.917  19.556  0.00  0.00    +0.000 A 
ATOM      2  C   UNL     1       1.882   8.560  18.403  0.00  0.00    +0.000 A 
ATOM      3  N   UNL     1       2.597   7.435  18.721  0.00  0.00    +0.000 N 
ATOM      4  N   UNL     1       2.291   7.054  19.989  0.00  0.00    +0.000 NA
ATOM      5  N   UNL     1       1.493   7.981  20.518  0.00  0.00    +0.000 NA
ENDROOT
BRANCH   1  10
ATOM      6  C   UNL     1      -1.462  11.399  18.793  0.00  0.00    +0.000 A 
ATOM      7  C   UNL     1      -1.249  12.356  19.792  0.00  0.00    +0.000 A 
ATOM      8  C   UNL     1      -0.267  12.149  20.755  0.00  0.00    +0.000 A 
ATOM      9  C   UNL     1       0.523  11.000  20.700  0.00  0.00    +0.000 A 
ATOM     10  C   UNL     1       0.338  10.046  19.680  0.00  0.00    +0.000 A 
ATOM     11  C   UNL     1      -0.679  10.242  18.743  0.00  0.00    +0.000 A 
BRANCH   6  13
ATOM     12  N   UNL     1      -3.699  11.937  18.110  0.00  0.00    +0.000 NA
ATOM     13  C   UNL     1      -2.493  11.646  17.749  0.00  0.00    +0.000 C 
ATOM     14  N   UNL     1      -2.167  11.559  16.429  0.00  0.00    +0.000 N 
ATOM     15  H   UNL     1      -4.268  12.127  17.284  0.00  0.00    +0.000 HD
ATOM     16  H   UNL     1      -2.940  11.411  15.792  0.00  0.00    +0.000 HD
ATOM     17  H   UNL     1      -1.379  10.956  16.210  0.00  0.00    +0.000 HD
ENDBRANCH   6  13
ENDBRANCH   1  10
BRANCH   3  18
ATOM     18  C   UNL     1       3.477   6.703  17.885  0.00  0.00    +0.000 A 
ATOM     19  C   UNL     1       4.482   7.385  17.181  0.00  0.00    +0.000 A 
ATOM     20  C   UNL     1       5.414   6.666  16.420  0.00  0.00    +0.000 A 
ATOM     21  C   UNL     1       5.322   5.272  16.331  0.00  0.00    +0.000 A 
ATOM     22  C   UNL     1       4.292   4.598  16.992  0.00  0.00    +0.000 A 
ATOM     23  C   UNL     1       3.378   5.307  17.765  0.00  0.00    +0.000 A 
BRANCH  21  24
ATOM     24  C   UNL     1       6.306   4.473  15.550  0.00  0.00    +0.000 C 
ATOM     25  N   UNL     1       6.219   3.191  15.403  0.00  0.00    +0.000 NA
ATOM     26  N   UNL     1       7.366   5.087  14.950  0.00  0.00    +0.000 N 
ATOM     27  H   UNL     1       5.427   2.802  15.920  0.00  0.00    +0.000 HD
ATOM     28  H   UNL     1       7.175   5.982  14.518  0.00  0.00    +0.000 HD
ATOM     29  H   UNL     1       7.830   4.448  14.312  0.00  0.00    +0.000 HD
ENDBRANCH  21  24
BRANCH  23  30
ATOM     30  O   UNL     1       2.351   4.621  18.350  0.00  0.00    +0.000 OA
ATOM     31  H   UNL     1       1.763   4.265  17.660  0.00  0.00    +0.000 HD
ENDBRANCH  23  30
ENDBRANCH   3  18
TORSDOF 5
ENDMDL
MODEL 4
REMARK VINA RESULT:      -8.1      2.489      8.928
REMARK  Name = 
REMARK  5 active torsions:
REMARK  status: ('A' for Active; 'I' for Inactive)
REMARK    1  A    between atoms: C_2  and  C_4
REMARK    2  A    between atoms: C_8  and  C_9
REMARK    3  A    between atoms: N_11  and  C_12
REMARK    4  A    between atoms: C_15  and  C_16
REMARK    5  A    between atoms: C_20  and  O_21
REMARK                            x       y       z     vdW  Elec       q    Type
REMARK                         _______ _______ _______ _____ _____    ______ ____
ROOT
ATOM      1  C   UNL     1       1.640   7.692  20.185  0.00  0.00    +0.000 A 
ATOM      2  C   UNL     1       2.279   7.710  18.974  0.00  0.00    +0.000 A 
ATOM      3  N   UNL     1       2.890   6.489  18.866  0.00  0.00    +0.000 N 
ATOM      4  N   UNL     1       2.528   5.714  19.922  0.00  0.00    +0.000 NA
ATOM      5  N   UNL     1       1.800   6.459  20.752  0.00  0.00    +0.000 NA
ENDROOT
BRANCH   1  10
ATOM      6  C   UNL     1      -0.342  10.863  20.369  0.00  0.00    +0.000 A 
ATOM      7  C   UNL     1      -0.517  11.001  21.751  0.00  0.00    +0.000 A 
ATOM      8  C   UNL     1      -0.043  10.018  22.614  0.00  0.00    +0.000 A 
ATOM      9  C   UNL     1       0.631   8.912  22.096  0.00  0.00    +0.000 A 
ATOM     10  C   UNL     1       0.840   8.778  20.709  0.00  0.00    +0.000 A 
ATOM     11  C   UNL     1       0.324   9.749  19.848  0.00  0.00    +0.000 A 
BRANCH   6  13
ATOM     12  N   UNL     1      -0.310  12.040  18.277  0.00  0.00    +0.000 NA
ATOM     13  C   UNL     1      -0.823  11.937  19.459  0.00  0.00    +0.000 C 
ATOM     14  N   UNL     1      -1.790  12.803  19.872  0.00  0.00    +0.000 N 
ATOM     15  H   UNL     1      -0.780  12.785  17.763  0.00  0.00    +0.000 HD
ATOM     16  H   UNL     1      -1.842  13.680  19.368  0.00  0.00    +0.000 HD
ATOM     17  H   UNL     1      -1.854  12.944  20.877  0.00  0.00    +0.000 HD
ENDBRANCH   6  13
ENDBRANCH   1  10
BRANCH   3  18
ATOM     18  C   UNL     1       3.723   6.026  17.817  0.00  0.00    +0.000 A 
ATOM     19  C   UNL     1       4.532   6.943  17.127  0.00  0.00    +0.000 A 
ATOM     20  C   UNL     1       5.424   6.487  16.147  0.00  0.00    +0.000 A 
ATOM     21  C   UNL     1       5.484   5.126  15.828  0.00  0.00    +0.000 A 
ATOM     22  C   UNL     1       4.643   4.221  16.480  0.00  0.00    +0.000 A 
ATOM     23  C   UNL     1       3.771   4.667  17.469  0.00  0.00    +0.000 A 
BRANCH  21  24
ATOM     24  C   UNL     1       6.434   4.603  14.807  0.00  0.00    +0.000 C 
ATOM     25  N   UNL     1       6.220   3.524  14.128  0.00  0.00    +0.000 NA
ATOM     26  N   UNL     1       7.599   5.265  14.553  0.00  0.00    +0.000 N 
ATOM     27  H   UNL     1       5.351   3.063  14.410  0.00  0.00    +0.000 HD
ATOM     28  H   UNL     1       7.542   6.276  14.537  0.00  0.00    +0.000 HD
ATOM     29  H   UNL     1       8.039   4.895  13.716  0.00  0.00    +0.000 HD
ENDBRANCH  21  24
BRANCH  23  30
ATOM     30  O   UNL     1       2.924   3.762  18.044  0.00  0.00    +0.000 OA
ATOM     31  H   UNL     1       2.080   3.750  17.558  0.00  0.00    +0.000 HD
ENDBRANCH  23  30
ENDBRANCH   3  18
TORSDOF 5
ENDMDL
MODEL 5
REMARK VINA RESULT:      -8.1      2.441      9.103
REMARK  Name = 
REMARK  5 active torsions:
REMARK  status: ('A' for Active; 'I' for Inactive)
REMARK    1  A    between atoms: C_2  and  C_4
REMARK    2  A    between atoms: C_8  and  C_9
REMARK    3  A    between atoms: N_11  and  C_12
REMARK    4  A    between atoms: C_15  and  C_16
REMARK    5  A    between atoms: C_20  and  O_21
REMARK                            x       y       z     vdW  Elec       q    Type
REMARK                         _______ _______ _______ _____ _____    ______ ____
ROOT
ATOM      1  C   UNL     1       1.886   8.035  19.461  0.00  0.00    +0.000 A 
ATOM      2  C   UNL     1       2.452   7.908  18.220  0.00  0.00    +0.000 A 
ATOM      3  N   UNL     1       3.170   6.743  18.266  0.00  0.00    +0.000 N 
ATOM      4  N   UNL     1       2.941   6.123  19.454  0.00  0.00    +0.000 NA
ATOM      5  N   UNL     1       2.193   6.930  20.204  0.00  0.00    +0.000 NA
ENDROOT
BRANCH   1  10
ATOM      6  C   UNL     1      -0.265  10.258  21.570  0.00  0.00    +0.000 A 
ATOM      7  C   UNL     1      -0.850  11.080  20.600  0.00  0.00    +0.000 A 
ATOM      8  C   UNL     1      -0.485  10.947  19.264  0.00  0.00    +0.000 A 
ATOM      9  C   UNL     1       0.443   9.973  18.896  0.00  0.00    +0.000 A 
ATOM     10  C   UNL     1       1.015   9.120  19.860  0.00  0.00    +0.000 A 
ATOM     11  C   UNL     1       0.674   9.289  21.204  0.00  0.00    +0.000 A 
BRANCH   6  13
ATOM     12  N   UNL     1      -0.058   9.719  23.900  0.00  0.00    +0.000 NA
ATOM     13  C   UNL     1      -0.687  10.387  22.991  0.00  0.00    +0.000 C 
ATOM     14  N   UNL     1      -1.731  11.197  23.325  0.00  0.00    +0.000 N 
ATOM     15  H   UNL     1      -0.431   9.955  24.820  0.00  0.00    +0.000 HD
ATOM     16  H   UNL     1      -2.174  11.002  24.214  0.00  0.00    +0.000 HD
ATOM     17  H   UNL     1      -2.416  11.357  22.591  0.00  0.00    +0.000 HD
ENDBRANCH   6  13
ENDBRANCH   1  10
BRANCH   3  18
ATOM     18  C   UNL     1       3.984   6.185  17.248  0.00  0.00    +0.000 A 
ATOM     19  C   UNL     1       4.655   7.041  16.359  0.00  0.00    +0.000 A 
ATOM     20  C   UNL     1       5.532   6.510  15.404  0.00  0.00    +0.000 A 
ATOM     21  C   UNL     1       5.712   5.125  15.309  0.00  0.00    +0.000 A 
ATOM     22  C   UNL     1       5.007   4.271  16.161  0.00  0.00    +0.000 A 
ATOM     23  C   UNL     1       4.152   4.797  17.125  0.00  0.00    +0.000 A 
BRANCH  21  24
ATOM     24  C   UNL     1       6.650   4.526  14.321  0.00  0.00    +0.000 C 
ATOM     25  N   UNL     1       7.770   5.078  13.984  0.00  0.00    +0.000 NA
ATOM     26  N   UNL     1       6.347   3.341  13.717  0.00  0.00    +0.000 N 
ATOM     27  H   UNL     1       7.901   5.982  14.443  0.00  0.00    +0.000 HD
ATOM     28  H   UNL     1       5.917   2.639  14.307  0.00  0.00    +0.000 HD
ATOM     29  H   UNL     1       7.157   2.978  13.223  0.00  0.00    +0.000 HD
ENDBRANCH  21  24
BRANCH  23  30
ATOM     30  O   UNL     1       3.436   3.929  17.901  0.00  0.00    +0.000 OA
ATOM     31  H   UNL     1       3.838   3.044  17.856  0.00  0.00    +0.000 HD
ENDBRANCH  23  30
ENDBRANCH   3  18
TORSDOF 5
ENDMDL
MODEL 6
REMARK VINA RESULT:      -7.9      2.622      8.812
REMARK  Name = 
REMARK  5 active torsions:
REMARK  status: ('A' for Active; 'I' for Inactive)
REMARK    1  A    between atoms: C_2  and  C_4
REMARK    2  A    between atoms: C_8  and  C_9
REMARK    3  A    between atoms: N_11  and  C_12
REMARK    4  A    between atoms: C_15  and  C_16
REMARK    5  A    between atoms: C_20  and  O_21
REMARK                            x       y       z     vdW  Elec       q    Type
REMARK                         _______ _______ _______ _____ _____    ______ ____
ROOT
ATOM      1  C   UNL     1       1.623   7.502  20.300  0.00  0.00    +0.000 A 
ATOM      2  C   UNL     1       2.347   7.605  19.142  0.00  0.00    +0.000 A 
ATOM      3  N   UNL     1       2.841   6.349  18.908  0.00  0.00    +0.000 N 
ATOM      4  N   UNL     1       2.327   5.489  19.827  0.00  0.00    +0.000 NA
ATOM      5  N   UNL     1       1.618   6.197  20.705  0.00  0.00    +0.000 NA
ENDROOT
BRANCH   1  10
ATOM      6  C   UNL     1       0.471  10.965  21.136  0.00  0.00    +0.000 A 
ATOM      7  C   UNL     1      -0.332  10.727  22.258  0.00  0.00    +0.000 A 
ATOM      8  C   UNL     1      -0.547   9.424  22.694  0.00  0.00    +0.000 A 
ATOM      9  C   UNL     1       0.064   8.362  22.027  0.00  0.00    +0.000 A 
ATOM     10  C   UNL     1       0.898   8.592  20.916  0.00  0.00    +0.000 A 
ATOM     11  C   UNL     1       1.075   9.901  20.459  0.00  0.00    +0.000 A 
BRANCH   6  13
ATOM     12  N   UNL     1       1.697  13.026  21.224  0.00  0.00    +0.000 NA
ATOM     13  C   UNL     1       0.721  12.364  20.697  0.00  0.00    +0.000 C 
ATOM     14  N   UNL     1      -0.078  12.940  19.754  0.00  0.00    +0.000 N 
ATOM     15  H   UNL     1       1.767  13.943  20.782  0.00  0.00    +0.000 HD
ATOM     16  H   UNL     1      -0.078  13.953  19.735  0.00  0.00    +0.000 HD
ATOM     17  H   UNL     1      -1.019  12.563  19.686  0.00  0.00    +0.000 HD
ENDBRANCH   6  13
ENDBRANCH   1  10
BRANCH   3  18
ATOM     18  C   UNL     1       3.697   5.936  17.857  0.00  0.00    +0.000 A 
ATOM     19  C   UNL     1       4.478   6.894  17.191  0.00  0.00    +0.000 A 
ATOM     20  C   UNL     1       5.394   6.490  16.210  0.00  0.00    +0.000 A 
ATOM     21  C   UNL     1       5.505   5.138  15.866  0.00  0.00    +0.000 A 
ATOM     22  C   UNL     1       4.694   4.191  16.495  0.00  0.00    +0.000 A 
ATOM     23  C   UNL     1       3.798   4.586  17.485  0.00  0.00    +0.000 A 
BRANCH  21  24
ATOM     24  C   UNL     1       6.482   4.670  14.844  0.00  0.00    +0.000 C 
ATOM     25  N   UNL     1       7.577   5.301  14.571  0.00  0.00    +0.000 NA
ATOM     26  N   UNL     1       6.242   3.527  14.140  0.00  0.00    +0.000 N 
ATOM     27  H   UNL     1       7.659   6.169  15.106  0.00  0.00    +0.000 HD
ATOM     28  H   UNL     1       5.840   2.758  14.662  0.00  0.00    +0.000 HD
ATOM     29  H   UNL     1       7.073   3.246  13.628  0.00  0.00    +0.000 HD
ENDBRANCH  21  24
BRANCH  23  30
ATOM     30  O   UNL     1       2.980   3.640  18.036  0.00  0.00    +0.000 OA
ATOM     31  H   UNL     1       3.253   2.756  17.732  0.00  0.00    +0.000 HD
ENDBRANCH  23  30
ENDBRANCH   3  18
TORSDOF 5
ENDMDL
MODEL 7
REMARK VINA RESULT:      -7.9      1.691      2.342
REMARK  Name = 
REMARK  5 active torsions:
REMARK  status: ('A' for Active; 'I' for Inactive)
REMARK    1  A    between atoms: C_2  and  C_4
REMARK    2  A    between atoms: C_8  and  C_9
REMARK    3  A    between atoms: N_11  and  C_12
REMARK    4  A    between atoms: C_15  and  C_16
REMARK    5  A    between atoms: C_20  and  O_21
REMARK                            x       y       z     vdW  Elec       q    Type
REMARK                         _______ _______ _______ _____ _____    ______ ____
ROOT
ATOM      1  C   UNL     1       2.568   7.601  18.180  0.00  0.00    +0.000 A 
ATOM      2  C   UNL     1       1.781   7.814  19.281  0.00  0.00    +0.000 A 
ATOM      3  N   UNL     1       1.376   9.119  19.192  0.00  0.00    +0.000 N 
ATOM      4  N   UNL     1       1.801   9.638  18.010  0.00  0.00    +0.000 NA
ATOM      5  N   UNL     1       2.566   8.729  17.409  0.00  0.00    +0.000 NA
ENDROOT
BRANCH   1  10
ATOM      6  C   UNL     1       3.160   3.920  17.834  0.00  0.00    +0.000 A 
ATOM      7  C   UNL     1       4.501   3.891  17.433  0.00  0.00    +0.000 A 
ATOM      8  C   UNL     1       5.186   5.082  17.211  0.00  0.00    +0.000 A 
ATOM      9  C   UNL     1       4.539   6.300  17.419  0.00  0.00    +0.000 A 
ATOM     10  C   UNL     1       3.199   6.340  17.852  0.00  0.00    +0.000 A 
ATOM     11  C   UNL     1       2.507   5.141  18.032  0.00  0.00    +0.000 A 
BRANCH   6  13
ATOM     12  N   UNL     1       1.164   2.654  18.251  0.00  0.00    +0.000 NA
ATOM     13  C   UNL     1       2.447   2.642  18.100  0.00  0.00    +0.000 C 
ATOM     14  N   UNL     1       3.144   1.474  18.188  0.00  0.00    +0.000 N 
ATOM     15  H   UNL     1       0.824   1.700  18.373  0.00  0.00    +0.000 HD
ATOM     16  H   UNL     1       2.680   0.720  18.680  0.00  0.00    +0.000 HD
ATOM     17  H   UNL     1       4.117   1.563  18.467  0.00  0.00    +0.000 HD
ENDBRANCH   6  13
ENDBRANCH   1  10
BRANCH   3  18
ATOM     18  C   UNL     1       0.583   9.846  20.115  0.00  0.00    +0.000 A 
ATOM     19  C   UNL     1       0.614   9.493  21.474  0.00  0.00    +0.000 A 
ATOM     20  C   UNL     1      -0.095  10.257  22.411  0.00  0.00    +0.000 A 
ATOM     21  C   UNL     1      -0.864  11.348  21.991  0.00  0.00    +0.000 A 
ATOM     22  C   UNL     1      -0.933  11.670  20.633  0.00  0.00    +0.000 A 
ATOM     23  C   UNL     1      -0.213  10.926  19.702  0.00  0.00    +0.000 A 
BRANCH  21  24
ATOM     24  C   UNL     1      -1.612  12.195  22.960  0.00  0.00    +0.000 C 
ATOM     25  N   UNL     1      -1.131  13.282  23.468  0.00  0.00    +0.000 NA
ATOM     26  N   UNL     1      -2.866  11.836  23.358  0.00  0.00    +0.000 N 
ATOM     27  H   UNL     1      -0.173  13.456  23.157  0.00  0.00    +0.000 HD
ATOM     28  H   UNL     1      -3.470  11.457  22.639  0.00  0.00    +0.000 HD
ATOM     29  H   UNL     1      -3.308  12.598  23.863  0.00  0.00    +0.000 HD
ENDBRANCH  21  24
BRANCH  23  30
ATOM     30  O   UNL     1      -0.352  11.234  18.378  0.00  0.00    +0.000 OA
ATOM     31  H   UNL     1       0.026  12.114  18.207  0.00  0.00    +0.000 HD
ENDBRANCH  23  30
ENDBRANCH   3  18
TORSDOF 5
ENDMDL
MODEL 8
REMARK VINA RESULT:      -7.9      0.910      1.229
REMARK  Name = 
REMARK  5 active torsions:
REMARK  status: ('A' for Active; 'I' for Inactive)
REMARK    1  A    between atoms: C_2  and  C_4
REMARK    2  A    between atoms: C_8  and  C_9
REMARK    3  A    between atoms: N_11  and  C_12
REMARK    4  A    between atoms: C_15  and  C_16
REMARK    5  A    between atoms: C_20  and  O_21
REMARK                            x       y       z     vdW  Elec       q    Type
REMARK                         _______ _______ _______ _____ _____    ______ ____
ROOT
ATOM      1  C   UNL     1       3.006   7.232  17.938  0.00  0.00    +0.000 A 
ATOM      2  C   UNL     1       2.224   7.461  19.038  0.00  0.00    +0.000 A 
ATOM      3  N   UNL     1       1.796   8.757  18.916  0.00  0.00    +0.000 N 
ATOM      4  N   UNL     1       2.203   9.251  17.717  0.00  0.00    +0.000 NA
ATOM      5  N   UNL     1       2.980   8.338  17.136  0.00  0.00    +0.000 NA
ENDROOT
BRANCH   1  10
ATOM      6  C   UNL     1       5.260   4.697  16.352  0.00  0.00    +0.000 A 
ATOM      7  C   UNL     1       4.760   3.506  16.891  0.00  0.00    +0.000 A 
ATOM      8  C   UNL     1       3.731   3.543  17.825  0.00  0.00    +0.000 A 
ATOM      9  C   UNL     1       3.181   4.770  18.198  0.00  0.00    +0.000 A 
ATOM     10  C   UNL     1       3.655   5.973  17.639  0.00  0.00    +0.000 A 
ATOM     11  C   UNL     1       4.718   5.929  16.733  0.00  0.00    +0.000 A 
BRANCH   6  13
ATOM     12  N   UNL     1       7.313   5.490  15.393  0.00  0.00    +0.000 NA
ATOM     13  C   UNL     1       6.339   4.643  15.329  0.00  0.00    +0.000 C 
ATOM     14  N   UNL     1       6.294   3.714  14.334  0.00  0.00    +0.000 N 
ATOM     15  H   UNL     1       7.991   5.289  14.658  0.00  0.00    +0.000 HD
ATOM     16  H   UNL     1       6.844   3.923  13.510  0.00  0.00    +0.000 HD
ATOM     17  H   UNL     1       5.367   3.375  14.090  0.00  0.00    +0.000 HD
ENDBRANCH   6  13
ENDBRANCH   1  10
BRANCH   3  18
ATOM     18  C   UNL     1       0.998   9.496  19.825  0.00  0.00    +0.000 A 
ATOM     19  C   UNL     1       1.084   9.216  21.199  0.00  0.00    +0.000 A 
ATOM     20  C   UNL     1       0.369   9.996  22.117  0.00  0.00    +0.000 A 
ATOM     21  C   UNL     1      -0.460  11.029  21.667  0.00  0.00    +0.000 A 
ATOM     22  C   UNL     1      -0.584  11.276  20.297  0.00  0.00    +0.000 A 
ATOM     23  C   UNL     1       0.142  10.517  19.384  0.00  0.00    +0.000 A 
BRANCH  21  24
ATOM     24  C   UNL     1      -1.219  11.891  22.614  0.00  0.00    +0.000 C 
ATOM     25  N   UNL     1      -2.216  11.463  23.317  0.00  0.00    +0.000 NA
ATOM     26  N   UNL     1      -0.878  13.202  22.772  0.00  0.00    +0.000 N 
ATOM     27  H   UNL     1      -2.438  10.487  23.108  0.00  0.00    +0.000 HD
ATOM     28  H   UNL     1       0.114  13.405  22.784  0.00  0.00    +0.000 HD
ATOM     29  H   UNL     1      -1.356  13.598  23.575  0.00  0.00    +0.000 HD
ENDBRANCH  21  24
BRANCH  23  30
ATOM     30  O   UNL     1      -0.049  10.748  18.050  0.00  0.00    +0.000 OA
ATOM     31  H   UNL     1       0.639  10.287  17.538  0.00  0.00    +0.000 HD
ENDBRANCH  23  30
ENDBRANCH   3  18
TORSDOF 5
ENDMDL
MODEL 9
REMARK VINA RESULT:      -7.8      1.842      2.427
REMARK  Name = 
REMARK  5 active torsions:
REMARK  status: ('A' for Active; 'I' for Inactive)
REMARK    1  A    between atoms: C_2  and  C_4
REMARK    2  A    between atoms: C_8  and  C_9
REMARK    3  A    between atoms: N_11  and  C_12
REMARK    4  A    between atoms: C_15  and  C_16
REMARK    5  A    between atoms: C_20  and  O_21
REMARK                            x       y       z     vdW  Elec       q    Type
REMARK                         _______ _______ _______ _____ _____    ______ ____
ROOT
ATOM      1  C   UNL     1       2.627   6.591  19.064  0.00  0.00    +0.000 A 
ATOM      2  C   UNL     1       2.249   7.821  18.596  0.00  0.00    +0.000 A 
ATOM      3  N   UNL     1       1.523   8.389  19.609  0.00  0.00    +0.000 N 
ATOM      4  N   UNL     1       1.569   7.579  20.700  0.00  0.00    +0.000 NA
ATOM      5  N   UNL     1       2.206   6.460  20.358  0.00  0.00    +0.000 NA
ENDROOT
BRANCH   1  10
ATOM      6  C   UNL     1       5.554   5.035  17.323  0.00  0.00    +0.000 A 
ATOM      7  C   UNL     1       4.956   3.928  16.710  0.00  0.00    +0.000 A 
ATOM      8  C   UNL     1       3.609   3.657  16.927  0.00  0.00    +0.000 A 
ATOM      9  C   UNL     1       2.854   4.510  17.732  0.00  0.00    +0.000 A 
ATOM     10  C   UNL     1       3.438   5.645  18.328  0.00  0.00    +0.000 A 
ATOM     11  C   UNL     1       4.801   5.886  18.139  0.00  0.00    +0.000 A 
BRANCH   6  13
ATOM     12  N   UNL     1       7.866   4.399  17.209  0.00  0.00    +0.000 NA
ATOM     13  C   UNL     1       6.987   5.334  17.058  0.00  0.00    +0.000 C 
ATOM     14  N   UNL     1       7.365   6.584  16.666  0.00  0.00    +0.000 N 
ATOM     15  H   UNL     1       8.786   4.747  16.940  0.00  0.00    +0.000 HD
ATOM     16  H   UNL     1       8.339   6.817  16.817  0.00  0.00    +0.000 HD
ATOM     17  H   UNL     1       6.749   7.340  16.951  0.00  0.00    +0.000 HD
ENDBRANCH   6  13
ENDBRANCH   1  10
BRANCH   3  18
ATOM     18  C   UNL     1       0.863   9.643  19.606  0.00  0.00    +0.000 A 
ATOM     19  C   UNL     1       0.256  10.097  18.424  0.00  0.00    +0.000 A 
ATOM     20  C   UNL     1      -0.474  11.293  18.428  0.00  0.00    +0.000 A 
ATOM     21  C   UNL     1      -0.568  12.056  19.597  0.00  0.00    +0.000 A 
ATOM     22  C   UNL     1       0.077  11.629  20.760  0.00  0.00    +0.000 A 
ATOM     23  C   UNL     1       0.786  10.431  20.766  0.00  0.00    +0.000 A 
BRANCH  21  24
ATOM     24  C   UNL     1      -1.352  13.320  19.644  0.00  0.00    +0.000 C 
ATOM     25  N   UNL     1      -2.582  13.376  20.040  0.00  0.00    +0.000 NA
ATOM     26  N   UNL     1      -0.782  14.496  19.254  0.00  0.00    +0.000 N 
ATOM     27  H   UNL     1      -2.950  12.449  20.269  0.00  0.00    +0.000 HD
ATOM     28  H   UNL     1       0.181  14.636  19.531  0.00  0.00    +0.000 HD
ATOM     29  H   UNL     1      -1.372  15.280  19.518  0.00  0.00    +0.000 HD
ENDBRANCH  21  24
BRANCH  23  30
ATOM     30  O   UNL     1       1.452  10.075  21.905  0.00  0.00    +0.000 OA
ATOM     31  H   UNL     1       1.432   9.107  22.005  0.00  0.00    +0.000 HD
ENDBRANCH  23  30
ENDBRANCH   3  18
TORSDOF 5
ENDMDL
