MODEL 1
REMARK VINA RESULT:      -7.2      0.000      0.000
REMARK  Name = 
REMARK  9 active torsions:
REMARK  status: ('A' for Active; 'I' for Inactive)
REMARK    1  A    between atoms: C_1  and  C_2
REMARK    2  A    between atoms: C_2  and  C_3
REMARK    3  A    between atoms: C_5  and  C_6
REMARK    4  A    between atoms: C_11  and  C_13
REMARK    5  A    between atoms: C_13  and  C_14
REMARK    6  A    between atoms: C_13  and  C_15
REMARK    7  A    between atoms: C_13  and  N_16
REMARK    8  A    between atoms: N_16  and  S_17
REMARK    9  A    between atoms: S_17  and  C_18
REMARK                            x       y       z     vdW  Elec       q    Type
REMARK                         _______ _______ _______ _____ _____    ______ ____
ROOT
ATOM      1  C   UNL     1       7.309   4.887  17.080  0.00  0.00    +0.000 C 
ATOM      2  C   UNL     1       6.759   4.585  15.671  0.00  0.00    +0.000 C 
ATOM      3  C   UNL     1       5.235   4.731  15.554  0.00  0.00    +0.000 C 
ATOM      4  C   UNL     1       4.509   4.009  16.691  0.00  0.00    +0.000 C 
ATOM      5  N   UNL     1       5.031   4.441  17.981  0.00  0.00    +0.000 N 
ATOM      6  C   UNL     1       4.396   5.241  18.925  0.00  0.00    +0.000 C 
ATOM      7  O   UNL     1       4.959   5.439  20.011  0.00  0.00    +0.000 OA
ATOM      8  C   UNL     1       6.467   4.166  18.153  0.00  0.00    +0.000 C 
ENDROOT
BRANCH   1  11
ATOM      9  C   UNL     1       8.095   8.150  18.191  0.00  0.00    +0.000 A 
ATOM     10  N   UNL     1       8.217   6.856  18.371  0.00  0.00    +0.000 NA
ATOM     11  C   UNL     1       7.412   6.350  17.384  0.00  0.00    +0.000 A 
ATOM     12  N   UNL     1       6.776   7.274  16.649  0.00  0.00    +0.000 NA
ATOM     13  O   UNL     1       7.237   8.479  17.183  0.00  0.00    +0.000 OA
BRANCH   9  15
ATOM     14  C   UNL     1       8.804  10.523  18.050  0.00  0.00    +0.000 C 
ATOM     15  C   UNL     1       8.777   9.259  18.894  0.00  0.00    +0.000 C 
ENDBRANCH   9  15
ENDBRANCH   1  11
BRANCH   6  16
ATOM     16  C   UNL     1       2.969   5.855  18.678  0.00  0.00    +0.000 C 
ATOM     17  C   UNL     1       2.568   6.603  19.968  0.00  0.00    +0.000 C 
ATOM     18  C   UNL     1       2.980   6.864  17.529  0.00  0.00    +0.000 C 
BRANCH  16  19
ATOM     19  N   UNL     1       2.031   4.728  18.461  0.00  0.00    +0.000 NA
ATOM     20  H   UNL     1       1.818   4.487  17.492  0.00  0.00    +0.000 HD
BRANCH  19  21
ATOM     21  S   UNL     1       1.593   3.576  19.568  0.00  0.00    +0.000 S 
ATOM     22  C   UNL     1       0.785   2.291  18.630  0.00  0.00    +0.000 C 
ATOM     23  O   UNL     1       2.785   3.028  20.174  0.00  0.00    +0.000 OA
ATOM     24  O   UNL     1       0.575   4.214  20.378  0.00  0.00    +0.000 OA
ENDBRANCH  19  21
ENDBRANCH  16  19
ENDBRANCH   6  16
TORSDOF 5
ENDMDL
MODEL 2
REMARK VINA RESULT:      -6.9      0.807      1.036
REMARK  Name = 
REMARK  9 active torsions:
REMARK  status: ('A' for Active; 'I' for Inactive)
REMARK    1  A    between atoms: C_1  and  C_2
REMARK    2  A    between atoms: C_2  and  C_3
REMARK    3  A    between atoms: C_5  and  C_6
REMARK    4  A    between atoms: C_11  and  C_13
REMARK    5  A    between atoms: C_13  and  C_14
REMARK    6  A    between atoms: C_13  and  C_15
REMARK    7  A    between atoms: C_13  and  N_16
REMARK    8  A    between atoms: N_16  and  S_17
REMARK    9  A    between atoms: S_17  and  C_18
REMARK                            x       y       z     vdW  Elec       q    Type
REMARK                         _______ _______ _______ _____ _____    ______ ____
ROOT
ATOM      1  C   UNL     1       7.345   4.918  17.060  0.00  0.00    +0.000 C 
ATOM      2  C   UNL     1       6.859   4.642  15.622  0.00  0.00    +0.000 C 
ATOM      3  C   UNL     1       5.342   4.796  15.438  0.00  0.00    +0.000 C 
ATOM      4  C   UNL     1       4.563   4.059  16.528  0.00  0.00    +0.000 C 
ATOM      5  N   UNL     1       5.028   4.467  17.848  0.00  0.00    +0.000 N 
ATOM      6  C   UNL     1       4.353   5.253  18.776  0.00  0.00    +0.000 C 
ATOM      7  O   UNL     1       4.866   5.430  19.889  0.00  0.00    +0.000 OA
ATOM      8  C   UNL     1       6.453   4.182  18.080  0.00  0.00    +0.000 C 
ENDROOT
BRANCH   1  11
ATOM      9  C   UNL     1       8.111   8.163  18.237  0.00  0.00    +0.000 A 
ATOM     10  N   UNL     1       8.240   6.866  18.391  0.00  0.00    +0.000 NA
ATOM     11  C   UNL     1       7.440   6.375  17.392  0.00  0.00    +0.000 A 
ATOM     12  N   UNL     1       6.799   7.310  16.675  0.00  0.00    +0.000 NA
ATOM     13  O   UNL     1       7.252   8.507  17.234  0.00  0.00    +0.000 OA
BRANCH   9  15
ATOM     14  C   UNL     1       8.750  10.559  18.171  0.00  0.00    +0.000 C 
ATOM     15  C   UNL     1       8.785   9.261  18.962  0.00  0.00    +0.000 C 
ENDBRANCH   9  15
ENDBRANCH   1  11
BRANCH   6  16
ATOM     16  C   UNL     1       2.941   5.877  18.474  0.00  0.00    +0.000 C 
ATOM     17  C   UNL     1       2.433   6.505  19.790  0.00  0.00    +0.000 C 
ATOM     18  C   UNL     1       3.025   6.985  17.423  0.00  0.00    +0.000 C 
BRANCH  16  19
ATOM     19  N   UNL     1       2.037   4.768  18.087  0.00  0.00    +0.000 NA
ATOM     20  H   UNL     1       1.830   4.669  17.092  0.00  0.00    +0.000 HD
BRANCH  19  21
ATOM     21  S   UNL     1       1.636   3.449  19.007  0.00  0.00    +0.000 S 
ATOM     22  C   UNL     1       1.021   4.106  20.547  0.00  0.00    +0.000 C 
ATOM     23  O   UNL     1       0.570   2.726  18.353  0.00  0.00    +0.000 OA
ATOM     24  O   UNL     1       2.902   2.804  19.295  0.00  0.00    +0.000 OA
ENDBRANCH  19  21
ENDBRANCH  16  19
ENDBRANCH   6  16
TORSDOF 5
ENDMDL
MODEL 3
REMARK VINA RESULT:      -6.9      2.441      4.351
REMARK  Name = 
REMARK  9 active torsions:
REMARK  status: ('A' for Active; 'I' for Inactive)
REMARK    1  A    between atoms: C_1  and  C_2
REMARK    2  A    between atoms: C_2  and  C_3
REMARK    3  A    between atoms: C_5  and  C_6
REMARK    4  A    between atoms: C_11  and  C_13
REMARK    5  A    between atoms: C_13  and  C_14
REMARK    6  A    between atoms: C_13  and  C_15
REMARK    7  A    between atoms: C_13  and  N_16
REMARK    8  A    between atoms: N_16  and  S_17
REMARK    9  A    between atoms: S_17  and  C_18
REMARK                            x       y       z     vdW  Elec       q    Type
REMARK                         _______ _______ _______ _____ _____    ______ ____
ROOT
ATOM      1  C   UNL     1       5.994   6.497  16.893  0.00  0.00    +0.000 C 
ATOM      2  C   UNL     1       7.037   6.373  18.023  0.00  0.00    +0.000 C 
ATOM      3  C   UNL     1       6.716   5.275  19.048  0.00  0.00    +0.000 C 
ATOM      4  C   UNL     1       5.265   5.354  19.525  0.00  0.00    +0.000 C 
ATOM      5  N   UNL     1       4.356   5.362  18.385  0.00  0.00    +0.000 N 
ATOM      6  C   UNL     1       3.506   4.341  17.976  0.00  0.00    +0.000 C 
ATOM      7  O   UNL     1       2.736   4.553  17.029  0.00  0.00    +0.000 OA
ATOM      8  C   UNL     1       4.566   6.501  17.477  0.00  0.00    +0.000 C 
ENDROOT
BRANCH   1  11
ATOM      9  C   UNL     1       5.739   4.314  14.125  0.00  0.00    +0.000 A 
ATOM     10  N   UNL     1       5.149   5.182  14.912  0.00  0.00    +0.000 NA
ATOM     11  C   UNL     1       6.129   5.449  15.833  0.00  0.00    +0.000 A 
ATOM     12  N   UNL     1       7.261   4.749  15.666  0.00  0.00    +0.000 NA
ATOM     13  O   UNL     1       7.004   3.995  14.520  0.00  0.00    +0.000 OA
BRANCH   9  15
ATOM     14  C   UNL     1       6.371   3.165  12.019  0.00  0.00    +0.000 C 
ATOM     15  C   UNL     1       5.235   3.687  12.883  0.00  0.00    +0.000 C 
ENDBRANCH   9  15
ENDBRANCH   1  11
BRANCH   6  16
ATOM     16  C   UNL     1       3.456   2.949  18.707  0.00  0.00    +0.000 C 
ATOM     17  C   UNL     1       2.283   2.156  18.092  0.00  0.00    +0.000 C 
ATOM     18  C   UNL     1       4.738   2.147  18.485  0.00  0.00    +0.000 C 
BRANCH  16  19
ATOM     19  N   UNL     1       3.167   3.208  20.138  0.00  0.00    +0.000 NA
ATOM     20  H   UNL     1       3.969   3.380  20.746  0.00  0.00    +0.000 HD
BRANCH  19  21
ATOM     21  S   UNL     1       1.705   3.635  20.793  0.00  0.00    +0.000 S 
ATOM     22  C   UNL     1       1.702   5.418  20.839  0.00  0.00    +0.000 C 
ATOM     23  O   UNL     1       0.648   3.193  19.912  0.00  0.00    +0.000 OA
ATOM     24  O   UNL     1       1.770   3.174  22.165  0.00  0.00    +0.000 OA
ENDBRANCH  19  21
ENDBRANCH  16  19
ENDBRANCH   6  16
TORSDOF 5
ENDMDL
MODEL 4
REMARK VINA RESULT:      -6.7      2.471      4.201
REMARK  Name = 
REMARK  9 active torsions:
REMARK  status: ('A' for Active; 'I' for Inactive)
REMARK    1  A    between atoms: C_1  and  C_2
REMARK    2  A    between atoms: C_2  and  C_3
REMARK    3  A    between atoms: C_5  and  C_6
REMARK    4  A    between atoms: C_11  and  C_13
REMARK    5  A    between atoms: C_13  and  C_14
REMARK    6  A    between atoms: C_13  and  C_15
REMARK    7  A    between atoms: C_13  and  N_16
REMARK    8  A    between atoms: N_16  and  S_17
REMARK    9  A    between atoms: S_17  and  C_18
REMARK                            x       y       z     vdW  Elec       q    Type
REMARK                         _______ _______ _______ _____ _____    ______ ____
ROOT
ATOM      1  C   UNL     1       7.223   5.996  16.878  0.00  0.00    +0.000 C 
ATOM      2  C   UNL     1       7.887   5.222  18.036  0.00  0.00    +0.000 C 
ATOM      3  C   UNL     1       6.887   4.538  18.981  0.00  0.00    +0.000 C 
ATOM      4  C   UNL     1       5.770   5.491  19.408  0.00  0.00    +0.000 C 
ATOM      5  N   UNL     1       5.140   6.090  18.239  0.00  0.00    +0.000 N 
ATOM      6  C   UNL     1       3.869   5.830  17.738  0.00  0.00    +0.000 C 
ATOM      7  O   UNL     1       3.461   6.499  16.778  0.00  0.00    +0.000 OA
ATOM      8  C   UNL     1       6.070   6.873  17.409  0.00  0.00    +0.000 C 
ENDROOT
BRANCH   1  11
ATOM      9  C   UNL     1       6.548   4.293  13.855  0.00  0.00    +0.000 A 
ATOM     10  N   UNL     1       7.037   5.359  14.444  0.00  0.00    +0.000 NA
ATOM     11  C   UNL     1       6.749   5.118  15.763  0.00  0.00    +0.000 A 
ATOM     12  N   UNL     1       6.071   3.983  15.991  0.00  0.00    +0.000 NA
ATOM     13  O   UNL     1       5.942   3.427  14.717  0.00  0.00    +0.000 OA
BRANCH   9  15
ATOM     14  C   UNL     1       5.341   3.181  11.995  0.00  0.00    +0.000 C 
ATOM     15  C   UNL     1       6.604   3.907  12.428  0.00  0.00    +0.000 C 
ENDBRANCH   9  15
ENDBRANCH   1  11
BRANCH   6  16
ATOM     16  C   UNL     1       2.919   4.754  18.382  0.00  0.00    +0.000 C 
ATOM     17  C   UNL     1       2.763   5.122  19.873  0.00  0.00    +0.000 C 
ATOM     18  C   UNL     1       1.531   4.771  17.742  0.00  0.00    +0.000 C 
BRANCH  16  19
ATOM     19  N   UNL     1       3.599   3.441  18.277  0.00  0.00    +0.000 NA
ATOM     20  H   UNL     1       4.501   3.427  17.798  0.00  0.00    +0.000 HD
BRANCH  19  21
ATOM     21  S   UNL     1       3.271   2.081  19.165  0.00  0.00    +0.000 S 
ATOM     22  C   UNL     1       4.364   2.152  20.573  0.00  0.00    +0.000 C 
ATOM     23  O   UNL     1       1.906   2.143  19.633  0.00  0.00    +0.000 OA
ATOM     24  O   UNL     1       3.721   0.983  18.333  0.00  0.00    +0.000 OA
ENDBRANCH  19  21
ENDBRANCH  16  19
ENDBRANCH   6  16
TORSDOF 5
ENDMDL
MODEL 5
REMARK VINA RESULT:      -6.7      1.271      1.469
REMARK  Name = 
REMARK  9 active torsions:
REMARK  status: ('A' for Active; 'I' for Inactive)
REMARK    1  A    between atoms: C_1  and  C_2
REMARK    2  A    between atoms: C_2  and  C_3
REMARK    3  A    between atoms: C_5  and  C_6
REMARK    4  A    between atoms: C_11  and  C_13
REMARK    5  A    between atoms: C_13  and  C_14
REMARK    6  A    between atoms: C_13  and  C_15
REMARK    7  A    between atoms: C_13  and  N_16
REMARK    8  A    between atoms: N_16  and  S_17
REMARK    9  A    between atoms: S_17  and  C_18
REMARK                            x       y       z     vdW  Elec       q    Type
REMARK                         _______ _______ _______ _____ _____    ______ ____
ROOT
ATOM      1  C   UNL     1       7.241   4.654  16.271  0.00  0.00    +0.000 C 
ATOM      2  C   UNL     1       6.495   5.039  14.977  0.00  0.00    +0.000 C 
ATOM      3  C   UNL     1       5.010   5.367  15.190  0.00  0.00    +0.000 C 
ATOM      4  C   UNL     1       4.311   4.303  16.037  0.00  0.00    +0.000 C 
ATOM      5  N   UNL     1       5.037   4.089  17.282  0.00  0.00    +0.000 N 
ATOM      6  C   UNL     1       4.648   4.465  18.563  0.00  0.00    +0.000 C 
ATOM      7  O   UNL     1       5.354   4.124  19.523  0.00  0.00    +0.000 OA
ATOM      8  C   UNL     1       6.421   3.629  17.081  0.00  0.00    +0.000 C 
ENDROOT
BRANCH   1  11
ATOM      9  C   UNL     1       7.869   7.804  17.748  0.00  0.00    +0.000 A 
ATOM     10  N   UNL     1       7.630   7.117  16.656  0.00  0.00    +0.000 NA
ATOM     11  C   UNL     1       7.610   5.828  17.123  0.00  0.00    +0.000 A 
ATOM     12  N   UNL     1       7.870   5.702  18.433  0.00  0.00    +0.000 NA
ATOM     13  O   UNL     1       8.038   7.023  18.854  0.00  0.00    +0.000 OA
BRANCH   9  15
ATOM     14  C   UNL     1       8.994   9.655  18.957  0.00  0.00    +0.000 C 
ATOM     15  C   UNL     1       7.938   9.270  17.934  0.00  0.00    +0.000 C 
ENDBRANCH   9  15
ENDBRANCH   1  11
BRANCH   6  16
ATOM     16  C   UNL     1       3.319   5.261  18.834  0.00  0.00    +0.000 C 
ATOM     17  C   UNL     1       3.641   6.759  18.642  0.00  0.00    +0.000 C 
ATOM     18  C   UNL     1       2.220   4.882  17.841  0.00  0.00    +0.000 C 
BRANCH  16  19
ATOM     19  N   UNL     1       2.939   5.026  20.248  0.00  0.00    +0.000 NA
ATOM     20  H   UNL     1       3.094   5.797  20.900  0.00  0.00    +0.000 HD
BRANCH  19  21
ATOM     21  S   UNL     1       1.951   3.827  20.823  0.00  0.00    +0.000 S 
ATOM     22  C   UNL     1       2.315   2.388  19.834  0.00  0.00    +0.000 C 
ATOM     23  O   UNL     1       2.301   3.547  22.196  0.00  0.00    +0.000 OA
ATOM     24  O   UNL     1       0.612   4.256  20.471  0.00  0.00    +0.000 OA
ENDBRANCH  19  21
ENDBRANCH  16  19
ENDBRANCH   6  16
TORSDOF 5
ENDMDL
MODEL 6
REMARK VINA RESULT:      -6.5      0.964      1.041
REMARK  Name = 
REMARK  9 active torsions:
REMARK  status: ('A' for Active; 'I' for Inactive)
REMARK    1  A    between atoms: C_1  and  C_2
REMARK    2  A    between atoms: C_2  and  C_3
REMARK    3  A    between atoms: C_5  and  C_6
REMARK    4  A    between atoms: C_11  and  C_13
REMARK    5  A    between atoms: C_13  and  C_14
REMARK    6  A    between atoms: C_13  and  C_15
REMARK    7  A    between atoms: C_13  and  N_16
REMARK    8  A    between atoms: N_16  and  S_17
REMARK    9  A    between atoms: S_17  and  C_18
REMARK                            x       y       z     vdW  Elec       q    Type
REMARK                         _______ _______ _______ _____ _____    ______ ____
ROOT
ATOM      1  C   UNL     1       7.428   5.239  16.682  0.00  0.00    +0.000 C 
ATOM      2  C   UNL     1       6.739   5.063  15.313  0.00  0.00    +0.000 C 
ATOM      3  C   UNL     1       5.205   5.040  15.388  0.00  0.00    +0.000 C 
ATOM      4  C   UNL     1       4.707   4.092  16.480  0.00  0.00    +0.000 C 
ATOM      5  N   UNL     1       5.340   4.408  17.754  0.00  0.00    +0.000 N 
ATOM      6  C   UNL     1       4.750   4.993  18.869  0.00  0.00    +0.000 C 
ATOM      7  O   UNL     1       5.422   5.112  19.903  0.00  0.00    +0.000 OA
ATOM      8  C   UNL     1       6.807   4.286  17.724  0.00  0.00    +0.000 C 
ENDROOT
BRANCH   1  11
ATOM      9  C   UNL     1       8.019   8.404  18.144  0.00  0.00    +0.000 A 
ATOM     10  N   UNL     1       8.310   7.125  18.109  0.00  0.00    +0.000 NA
ATOM     11  C   UNL     1       7.417   6.650  17.183  0.00  0.00    +0.000 A 
ATOM     12  N   UNL     1       6.574   7.571  16.694  0.00  0.00    +0.000 NA
ATOM     13  O   UNL     1       6.979   8.746  17.330  0.00  0.00    +0.000 OA
BRANCH   9  15
ATOM     14  C   UNL     1       9.234  10.559  17.971  0.00  0.00    +0.000 C 
ATOM     15  C   UNL     1       8.679   9.491  18.899  0.00  0.00    +0.000 C 
ENDBRANCH   9  15
ENDBRANCH   1  11
BRANCH   6  16
ATOM     16  C   UNL     1       3.248   5.460  18.873  0.00  0.00    +0.000 C 
ATOM     17  C   UNL     1       3.244   6.978  18.590  0.00  0.00    +0.000 C 
ATOM     18  C   UNL     1       2.439   4.771  17.773  0.00  0.00    +0.000 C 
BRANCH  16  19
ATOM     19  N   UNL     1       2.712   5.220  20.234  0.00  0.00    +0.000 NA
ATOM     20  H   UNL     1       2.581   6.041  20.828  0.00  0.00    +0.000 HD
BRANCH  19  21
ATOM     21  S   UNL     1       1.942   3.854  20.771  0.00  0.00    +0.000 S 
ATOM     22  C   UNL     1       2.589   2.519  19.781  0.00  0.00    +0.000 C 
ATOM     23  O   UNL     1       2.301   3.624  22.151  0.00  0.00    +0.000 OA
ATOM     24  O   UNL     1       0.558   4.037  20.385  0.00  0.00    +0.000 OA
ENDBRANCH  19  21
ENDBRANCH  16  19
ENDBRANCH   6  16
TORSDOF 5
ENDMDL
MODEL 7
REMARK VINA RESULT:      -6.5      2.441      4.030
REMARK  Name = 
REMARK  9 active torsions:
REMARK  status: ('A' for Active; 'I' for Inactive)
REMARK    1  A    between atoms: C_1  and  C_2
REMARK    2  A    between atoms: C_2  and  C_3
REMARK    3  A    between atoms: C_5  and  C_6
REMARK    4  A    between atoms: C_11  and  C_13
REMARK    5  A    between atoms: C_13  and  C_14
REMARK    6  A    between atoms: C_13  and  C_15
REMARK    7  A    between atoms: C_13  and  N_16
REMARK    8  A    between atoms: N_16  and  S_17
REMARK    9  A    between atoms: S_17  and  C_18
REMARK                            x       y       z     vdW  Elec       q    Type
REMARK                         _______ _______ _______ _____ _____    ______ ____
ROOT
ATOM      1  C   UNL     1       7.174   6.047  17.023  0.00  0.00    +0.000 C 
ATOM      2  C   UNL     1       7.864   5.267  18.161  0.00  0.00    +0.000 C 
ATOM      3  C   UNL     1       6.899   4.435  19.019  0.00  0.00    +0.000 C 
ATOM      4  C   UNL     1       5.681   5.252  19.452  0.00  0.00    +0.000 C 
ATOM      5  N   UNL     1       5.041   5.863  18.294  0.00  0.00    +0.000 N 
ATOM      6  C   UNL     1       3.821   5.519  17.723  0.00  0.00    +0.000 C 
ATOM      7  O   UNL     1       3.388   6.206  16.787  0.00  0.00    +0.000 OA
ATOM      8  C   UNL     1       5.924   6.779  17.554  0.00  0.00    +0.000 C 
ENDROOT
BRANCH   1  11
ATOM      9  C   UNL     1       6.800   4.468  13.883  0.00  0.00    +0.000 A 
ATOM     10  N   UNL     1       7.180   5.529  14.554  0.00  0.00    +0.000 NA
ATOM     11  C   UNL     1       6.829   5.201  15.838  0.00  0.00    +0.000 A 
ATOM     12  N   UNL     1       6.215   4.016  15.966  0.00  0.00    +0.000 NA
ATOM     13  O   UNL     1       6.201   3.520  14.661  0.00  0.00    +0.000 OA
BRANCH   9  15
ATOM     14  C   UNL     1       5.947   3.143  11.967  0.00  0.00    +0.000 C 
ATOM     15  C   UNL     1       6.969   4.161  12.446  0.00  0.00    +0.000 C 
ENDBRANCH   9  15
ENDBRANCH   1  11
BRANCH   6  16
ATOM     16  C   UNL     1       2.953   4.321  18.260  0.00  0.00    +0.000 C 
ATOM     17  C   UNL     1       1.527   4.508  17.698  0.00  0.00    +0.000 C 
ATOM     18  C   UNL     1       3.484   2.974  17.769  0.00  0.00    +0.000 C 
BRANCH  16  19
ATOM     19  N   UNL     1       2.909   4.432  19.737  0.00  0.00    +0.000 NA
ATOM     20  H   UNL     1       2.748   5.363  20.125  0.00  0.00    +0.000 HD
BRANCH  19  21
ATOM     21  S   UNL     1       2.703   3.193  20.819  0.00  0.00    +0.000 S 
ATOM     22  C   UNL     1       1.278   2.286  20.244  0.00  0.00    +0.000 C 
ATOM     23  O   UNL     1       3.857   2.326  20.767  0.00  0.00    +0.000 OA
ATOM     24  O   UNL     1       2.320   3.846  22.055  0.00  0.00    +0.000 OA
ENDBRANCH  19  21
ENDBRANCH  16  19
ENDBRANCH   6  16
TORSDOF 5
ENDMDL
MODEL 8
REMARK VINA RESULT:      -6.4      2.452      4.322
REMARK  Name = 
REMARK  9 active torsions:
REMARK  status: ('A' for Active; 'I' for Inactive)
REMARK    1  A    between atoms: C_1  and  C_2
REMARK    2  A    between atoms: C_2  and  C_3
REMARK    3  A    between atoms: C_5  and  C_6
REMARK    4  A    between atoms: C_11  and  C_13
REMARK    5  A    between atoms: C_13  and  C_14
REMARK    6  A    between atoms: C_13  and  C_15
REMARK    7  A    between atoms: C_13  and  N_16
REMARK    8  A    between atoms: N_16  and  S_17
REMARK    9  A    between atoms: S_17  and  C_18
REMARK                            x       y       z     vdW  Elec       q    Type
REMARK                         _______ _______ _______ _____ _____    ______ ____
ROOT
ATOM      1  C   UNL     1       5.876   6.490  16.854  0.00  0.00    +0.000 C 
ATOM      2  C   UNL     1       6.878   6.442  18.026  0.00  0.00    +0.000 C 
ATOM      3  C   UNL     1       6.568   5.354  19.064  0.00  0.00    +0.000 C 
ATOM      4  C   UNL     1       5.097   5.373  19.482  0.00  0.00    +0.000 C 
ATOM      5  N   UNL     1       4.235   5.311  18.308  0.00  0.00    +0.000 N 
ATOM      6  C   UNL     1       3.452   4.241  17.890  0.00  0.00    +0.000 C 
ATOM      7  O   UNL     1       2.711   4.394  16.909  0.00  0.00    +0.000 OA
ATOM      8  C   UNL     1       4.428   6.438  17.381  0.00  0.00    +0.000 C 
ENDROOT
BRANCH   1  11
ATOM      9  C   UNL     1       5.851   4.251  14.118  0.00  0.00    +0.000 A 
ATOM     10  N   UNL     1       5.193   5.120  14.848  0.00  0.00    +0.000 NA
ATOM     11  C   UNL     1       6.104   5.426  15.826  0.00  0.00    +0.000 A 
ATOM     12  N   UNL     1       7.260   4.750  15.747  0.00  0.00    +0.000 NA
ATOM     13  O   UNL     1       7.096   3.969  14.602  0.00  0.00    +0.000 OA
BRANCH   9  15
ATOM     14  C   UNL     1       6.615   3.442  11.901  0.00  0.00    +0.000 C 
ATOM     15  C   UNL     1       5.444   3.590  12.859  0.00  0.00    +0.000 C 
ENDBRANCH   9  15
ENDBRANCH   1  11
BRANCH   6  16
ATOM     16  C   UNL     1       3.439   2.865  18.653  0.00  0.00    +0.000 C 
ATOM     17  C   UNL     1       2.333   2.001  18.009  0.00  0.00    +0.000 C 
ATOM     18  C   UNL     1       4.767   2.123  18.504  0.00  0.00    +0.000 C 
BRANCH  16  19
ATOM     19  N   UNL     1       3.076   3.142  20.063  0.00  0.00    +0.000 NA
ATOM     20  H   UNL     1       3.846   3.237  20.727  0.00  0.00    +0.000 HD
BRANCH  19  21
ATOM     21  S   UNL     1       1.617   3.697  20.621  0.00  0.00    +0.000 S 
ATOM     22  C   UNL     1       1.275   2.750  22.094  0.00  0.00    +0.000 C 
ATOM     23  O   UNL     1       1.751   5.089  20.986  0.00  0.00    +0.000 OA
ATOM     24  O   UNL     1       0.658   3.281  19.617  0.00  0.00    +0.000 OA
ENDBRANCH  19  21
ENDBRANCH  16  19
ENDBRANCH   6  16
TORSDOF 5
ENDMDL
MODEL 9
REMARK VINA RESULT:      -6.4      2.356      3.998
REMARK  Name = 
REMARK  9 active torsions:
REMARK  status: ('A' for Active; 'I' for Inactive)
REMARK    1  A    between atoms: C_1  and  C_2
REMARK    2  A    between atoms: C_2  and  C_3
REMARK    3  A    between atoms: C_5  and  C_6
REMARK    4  A    between atoms: C_11  and  C_13
REMARK    5  A    between atoms: C_13  and  C_14
REMARK    6  A    between atoms: C_13  and  C_15
REMARK    7  A    between atoms: C_13  and  N_16
REMARK    8  A    between atoms: N_16  and  S_17
REMARK    9  A    between atoms: S_17  and  C_18
REMARK                            x       y       z     vdW  Elec       q    Type
REMARK                         _______ _______ _______ _____ _____    ______ ____
ROOT
ATOM      1  C   UNL     1       6.731   6.585  17.211  0.00  0.00    +0.000 C 
ATOM      2  C   UNL     1       7.707   5.737  18.052  0.00  0.00    +0.000 C 
ATOM      3  C   UNL     1       7.045   4.544  18.757  0.00  0.00    +0.000 C 
ATOM      4  C   UNL     1       5.766   4.957  19.487  0.00  0.00    +0.000 C 
ATOM      5  N   UNL     1       4.869   5.660  18.579  0.00  0.00    +0.000 N 
ATOM      6  C   UNL     1       3.669   5.197  18.050  0.00  0.00    +0.000 C 
ATOM      7  O   UNL     1       2.988   5.967  17.358  0.00  0.00    +0.000 OA
ATOM      8  C   UNL     1       5.451   6.889  18.015  0.00  0.00    +0.000 C 
ENDROOT
BRANCH   1  11
ATOM      9  C   UNL     1       6.386   4.649  14.273  0.00  0.00    +0.000 A 
ATOM     10  N   UNL     1       7.098   4.936  15.337  0.00  0.00    +0.000 NA
ATOM     11  C   UNL     1       6.392   5.974  15.887  0.00  0.00    +0.000 A 
ATOM     12  N   UNL     1       5.317   6.357  15.182  0.00  0.00    +0.000 NA
ATOM     13  O   UNL     1       5.307   5.467  14.106  0.00  0.00    +0.000 OA
BRANCH   9  15
ATOM     14  C   UNL     1       5.375   3.429  12.365  0.00  0.00    +0.000 C 
ATOM     15  C   UNL     1       6.576   3.563  13.287  0.00  0.00    +0.000 C 
ENDBRANCH   9  15
ENDBRANCH   1  11
BRANCH   6  16
ATOM     16  C   UNL     1       3.127   3.750  18.346  0.00  0.00    +0.000 C 
ATOM     17  C   UNL     1       1.684   3.687  17.801  0.00  0.00    +0.000 C 
ATOM     18  C   UNL     1       3.951   2.680  17.630  0.00  0.00    +0.000 C 
BRANCH  16  19
ATOM     19  N   UNL     1       3.095   3.579  19.818  0.00  0.00    +0.000 NA
ATOM     20  H   UNL     1       3.996   3.501  20.292  0.00  0.00    +0.000 HD
BRANCH  19  21
ATOM     21  S   UNL     1       1.814   3.885  20.824  0.00  0.00    +0.000 S 
ATOM     22  C   UNL     1       1.623   5.658  20.833  0.00  0.00    +0.000 C 
ATOM     23  O   UNL     1       0.622   3.293  20.262  0.00  0.00    +0.000 OA
ATOM     24  O   UNL     1       2.283   3.502  22.141  0.00  0.00    +0.000 OA
ENDBRANCH  19  21
ENDBRANCH  16  19
ENDBRANCH   6  16
TORSDOF 5
ENDMDL
