MODEL 1
REMARK VINA RESULT:      -8.3      0.000      0.000
REMARK  Name = 
REMARK  3 active torsions:
REMARK  status: ('A' for Active; 'I' for Inactive)
REMARK    1  A    between atoms: C_5  and  N_6
REMARK    2  A    between atoms: C_8  and  C_9
REMARK    3  A    between atoms: N_17  and  N_18
REMARK                            x       y       z     vdW  Elec       q    Type
REMARK                         _______ _______ _______ _____ _____    ______ ____
ROOT
ATOM      1  N   UNL     1       1.077   8.199  20.576  0.00  0.00    +0.000 N 
ATOM      2  C   UNL     1       1.352   6.926  21.037  0.00  0.00    +0.000 A 
ATOM      3  C   UNL     1       2.175   6.269  20.138  0.00  0.00    +0.000 A 
ATOM      4  C   UNL     1       2.466   7.205  19.084  0.00  0.00    +0.000 A 
ATOM      5  C   UNL     1       3.265   7.222  17.910  0.00  0.00    +0.000 A 
ATOM      6  N   UNL     1       3.980   6.074  17.478  0.00  0.00    +0.000 N 
ATOM      7  N   UNL     1       3.356   8.388  17.220  0.00  0.00    +0.000 NA
ATOM      8  C   UNL     1       2.647   9.448  17.625  0.00  0.00    +0.000 A 
ATOM      9  N   UNL     1       1.828   9.520  18.677  0.00  0.00    +0.000 NA
ATOM     10  C   UNL     1       1.771   8.376  19.384  0.00  0.00    +0.000 A 
ATOM     11  H   UNL     1       3.383   5.260  17.630  0.00  0.00    +0.000 HD
ENDROOT
BRANCH   1  16
ATOM     12  F   UNL     1      -1.947  12.030  23.236  0.00  0.00    +0.000 F 
ATOM     13  C   UNL     1      -1.243  11.091  22.589  0.00  0.00    +0.000 A 
ATOM     14  C   UNL     1      -0.679  10.043  23.307  0.00  0.00    +0.000 A 
ATOM     15  C   UNL     1       0.063   9.064  22.638  0.00  0.00    +0.000 A 
ATOM     16  C   UNL     1       0.263   9.160  21.250  0.00  0.00    +0.000 A 
ATOM     17  C   UNL     1      -0.323  10.220  20.542  0.00  0.00    +0.000 A 
ATOM     18  C   UNL     1      -1.084  11.181  21.214  0.00  0.00    +0.000 A 
ENDBRANCH   1  16
BRANCH   3  19
ATOM     19  C   UNL     1       2.635   4.901  20.381  0.00  0.00    +0.000 A 
ATOM     20  C   UNL     1       1.971   4.063  21.289  0.00  0.00    +0.000 A 
ATOM     21  C   UNL     1       2.402   2.748  21.498  0.00  0.00    +0.000 A 
ATOM     22  C   UNL     1       3.483   2.244  20.781  0.00  0.00    +0.000 A 
ATOM     23  C   UNL     1       4.161   3.068  19.889  0.00  0.00    +0.000 A 
ATOM     24  C   UNL     1       3.758   4.395  19.719  0.00  0.00    +0.000 A 
ENDBRANCH   3  19
BRANCH   6  25
ATOM     25  N   UNL     1       4.717   6.112  16.262  0.00  0.00    +0.000 NA
ATOM     26  C   UNL     1       5.038   4.740  15.811  0.00  0.00    +0.000 C 
ATOM     27  C   UNL     1       6.096   4.025  16.666  0.00  0.00    +0.000 C 
ATOM     28  O   UNL     1       7.301   4.789  16.769  0.00  0.00    +0.000 OA
ATOM     29  C   UNL     1       7.028   6.089  17.309  0.00  0.00    +0.000 C 
ATOM     30  C   UNL     1       5.989   6.848  16.468  0.00  0.00    +0.000 C 
ENDBRANCH   6  25
TORSDOF 3
ENDMDL
MODEL 2
REMARK VINA RESULT:      -8.0      9.169     10.698
REMARK  Name = 
REMARK  3 active torsions:
REMARK  status: ('A' for Active; 'I' for Inactive)
REMARK    1  A    between atoms: C_5  and  N_6
REMARK    2  A    between atoms: C_8  and  C_9
REMARK    3  A    between atoms: N_17  and  N_18
REMARK                            x       y       z     vdW  Elec       q    Type
REMARK                         _______ _______ _______ _____ _____    ______ ____
ROOT
ATOM      1  N   UNL     1       7.990  12.851  23.193  0.00  0.00    +0.000 N 
ATOM      2  C   UNL     1       8.729  12.134  22.272  0.00  0.00    +0.000 A 
ATOM      3  C   UNL     1       9.204  12.984  21.287  0.00  0.00    +0.000 A 
ATOM      4  C   UNL     1       8.776  14.311  21.645  0.00  0.00    +0.000 A 
ATOM      5  C   UNL     1       8.952  15.625  21.136  0.00  0.00    +0.000 A 
ATOM      6  N   UNL     1       9.654  15.867  19.925  0.00  0.00    +0.000 N 
ATOM      7  N   UNL     1       8.456  16.659  21.862  0.00  0.00    +0.000 NA
ATOM      8  C   UNL     1       7.769  16.406  22.982  0.00  0.00    +0.000 A 
ATOM      9  N   UNL     1       7.501  15.211  23.515  0.00  0.00    +0.000 NA
ATOM     10  C   UNL     1       8.029  14.189  22.817  0.00  0.00    +0.000 A 
ATOM     11  H   UNL     1       9.392  15.136  19.262  0.00  0.00    +0.000 HD
ENDROOT
BRANCH   1  16
ATOM     12  F   UNL     1       5.598  10.552  27.652  0.00  0.00    +0.000 F 
ATOM     13  C   UNL     1       6.159  11.132  26.583  0.00  0.00    +0.000 A 
ATOM     14  C   UNL     1       5.576  10.969  25.332  0.00  0.00    +0.000 A 
ATOM     15  C   UNL     1       6.162  11.565  24.210  0.00  0.00    +0.000 A 
ATOM     16  C   UNL     1       7.353  12.298  24.346  0.00  0.00    +0.000 A 
ATOM     17  C   UNL     1       7.920  12.461  25.620  0.00  0.00    +0.000 A 
ATOM     18  C   UNL     1       7.315  11.882  26.739  0.00  0.00    +0.000 A 
ENDBRANCH   1  16
BRANCH   3  19
ATOM     19  C   UNL     1      10.030  12.490  20.185  0.00  0.00    +0.000 A 
ATOM     20  C   UNL     1      11.379  12.159  20.380  0.00  0.00    +0.000 A 
ATOM     21  C   UNL     1      12.157  11.665  19.327  0.00  0.00    +0.000 A 
ATOM     22  C   UNL     1      11.588  11.467  18.071  0.00  0.00    +0.000 A 
ATOM     23  C   UNL     1      10.256  11.806  17.858  0.00  0.00    +0.000 A 
ATOM     24  C   UNL     1       9.497  12.345  18.900  0.00  0.00    +0.000 A 
ENDBRANCH   3  19
BRANCH   6  25
ATOM     25  N   UNL     1       9.752  17.191  19.415  0.00  0.00    +0.000 NA
ATOM     26  C   UNL     1       9.533  17.197  17.952  0.00  0.00    +0.000 C 
ATOM     27  C   UNL     1      10.682  16.580  17.138  0.00  0.00    +0.000 C 
ATOM     28  O   UNL     1      11.937  17.200  17.437  0.00  0.00    +0.000 OA
ATOM     29  C   UNL     1      12.222  17.109  18.839  0.00  0.00    +0.000 C 
ATOM     30  C   UNL     1      11.105  17.736  19.690  0.00  0.00    +0.000 C 
ENDBRANCH   6  25
TORSDOF 3
ENDMDL
MODEL 3
REMARK VINA RESULT:      -8.0      5.067      9.880
REMARK  Name = 
REMARK  3 active torsions:
REMARK  status: ('A' for Active; 'I' for Inactive)
REMARK    1  A    between atoms: C_5  and  N_6
REMARK    2  A    between atoms: C_8  and  C_9
REMARK    3  A    between atoms: N_17  and  N_18
REMARK                            x       y       z     vdW  Elec       q    Type
REMARK                         _______ _______ _______ _____ _____    ______ ____
ROOT
ATOM      1  N   UNL     1       1.070  10.083  19.957  0.00  0.00    +0.000 N 
ATOM      2  C   UNL     1       1.297  11.298  19.341  0.00  0.00    +0.000 A 
ATOM      3  C   UNL     1       0.677  12.309  20.057  0.00  0.00    +0.000 A 
ATOM      4  C   UNL     1       0.075  11.691  21.208  0.00  0.00    +0.000 A 
ATOM      5  C   UNL     1      -0.642  12.122  22.355  0.00  0.00    +0.000 A 
ATOM      6  N   UNL     1      -1.003  13.484  22.540  0.00  0.00    +0.000 N 
ATOM      7  N   UNL     1      -0.949  11.196  23.299  0.00  0.00    +0.000 NA
ATOM      8  C   UNL     1      -0.630   9.914  23.089  0.00  0.00    +0.000 A 
ATOM      9  N   UNL     1      -0.009   9.398  22.025  0.00  0.00    +0.000 NA
ATOM     10  C   UNL     1       0.332  10.323  21.110  0.00  0.00    +0.000 A 
ATOM     11  H   UNL     1      -1.296  13.853  21.634  0.00  0.00    +0.000 HD
ENDROOT
BRANCH   1  16
ATOM     12  F   UNL     1       3.152   5.241  18.191  0.00  0.00    +0.000 F 
ATOM     13  C   UNL     1       2.622   6.397  18.612  0.00  0.00    +0.000 A 
ATOM     14  C   UNL     1       2.446   7.438  17.708  0.00  0.00    +0.000 A 
ATOM     15  C   UNL     1       1.901   8.650  18.143  0.00  0.00    +0.000 A 
ATOM     16  C   UNL     1       1.564   8.823  19.497  0.00  0.00    +0.000 A 
ATOM     17  C   UNL     1       1.740   7.757  20.392  0.00  0.00    +0.000 A 
ATOM     18  C   UNL     1       2.262   6.540  19.944  0.00  0.00    +0.000 A 
ENDBRANCH   1  16
BRANCH   3  19
ATOM     19  C   UNL     1       0.762  13.708  19.634  0.00  0.00    +0.000 A 
ATOM     20  C   UNL     1       1.973  14.414  19.699  0.00  0.00    +0.000 A 
ATOM     21  C   UNL     1       2.052  15.744  19.271  0.00  0.00    +0.000 A 
ATOM     22  C   UNL     1       0.929  16.376  18.743  0.00  0.00    +0.000 A 
ATOM     23  C   UNL     1      -0.282  15.694  18.686  0.00  0.00    +0.000 A 
ATOM     24  C   UNL     1      -0.368  14.383  19.161  0.00  0.00    +0.000 A 
ENDBRANCH   3  19
BRANCH   6  25
ATOM     25  N   UNL     1      -1.777  13.865  23.670  0.00  0.00    +0.000 NA
ATOM     26  C   UNL     1      -3.192  14.062  23.283  0.00  0.00    +0.000 C 
ATOM     27  C   UNL     1      -3.446  15.315  22.431  0.00  0.00    +0.000 C 
ATOM     28  O   UNL     1      -2.955  16.499  23.067  0.00  0.00    +0.000 OA
ATOM     29  C   UNL     1      -1.556  16.373  23.353  0.00  0.00    +0.000 C 
ATOM     30  C   UNL     1      -1.261  15.142  24.225  0.00  0.00    +0.000 C 
ENDBRANCH   6  25
TORSDOF 3
ENDMDL
MODEL 4
REMARK VINA RESULT:      -8.0      5.475     10.089
REMARK  Name = 
REMARK  3 active torsions:
REMARK  status: ('A' for Active; 'I' for Inactive)
REMARK    1  A    between atoms: C_5  and  N_6
REMARK    2  A    between atoms: C_8  and  C_9
REMARK    3  A    between atoms: N_17  and  N_18
REMARK                            x       y       z     vdW  Elec       q    Type
REMARK                         _______ _______ _______ _____ _____    ______ ____
ROOT
ATOM      1  N   UNL     1      -0.448  10.352  19.337  0.00  0.00    +0.000 N 
ATOM      2  C   UNL     1      -0.562  11.217  20.408  0.00  0.00    +0.000 A 
ATOM      3  C   UNL     1      -1.750  11.922  20.317  0.00  0.00    +0.000 A 
ATOM      4  C   UNL     1      -2.434  11.431  19.150  0.00  0.00    +0.000 A 
ATOM      5  C   UNL     1      -3.684  11.655  18.514  0.00  0.00    +0.000 A 
ATOM      6  N   UNL     1      -4.593  12.639  18.986  0.00  0.00    +0.000 N 
ATOM      7  N   UNL     1      -4.007  10.873  17.452  0.00  0.00    +0.000 NA
ATOM      8  C   UNL     1      -3.121   9.976  17.004  0.00  0.00    +0.000 A 
ATOM      9  N   UNL     1      -1.904   9.726  17.493  0.00  0.00    +0.000 NA
ATOM     10  C   UNL     1      -1.602  10.472  18.571  0.00  0.00    +0.000 A 
ATOM     11  H   UNL     1      -4.050  13.459  19.260  0.00  0.00    +0.000 HD
ENDROOT
BRANCH   1  16
ATOM     12  F   UNL     1       3.707   6.781  18.398  0.00  0.00    +0.000 F 
ATOM     13  C   UNL     1       2.726   7.663  18.634  0.00  0.00    +0.000 A 
ATOM     14  C   UNL     1       2.071   7.646  19.860  0.00  0.00    +0.000 A 
ATOM     15  C   UNL     1       1.041   8.558  20.109  0.00  0.00    +0.000 A 
ATOM     16  C   UNL     1       0.649   9.465  19.109  0.00  0.00    +0.000 A 
ATOM     17  C   UNL     1       1.330   9.474  17.882  0.00  0.00    +0.000 A 
ATOM     18  C   UNL     1       2.375   8.575  17.650  0.00  0.00    +0.000 A 
ENDBRANCH   1  16
BRANCH   3  19
ATOM     19  C   UNL     1      -2.135  12.906  21.330  0.00  0.00    +0.000 A 
ATOM     20  C   UNL     1      -2.009  14.282  21.091  0.00  0.00    +0.000 A 
ATOM     21  C   UNL     1      -2.401  15.217  22.055  0.00  0.00    +0.000 A 
ATOM     22  C   UNL     1      -2.954  14.789  23.259  0.00  0.00    +0.000 A 
ATOM     23  C   UNL     1      -3.071  13.428  23.518  0.00  0.00    +0.000 A 
ATOM     24  C   UNL     1      -2.632  12.498  22.573  0.00  0.00    +0.000 A 
ENDBRANCH   3  19
BRANCH   6  25
ATOM     25  N   UNL     1      -5.806  12.879  18.283  0.00  0.00    +0.000 NA
ATOM     26  C   UNL     1      -6.357  14.204  18.642  0.00  0.00    +0.000 C 
ATOM     27  C   UNL     1      -6.928  14.286  20.066  0.00  0.00    +0.000 C 
ATOM     28  O   UNL     1      -7.916  13.278  20.302  0.00  0.00    +0.000 OA
ATOM     29  C   UNL     1      -7.370  11.974  20.064  0.00  0.00    +0.000 C 
ATOM     30  C   UNL     1      -6.807  11.842  18.640  0.00  0.00    +0.000 C 
ENDBRANCH   6  25
TORSDOF 3
ENDMDL
MODEL 5
REMARK VINA RESULT:      -8.0      9.178     10.657
REMARK  Name = 
REMARK  3 active torsions:
REMARK  status: ('A' for Active; 'I' for Inactive)
REMARK    1  A    between atoms: C_5  and  N_6
REMARK    2  A    between atoms: C_8  and  C_9
REMARK    3  A    between atoms: N_17  and  N_18
REMARK                            x       y       z     vdW  Elec       q    Type
REMARK                         _______ _______ _______ _____ _____    ______ ____
ROOT
ATOM      1  N   UNL     1       8.004  12.803  23.439  0.00  0.00    +0.000 N 
ATOM      2  C   UNL     1       8.623  12.044  22.465  0.00  0.00    +0.000 A 
ATOM      3  C   UNL     1       9.194  12.874  21.515  0.00  0.00    +0.000 A 
ATOM      4  C   UNL     1       8.958  14.225  21.951  0.00  0.00    +0.000 A 
ATOM      5  C   UNL     1       9.304  15.529  21.508  0.00  0.00    +0.000 A 
ATOM      6  N   UNL     1      10.012  15.739  20.295  0.00  0.00    +0.000 N 
ATOM      7  N   UNL     1       8.966  16.580  22.298  0.00  0.00    +0.000 NA
ATOM      8  C   UNL     1       8.269  16.361  23.419  0.00  0.00    +0.000 A 
ATOM      9  N   UNL     1       7.849  15.186  23.895  0.00  0.00    +0.000 NA
ATOM     10  C   UNL     1       8.220  14.142  23.132  0.00  0.00    +0.000 A 
ATOM     11  H   UNL     1       9.641  15.088  19.601  0.00  0.00    +0.000 HD
ENDROOT
BRANCH   1  16
ATOM     12  F   UNL     1       5.418  10.618  27.847  0.00  0.00    +0.000 F 
ATOM     13  C   UNL     1       6.025  11.171  26.788  0.00  0.00    +0.000 A 
ATOM     14  C   UNL     1       5.511  10.954  25.515  0.00  0.00    +0.000 A 
ATOM     15  C   UNL     1       6.146  11.521  24.405  0.00  0.00    +0.000 A 
ATOM     16  C   UNL     1       7.317  12.279  24.577  0.00  0.00    +0.000 A 
ATOM     17  C   UNL     1       7.814  12.496  25.871  0.00  0.00    +0.000 A 
ATOM     18  C   UNL     1       7.160  11.946  26.977  0.00  0.00    +0.000 A 
ENDBRANCH   1  16
BRANCH   3  19
ATOM     19  C   UNL     1       9.926  12.334  20.369  0.00  0.00    +0.000 A 
ATOM     20  C   UNL     1       9.263  11.980  19.184  0.00  0.00    +0.000 A 
ATOM     21  C   UNL     1       9.973  11.487  18.084  0.00  0.00    +0.000 A 
ATOM     22  C   UNL     1      11.359  11.370  18.142  0.00  0.00    +0.000 A 
ATOM     23  C   UNL     1      12.029  11.701  19.315  0.00  0.00    +0.000 A 
ATOM     24  C   UNL     1      11.311  12.147  20.427  0.00  0.00    +0.000 A 
ENDBRANCH   3  19
BRANCH   6  25
ATOM     25  N   UNL     1      10.283  17.063  19.852  0.00  0.00    +0.000 NA
ATOM     26  C   UNL     1       9.483  17.379  18.648  0.00  0.00    +0.000 C 
ATOM     27  C   UNL     1       9.937  16.643  17.378  0.00  0.00    +0.000 C 
ATOM     28  O   UNL     1      11.324  16.865  17.102  0.00  0.00    +0.000 OA
ATOM     29  C   UNL     1      12.129  16.463  18.218  0.00  0.00    +0.000 C 
ATOM     30  C   UNL     1      11.721  17.194  19.508  0.00  0.00    +0.000 C 
ENDBRANCH   6  25
TORSDOF 3
ENDMDL
MODEL 6
REMARK VINA RESULT:      -8.0      4.990      9.729
REMARK  Name = 
REMARK  3 active torsions:
REMARK  status: ('A' for Active; 'I' for Inactive)
REMARK    1  A    between atoms: C_5  and  N_6
REMARK    2  A    between atoms: C_8  and  C_9
REMARK    3  A    between atoms: N_17  and  N_18
REMARK                            x       y       z     vdW  Elec       q    Type
REMARK                         _______ _______ _______ _____ _____    ______ ____
ROOT
ATOM      1  N   UNL     1       1.114   9.909  19.992  0.00  0.00    +0.000 N 
ATOM      2  C   UNL     1       1.320  11.113  19.347  0.00  0.00    +0.000 A 
ATOM      3  C   UNL     1       0.683  12.130  20.037  0.00  0.00    +0.000 A 
ATOM      4  C   UNL     1       0.089  11.530  21.203  0.00  0.00    +0.000 A 
ATOM      5  C   UNL     1      -0.636  11.977  22.339  0.00  0.00    +0.000 A 
ATOM      6  N   UNL     1      -1.020  13.336  22.490  0.00  0.00    +0.000 N 
ATOM      7  N   UNL     1      -0.927  11.069  23.305  0.00  0.00    +0.000 NA
ATOM      8  C   UNL     1      -0.586   9.787  23.126  0.00  0.00    +0.000 A 
ATOM      9  N   UNL     1       0.045   9.257  22.076  0.00  0.00    +0.000 NA
ATOM     10  C   UNL     1       0.370  10.165  21.139  0.00  0.00    +0.000 A 
ATOM     11  H   UNL     1      -1.318  13.679  21.576  0.00  0.00    +0.000 HD
ENDROOT
BRANCH   1  16
ATOM     12  F   UNL     1       2.958   4.949  18.292  0.00  0.00    +0.000 F 
ATOM     13  C   UNL     1       2.543   6.153  18.707  0.00  0.00    +0.000 A 
ATOM     14  C   UNL     1       2.173   6.329  20.035  0.00  0.00    +0.000 A 
ATOM     15  C   UNL     1       1.730   7.581  20.473  0.00  0.00    +0.000 A 
ATOM     16  C   UNL     1       1.629   8.647  19.563  0.00  0.00    +0.000 A 
ATOM     17  C   UNL     1       2.017   8.453  18.228  0.00  0.00    +0.000 A 
ATOM     18  C   UNL     1       2.482   7.205  17.805  0.00  0.00    +0.000 A 
ENDBRANCH   1  16
BRANCH   3  19
ATOM     19  C   UNL     1       0.744  13.519  19.580  0.00  0.00    +0.000 A 
ATOM     20  C   UNL     1      -0.407  14.191  19.141  0.00  0.00    +0.000 A 
ATOM     21  C   UNL     1      -0.345  15.527  18.729  0.00  0.00    +0.000 A 
ATOM     22  C   UNL     1       0.862  16.218  18.779  0.00  0.00    +0.000 A 
ATOM     23  C   UNL     1       2.014  15.562  19.197  0.00  0.00    +0.000 A 
ATOM     24  C   UNL     1       1.958  14.214  19.561  0.00  0.00    +0.000 A 
ENDBRANCH   3  19
BRANCH   6  25
ATOM     25  N   UNL     1      -1.802  13.732  23.610  0.00  0.00    +0.000 NA
ATOM     26  C   UNL     1      -3.213  13.927  23.211  0.00  0.00    +0.000 C 
ATOM     27  C   UNL     1      -3.458  15.171  22.342  0.00  0.00    +0.000 C 
ATOM     28  O   UNL     1      -2.970  16.361  22.969  0.00  0.00    +0.000 OA
ATOM     29  C   UNL     1      -1.573  16.235  23.267  0.00  0.00    +0.000 C 
ATOM     30  C   UNL     1      -1.287  15.013  24.154  0.00  0.00    +0.000 C 
ENDBRANCH   6  25
TORSDOF 3
ENDMDL
MODEL 7
REMARK VINA RESULT:      -7.9      5.444     10.204
REMARK  Name = 
REMARK  3 active torsions:
REMARK  status: ('A' for Active; 'I' for Inactive)
REMARK    1  A    between atoms: C_5  and  N_6
REMARK    2  A    between atoms: C_8  and  C_9
REMARK    3  A    between atoms: N_17  and  N_18
REMARK                            x       y       z     vdW  Elec       q    Type
REMARK                         _______ _______ _______ _____ _____    ______ ____
ROOT
ATOM      1  N   UNL     1      -0.384  10.568  19.845  0.00  0.00    +0.000 N 
ATOM      2  C   UNL     1      -0.398  11.250  21.047  0.00  0.00    +0.000 A 
ATOM      3  C   UNL     1      -1.529  12.046  21.121  0.00  0.00    +0.000 A 
ATOM      4  C   UNL     1      -2.283  11.806  19.919  0.00  0.00    +0.000 A 
ATOM      5  C   UNL     1      -3.528  12.225  19.379  0.00  0.00    +0.000 A 
ATOM      6  N   UNL     1      -4.342  13.181  20.042  0.00  0.00    +0.000 N 
ATOM      7  N   UNL     1      -3.942  11.655  18.218  0.00  0.00    +0.000 NA
ATOM      8  C   UNL     1      -3.144  10.782  17.594  0.00  0.00    +0.000 A 
ATOM      9  N   UNL     1      -1.937  10.365  17.986  0.00  0.00    +0.000 NA
ATOM     10  C   UNL     1      -1.546  10.898  19.157  0.00  0.00    +0.000 A 
ATOM     11  H   UNL     1      -3.728  13.902  20.423  0.00  0.00    +0.000 HD
ENDROOT
BRANCH   1  16
ATOM     12  F   UNL     1       3.444   6.894  18.189  0.00  0.00    +0.000 F 
ATOM     13  C   UNL     1       2.544   7.799  18.597  0.00  0.00    +0.000 A 
ATOM     14  C   UNL     1       2.034   7.723  19.887  0.00  0.00    +0.000 A 
ATOM     15  C   UNL     1       1.088   8.659  20.316  0.00  0.00    +0.000 A 
ATOM     16  C   UNL     1       0.632   9.652  19.432  0.00  0.00    +0.000 A 
ATOM     17  C   UNL     1       1.166   9.719  18.136  0.00  0.00    +0.000 A 
ATOM     18  C   UNL     1       2.129   8.794  17.723  0.00  0.00    +0.000 A 
ENDBRANCH   1  16
BRANCH   3  19
ATOM     19  C   UNL     1      -1.805  12.874  22.295  0.00  0.00    +0.000 A 
ATOM     20  C   UNL     1      -0.960  13.936  22.651  0.00  0.00    +0.000 A 
ATOM     21  C   UNL     1      -1.243  14.739  23.761  0.00  0.00    +0.000 A 
ATOM     22  C   UNL     1      -2.393  14.510  24.513  0.00  0.00    +0.000 A 
ATOM     23  C   UNL     1      -3.232  13.452  24.183  0.00  0.00    +0.000 A 
ATOM     24  C   UNL     1      -2.919  12.623  23.103  0.00  0.00    +0.000 A 
ENDBRANCH   3  19
BRANCH   6  25
ATOM     25  N   UNL     1      -5.552  13.623  19.438  0.00  0.00    +0.000 NA
ATOM     26  C   UNL     1      -5.872  15.001  19.871  0.00  0.00    +0.000 C 
ATOM     27  C   UNL     1      -6.324  15.114  21.335  0.00  0.00    +0.000 C 
ATOM     28  O   UNL     1      -7.433  14.254  21.617  0.00  0.00    +0.000 OA
ATOM     29  C   UNL     1      -7.106  12.893  21.305  0.00  0.00    +0.000 C 
ATOM     30  C   UNL     1      -6.669  12.733  19.840  0.00  0.00    +0.000 C 
ENDBRANCH   6  25
TORSDOF 3
ENDMDL
MODEL 8
REMARK VINA RESULT:      -7.9      5.244      9.890
REMARK  Name = 
REMARK  3 active torsions:
REMARK  status: ('A' for Active; 'I' for Inactive)
REMARK    1  A    between atoms: C_5  and  N_6
REMARK    2  A    between atoms: C_8  and  C_9
REMARK    3  A    between atoms: N_17  and  N_18
REMARK                            x       y       z     vdW  Elec       q    Type
REMARK                         _______ _______ _______ _____ _____    ______ ____
ROOT
ATOM      1  N   UNL     1      -0.134  10.292  19.584  0.00  0.00    +0.000 N 
ATOM      2  C   UNL     1      -0.151  11.044  20.743  0.00  0.00    +0.000 A 
ATOM      3  C   UNL     1      -1.308  11.802  20.794  0.00  0.00    +0.000 A 
ATOM      4  C   UNL     1      -2.075  11.465  19.624  0.00  0.00    +0.000 A 
ATOM      5  C   UNL     1      -3.345  11.806  19.088  0.00  0.00    +0.000 A 
ATOM      6  N   UNL     1      -4.181  12.771  19.710  0.00  0.00    +0.000 N 
ATOM      7  N   UNL     1      -3.760  11.153  17.972  0.00  0.00    +0.000 NA
ATOM      8  C   UNL     1      -2.943  10.273  17.383  0.00  0.00    +0.000 A 
ATOM      9  N   UNL     1      -1.714   9.924  17.773  0.00  0.00    +0.000 NA
ATOM     10  C   UNL     1      -1.321  10.539  18.903  0.00  0.00    +0.000 A 
ATOM     11  H   UNL     1      -3.587  13.534  20.035  0.00  0.00    +0.000 HD
ENDROOT
BRANCH   1  16
ATOM     12  F   UNL     1       3.794   6.678  18.035  0.00  0.00    +0.000 F 
ATOM     13  C   UNL     1       2.869   7.567  18.421  0.00  0.00    +0.000 A 
ATOM     14  C   UNL     1       2.229   7.402  19.643  0.00  0.00    +0.000 A 
ATOM     15  C   UNL     1       1.257   8.322  20.047  0.00  0.00    +0.000 A 
ATOM     16  C   UNL     1       0.906   9.390  19.203  0.00  0.00    +0.000 A 
ATOM     17  C   UNL     1       1.572   9.546  17.978  0.00  0.00    +0.000 A 
ATOM     18  C   UNL     1       2.560   8.636  17.592  0.00  0.00    +0.000 A 
ENDBRANCH   1  16
BRANCH   3  19
ATOM     19  C   UNL     1      -1.592  12.689  21.923  0.00  0.00    +0.000 A 
ATOM     20  C   UNL     1      -2.706  12.477  22.750  0.00  0.00    +0.000 A 
ATOM     21  C   UNL     1      -2.958  13.315  23.843  0.00  0.00    +0.000 A 
ATOM     22  C   UNL     1      -2.083  14.356  24.141  0.00  0.00    +0.000 A 
ATOM     23  C   UNL     1      -0.984  14.588  23.322  0.00  0.00    +0.000 A 
ATOM     24  C   UNL     1      -0.763  13.780  22.204  0.00  0.00    +0.000 A 
ENDBRANCH   3  19
BRANCH   6  25
ATOM     25  N   UNL     1      -5.417  13.133  19.107  0.00  0.00    +0.000 NA
ATOM     26  C   UNL     1      -5.930  14.389  19.695  0.00  0.00    +0.000 C 
ATOM     27  C   UNL     1      -6.442  14.250  21.137  0.00  0.00    +0.000 C 
ATOM     28  O   UNL     1      -7.437  13.227  21.252  0.00  0.00    +0.000 OA
ATOM     29  C   UNL     1      -6.924  11.972  20.787  0.00  0.00    +0.000 C 
ATOM     30  C   UNL     1      -6.421  12.063  19.337  0.00  0.00    +0.000 C 
ENDBRANCH   6  25
TORSDOF 3
ENDMDL
MODEL 9
REMARK VINA RESULT:      -7.9      9.565     11.058
REMARK  Name = 
REMARK  3 active torsions:
REMARK  status: ('A' for Active; 'I' for Inactive)
REMARK    1  A    between atoms: C_5  and  N_6
REMARK    2  A    between atoms: C_8  and  C_9
REMARK    3  A    between atoms: N_17  and  N_18
REMARK                            x       y       z     vdW  Elec       q    Type
REMARK                         _______ _______ _______ _____ _____    ______ ____
ROOT
ATOM      1  N   UNL     1       8.359  13.003  23.291  0.00  0.00    +0.000 N 
ATOM      2  C   UNL     1       8.912  12.284  22.249  0.00  0.00    +0.000 A 
ATOM      3  C   UNL     1       9.531  13.147  21.360  0.00  0.00    +0.000 A 
ATOM      4  C   UNL     1       9.396  14.471  21.908  0.00  0.00    +0.000 A 
ATOM      5  C   UNL     1       9.829  15.779  21.565  0.00  0.00    +0.000 A 
ATOM      6  N   UNL     1      10.539  16.038  20.362  0.00  0.00    +0.000 N 
ATOM      7  N   UNL     1       9.576  16.783  22.444  0.00  0.00    +0.000 NA
ATOM      8  C   UNL     1       8.876  16.524  23.554  0.00  0.00    +0.000 A 
ATOM      9  N   UNL     1       8.378  15.346  23.940  0.00  0.00    +0.000 NA
ATOM     10  C   UNL     1       8.666  14.344  23.090  0.00  0.00    +0.000 A 
ATOM     11  H   UNL     1      10.116  15.473  19.625  0.00  0.00    +0.000 HD
ENDROOT
BRANCH   1  16
ATOM     12  F   UNL     1       5.503  10.953  27.596  0.00  0.00    +0.000 F 
ATOM     13  C   UNL     1       6.207  11.420  26.556  0.00  0.00    +0.000 A 
ATOM     14  C   UNL     1       7.368  12.147  26.788  0.00  0.00    +0.000 A 
ATOM     15  C   UNL     1       8.102  12.645  25.707  0.00  0.00    +0.000 A 
ATOM     16  C   UNL     1       7.647  12.438  24.394  0.00  0.00    +0.000 A 
ATOM     17  C   UNL     1       6.477  11.692  24.180  0.00  0.00    +0.000 A 
ATOM     18  C   UNL     1       5.763  11.177  25.265  0.00  0.00    +0.000 A 
ENDBRANCH   1  16
BRANCH   3  19
ATOM     19  C   UNL     1      10.212  12.652  20.163  0.00  0.00    +0.000 A 
ATOM     20  C   UNL     1       9.625  12.767  18.894  0.00  0.00    +0.000 A 
ATOM     21  C   UNL     1      10.292  12.314  17.751  0.00  0.00    +0.000 A 
ATOM     22  C   UNL     1      11.568  11.767  17.857  0.00  0.00    +0.000 A 
ATOM     23  C   UNL     1      12.157  11.631  19.110  0.00  0.00    +0.000 A 
ATOM     24  C   UNL     1      11.466  12.040  20.253  0.00  0.00    +0.000 A 
ENDBRANCH   3  19
BRANCH   6  25
ATOM     25  N   UNL     1      10.899  17.371  20.024  0.00  0.00    +0.000 NA
ATOM     26  C   UNL     1       9.947  17.927  19.037  0.00  0.00    +0.000 C 
ATOM     27  C   UNL     1      10.069  17.321  17.630  0.00  0.00    +0.000 C 
ATOM     28  O   UNL     1      11.403  17.425  17.120  0.00  0.00    +0.000 OA
ATOM     29  C   UNL     1      12.332  16.795  18.011  0.00  0.00    +0.000 C 
ATOM     30  C   UNL     1      12.258  17.389  19.427  0.00  0.00    +0.000 C 
ENDBRANCH   6  25
TORSDOF 3
ENDMDL
