MODEL 1
REMARK VINA RESULT:      -7.9      0.000      0.000
REMARK  Name = 
REMARK  10 active torsions:
REMARK  status: ('A' for Active; 'I' for Inactive)
REMARK    1  A    between atoms: C_1  and  C_2
REMARK    2  A    between atoms: C_7  and  C_8
REMARK    3  A    between atoms: C_8  and  S_9
REMARK    4  A    between atoms: S_9  and  C_12
REMARK    5  A    between atoms: C_12  and  C_13
REMARK    6  A    between atoms: C_13  and  C_14
REMARK    7  A    between atoms: N_16  and  C_17
REMARK    8  A    between atoms: C_17  and  C_18
REMARK    9  A    between atoms: C_18  and  N_19
REMARK   10  A    between atoms: N_22  and  C_23
REMARK                            x       y       z     vdW  Elec       q    Type
REMARK                         _______ _______ _______ _____ _____    ______ ____
ROOT
ATOM      1  C   UNL     1       2.919   7.835  17.930  0.00  0.00    +0.000 C 
ATOM      2  O   UNL     1       2.680   8.809  17.224  0.00  0.00    +0.000 OA
ATOM      3  N   UNL     1       2.354   7.629  19.175  0.00  0.00    +0.000 N 
ATOM      4  H   UNL     1       2.445   6.716  19.604  0.00  0.00    +0.000 HD
ENDROOT
BRANCH   1   5
ATOM      5  C   UNL     1       3.904   6.748  17.535  0.00  0.00    +0.000 C 
BRANCH   5   6
ATOM      6  C   UNL     1       4.283   5.798  18.677  0.00  0.00    +0.000 C 
BRANCH   6   7
ATOM      7  S   UNL     1       5.248   4.431  18.025  0.00  0.00    +0.000 S 
ATOM      8  O   UNL     1       6.277   4.149  19.013  0.00  0.00    +0.000 OA
ATOM      9  O   UNL     1       5.603   4.789  16.662  0.00  0.00    +0.000 OA
BRANCH   7  10
ATOM     10  C   UNL     1       4.116   3.025  17.974  0.00  0.00    +0.000 C 
BRANCH  10  17
ATOM     11  C   UNL     1       1.277   4.169  17.641  0.00  0.00    +0.000 C 
ATOM     12  C   UNL     1       1.799   3.642  18.951  0.00  0.00    +0.000 A 
ATOM     13  C   UNL     1       0.927   3.675  20.059  0.00  0.00    +0.000 A 
ATOM     14  C   UNL     1       1.325   3.205  21.308  0.00  0.00    +0.000 A 
ATOM     15  C   UNL     1       2.604   2.688  21.467  0.00  0.00    +0.000 A 
ATOM     16  C   UNL     1       3.482   2.650  20.383  0.00  0.00    +0.000 A 
ATOM     17  C   UNL     1       3.104   3.121  19.107  0.00  0.00    +0.000 A 
ENDBRANCH  10  17
ENDBRANCH   7  10
ENDBRANCH   6   7
ENDBRANCH   5   6
ENDBRANCH   1   5
BRANCH   3  18
ATOM     18  C   UNL     1       1.398   8.543  19.795  0.00  0.00    +0.000 C 
BRANCH  18  19
ATOM     19  C   UNL     1       1.385   8.491  21.346  0.00  0.00    +0.000 C 
BRANCH  19  20
ATOM     20  N   UNL     1       1.228   9.803  21.996  0.00  0.00    +0.000 NA
ATOM     21  C   UNL     1       0.808  10.913  21.109  0.00  0.00    +0.000 C 
ATOM     22  C   UNL     1      -0.694  11.340  21.041  0.00  0.00    +0.000 C 
ATOM     23  N   UNL     1      -1.346  11.256  22.355  0.00  0.00    +0.000 N 
ATOM     24  C   UNL     1      -1.114   9.979  23.036  0.00  0.00    +0.000 C 
ATOM     25  C   UNL     1       0.398   9.743  23.220  0.00  0.00    +0.000 C 
BRANCH  23  26
ATOM     26  C   UNL     1      -1.928  12.346  22.975  0.00  0.00    +0.000 A 
ATOM     27  C   UNL     1      -3.314  12.406  23.203  0.00  0.00    +0.000 A 
ATOM     28  C   UNL     1      -3.919  13.486  23.865  0.00  0.00    +0.000 A 
ATOM     29  C   UNL     1      -3.145  14.550  24.311  0.00  0.00    +0.000 A 
ATOM     30  C   UNL     1      -1.773  14.521  24.093  0.00  0.00    +0.000 A 
ATOM     31 CL   UNL     1      -0.800  15.836  24.633  0.00  0.00    +0.000 Cl
ATOM     32  C   UNL     1      -1.175  13.436  23.440  0.00  0.00    +0.000 A 
ENDBRANCH  23  26
ENDBRANCH  19  20
ENDBRANCH  18  19
ENDBRANCH   3  18
TORSDOF 9
ENDMDL
MODEL 2
REMARK VINA RESULT:      -7.6      1.743      2.222
REMARK  Name = 
REMARK  10 active torsions:
REMARK  status: ('A' for Active; 'I' for Inactive)
REMARK    1  A    between atoms: C_1  and  C_2
REMARK    2  A    between atoms: C_7  and  C_8
REMARK    3  A    between atoms: C_8  and  S_9
REMARK    4  A    between atoms: S_9  and  C_12
REMARK    5  A    between atoms: C_12  and  C_13
REMARK    6  A    between atoms: C_13  and  C_14
REMARK    7  A    between atoms: N_16  and  C_17
REMARK    8  A    between atoms: C_17  and  C_18
REMARK    9  A    between atoms: C_18  and  N_19
REMARK   10  A    between atoms: N_22  and  C_23
REMARK                            x       y       z     vdW  Elec       q    Type
REMARK                         _______ _______ _______ _____ _____    ______ ____
ROOT
ATOM      1  C   UNL     1       2.560   7.638  18.784  0.00  0.00    +0.000 C 
ATOM      2  O   UNL     1       2.098   7.384  19.891  0.00  0.00    +0.000 OA
ATOM      3  N   UNL     1       2.302   8.806  18.091  0.00  0.00    +0.000 N 
ATOM      4  H   UNL     1       2.872   9.027  17.283  0.00  0.00    +0.000 HD
ENDROOT
BRANCH   1   5
ATOM      5  C   UNL     1       3.446   6.673  18.016  0.00  0.00    +0.000 C 
BRANCH   5   6
ATOM      6  C   UNL     1       4.241   5.707  18.902  0.00  0.00    +0.000 C 
BRANCH   6   7
ATOM      7  S   UNL     1       5.097   4.512  17.870  0.00  0.00    +0.000 S 
ATOM      8  O   UNL     1       6.360   4.230  18.534  0.00  0.00    +0.000 OA
ATOM      9  O   UNL     1       5.071   5.040  16.517  0.00  0.00    +0.000 OA
BRANCH   7  10
ATOM     10  C   UNL     1       4.086   3.018  17.925  0.00  0.00    +0.000 C 
BRANCH  10  17
ATOM     11  C   UNL     1       1.195   4.021  17.590  0.00  0.00    +0.000 C 
ATOM     12  C   UNL     1       1.752   3.558  18.909  0.00  0.00    +0.000 A 
ATOM     13  C   UNL     1       0.891   3.585  20.025  0.00  0.00    +0.000 A 
ATOM     14  C   UNL     1       1.321   3.171  21.282  0.00  0.00    +0.000 A 
ATOM     15  C   UNL     1       2.624   2.717  21.443  0.00  0.00    +0.000 A 
ATOM     16  C   UNL     1       3.493   2.686  20.351  0.00  0.00    +0.000 A 
ATOM     17  C   UNL     1       3.081   3.101  19.066  0.00  0.00    +0.000 A 
ENDBRANCH  10  17
ENDBRANCH   7  10
ENDBRANCH   6   7
ENDBRANCH   5   6
ENDBRANCH   1   5
BRANCH   3  18
ATOM     18  C   UNL     1       1.454   9.883  18.598  0.00  0.00    +0.000 C 
BRANCH  18  19
ATOM     19  C   UNL     1       0.004   9.861  18.049  0.00  0.00    +0.000 C 
BRANCH  19  20
ATOM     20  N   UNL     1      -1.033  10.106  19.065  0.00  0.00    +0.000 NA
ATOM     21  C   UNL     1      -0.566  10.112  20.471  0.00  0.00    +0.000 C 
ATOM     22  C   UNL     1      -0.264  11.465  21.193  0.00  0.00    +0.000 C 
ATOM     23  N   UNL     1      -1.213  12.516  20.804  0.00  0.00    +0.000 N 
ATOM     24  C   UNL     1      -1.383  12.634  19.354  0.00  0.00    +0.000 C 
ATOM     25  C   UNL     1      -1.864  11.293  18.765  0.00  0.00    +0.000 C 
BRANCH  23  26
ATOM     26  C   UNL     1      -2.023  13.171  21.714  0.00  0.00    +0.000 A 
ATOM     27  C   UNL     1      -2.207  14.564  21.662  0.00  0.00    +0.000 A 
ATOM     28  C   UNL     1      -3.055  15.242  22.553  0.00  0.00    +0.000 A 
ATOM     29  C   UNL     1      -3.739  14.536  23.535  0.00  0.00    +0.000 A 
ATOM     30  C   UNL     1      -3.572  13.159  23.614  0.00  0.00    +0.000 A 
ATOM     31 CL   UNL     1      -4.407  12.270  24.830  0.00  0.00    +0.000 Cl
ATOM     32  C   UNL     1      -2.731  12.488  22.716  0.00  0.00    +0.000 A 
ENDBRANCH  23  26
ENDBRANCH  19  20
ENDBRANCH  18  19
ENDBRANCH   3  18
TORSDOF 9
ENDMDL
MODEL 3
REMARK VINA RESULT:      -7.5      2.418      3.877
REMARK  Name = 
REMARK  10 active torsions:
REMARK  status: ('A' for Active; 'I' for Inactive)
REMARK    1  A    between atoms: C_1  and  C_2
REMARK    2  A    between atoms: C_7  and  C_8
REMARK    3  A    between atoms: C_8  and  S_9
REMARK    4  A    between atoms: S_9  and  C_12
REMARK    5  A    between atoms: C_12  and  C_13
REMARK    6  A    between atoms: C_13  and  C_14
REMARK    7  A    between atoms: N_16  and  C_17
REMARK    8  A    between atoms: C_17  and  C_18
REMARK    9  A    between atoms: C_18  and  N_19
REMARK   10  A    between atoms: N_22  and  C_23
REMARK                            x       y       z     vdW  Elec       q    Type
REMARK                         _______ _______ _______ _____ _____    ______ ____
ROOT
ATOM      1  C   UNL     1       1.740   5.078  20.420  0.00  0.00    +0.000 C 
ATOM      2  O   UNL     1       0.515   5.020  20.436  0.00  0.00    +0.000 OA
ATOM      3  N   UNL     1       2.453   6.244  20.218  0.00  0.00    +0.000 N 
ATOM      4  H   UNL     1       3.447   6.246  20.415  0.00  0.00    +0.000 HD
ENDROOT
BRANCH   1   5
ATOM      5  C   UNL     1       2.628   3.857  20.580  0.00  0.00    +0.000 C 
BRANCH   5   6
ATOM      6  C   UNL     1       2.198   2.650  19.739  0.00  0.00    +0.000 C 
BRANCH   6   7
ATOM      7  S   UNL     1       3.148   2.611  18.215  0.00  0.00    +0.000 S 
ATOM      8  O   UNL     1       2.257   3.083  17.167  0.00  0.00    +0.000 OA
ATOM      9  O   UNL     1       3.753   1.293  18.138  0.00  0.00    +0.000 OA
BRANCH   7  10
ATOM     10  C   UNL     1       4.457   3.835  18.433  0.00  0.00    +0.000 C 
BRANCH  10  17
ATOM     11  C   UNL     1       4.206   6.739  17.443  0.00  0.00    +0.000 C 
ATOM     12  C   UNL     1       4.851   5.650  16.629  0.00  0.00    +0.000 A 
ATOM     13  C   UNL     1       5.364   6.001  15.363  0.00  0.00    +0.000 A 
ATOM     14  C   UNL     1       5.981   5.059  14.545  0.00  0.00    +0.000 A 
ATOM     15  C   UNL     1       6.098   3.746  14.984  0.00  0.00    +0.000 A 
ATOM     16  C   UNL     1       5.593   3.378  16.232  0.00  0.00    +0.000 A 
ATOM     17  C   UNL     1       4.963   4.315  17.080  0.00  0.00    +0.000 A 
ENDBRANCH  10  17
ENDBRANCH   7  10
ENDBRANCH   6   7
ENDBRANCH   5   6
ENDBRANCH   1   5
BRANCH   3  18
ATOM     18  C   UNL     1       1.833   7.551  20.008  0.00  0.00    +0.000 C 
BRANCH  18  19
ATOM     19  C   UNL     1       1.404   8.267  21.316  0.00  0.00    +0.000 C 
BRANCH  19  20
ATOM     20  N   UNL     1       0.018   8.764  21.307  0.00  0.00    +0.000 NA
ATOM     21  C   UNL     1      -0.588   9.003  22.638  0.00  0.00    +0.000 C 
ATOM     22  C   UNL     1      -0.616  10.445  23.242  0.00  0.00    +0.000 C 
ATOM     23  N   UNL     1      -0.854  11.464  22.211  0.00  0.00    +0.000 N 
ATOM     24  C   UNL     1       0.017  11.319  21.042  0.00  0.00    +0.000 C 
ATOM     25  C   UNL     1      -0.170   9.926  20.410  0.00  0.00    +0.000 C 
BRANCH  23  26
ATOM     26  C   UNL     1      -1.933  12.328  22.245  0.00  0.00    +0.000 A 
ATOM     27  C   UNL     1      -2.017  13.430  21.376  0.00  0.00    +0.000 A 
ATOM     28  C   UNL     1      -3.122  14.297  21.369  0.00  0.00    +0.000 A 
ATOM     29  C   UNL     1      -4.177  14.087  22.249  0.00  0.00    +0.000 A 
ATOM     30  C   UNL     1      -4.117  13.010  23.125  0.00  0.00    +0.000 A 
ATOM     31 CL   UNL     1      -5.412  12.739  24.228  0.00  0.00    +0.000 Cl
ATOM     32  C   UNL     1      -3.016  12.143  23.120  0.00  0.00    +0.000 A 
ENDBRANCH  23  26
ENDBRANCH  19  20
ENDBRANCH  18  19
ENDBRANCH   3  18
TORSDOF 9
ENDMDL
MODEL 4
REMARK VINA RESULT:      -7.3      7.182      8.602
REMARK  Name = 
REMARK  10 active torsions:
REMARK  status: ('A' for Active; 'I' for Inactive)
REMARK    1  A    between atoms: C_1  and  C_2
REMARK    2  A    between atoms: C_7  and  C_8
REMARK    3  A    between atoms: C_8  and  S_9
REMARK    4  A    between atoms: S_9  and  C_12
REMARK    5  A    between atoms: C_12  and  C_13
REMARK    6  A    between atoms: C_13  and  C_14
REMARK    7  A    between atoms: N_16  and  C_17
REMARK    8  A    between atoms: C_17  and  C_18
REMARK    9  A    between atoms: C_18  and  N_19
REMARK   10  A    between atoms: N_22  and  C_23
REMARK                            x       y       z     vdW  Elec       q    Type
REMARK                         _______ _______ _______ _____ _____    ______ ____
ROOT
ATOM      1  C   UNL     1       7.795   7.790  17.894  0.00  0.00    +0.000 C 
ATOM      2  O   UNL     1       7.332   8.304  16.882  0.00  0.00    +0.000 OA
ATOM      3  N   UNL     1       8.575   8.466  18.814  0.00  0.00    +0.000 N 
ATOM      4  H   UNL     1       8.749   8.033  19.714  0.00  0.00    +0.000 HD
ENDROOT
BRANCH   1   5
ATOM      5  C   UNL     1       7.598   6.325  18.243  0.00  0.00    +0.000 C 
BRANCH   5   6
ATOM      6  C   UNL     1       6.443   5.650  17.495  0.00  0.00    +0.000 C 
BRANCH   6   7
ATOM      7  S   UNL     1       5.271   4.979  18.679  0.00  0.00    +0.000 S 
ATOM      8  O   UNL     1       4.916   6.074  19.567  0.00  0.00    +0.000 OA
ATOM      9  O   UNL     1       5.864   3.760  19.202  0.00  0.00    +0.000 OA
BRANCH   7  10
ATOM     10  C   UNL     1       3.810   4.540  17.714  0.00  0.00    +0.000 C 
BRANCH  10  17
ATOM     11  C   UNL     1       3.500   1.500  18.087  0.00  0.00    +0.000 C 
ATOM     12  C   UNL     1       2.620   2.504  18.782  0.00  0.00    +0.000 A 
ATOM     13  C   UNL     1       1.621   2.006  19.645  0.00  0.00    +0.000 A 
ATOM     14  C   UNL     1       0.765   2.863  20.332  0.00  0.00    +0.000 A 
ATOM     15  C   UNL     1       0.899   4.236  20.170  0.00  0.00    +0.000 A 
ATOM     16  C   UNL     1       1.878   4.747  19.317  0.00  0.00    +0.000 A 
ATOM     17  C   UNL     1       2.758   3.900  18.608  0.00  0.00    +0.000 A 
ENDBRANCH  10  17
ENDBRANCH   7  10
ENDBRANCH   6   7
ENDBRANCH   5   6
ENDBRANCH   1   5
BRANCH   3  18
ATOM     18  C   UNL     1       8.935   9.877  18.695  0.00  0.00    +0.000 C 
BRANCH  18  19
ATOM     19  C   UNL     1       9.797  10.412  19.868  0.00  0.00    +0.000 C 
BRANCH  19  20
ATOM     20  N   UNL     1      10.434  11.714  19.606  0.00  0.00    +0.000 NA
ATOM     21  C   UNL     1      10.460  12.144  18.189  0.00  0.00    +0.000 C 
ATOM     22  C   UNL     1       9.383  13.141  17.650  0.00  0.00    +0.000 C 
ATOM     23  N   UNL     1       9.035  14.161  18.648  0.00  0.00    +0.000 N 
ATOM     24  C   UNL     1       8.729  13.601  19.966  0.00  0.00    +0.000 C 
ATOM     25  C   UNL     1       9.930  12.789  20.490  0.00  0.00    +0.000 C 
BRANCH  23  26
ATOM     26  C   UNL     1       9.196  15.516  18.423  0.00  0.00    +0.000 A 
ATOM     27  C   UNL     1       8.126  16.416  18.570  0.00  0.00    +0.000 A 
ATOM     28  C   UNL     1       8.278  17.799  18.384  0.00  0.00    +0.000 A 
ATOM     29  C   UNL     1       9.517  18.321  18.032  0.00  0.00    +0.000 A 
ATOM     30  C   UNL     1      10.591  17.455  17.873  0.00  0.00    +0.000 A 
ATOM     31 CL   UNL     1      12.132  18.085  17.430  0.00  0.00    +0.000 Cl
ATOM     32  C   UNL     1      10.434  16.076  18.069  0.00  0.00    +0.000 A 
ENDBRANCH  23  26
ENDBRANCH  19  20
ENDBRANCH  18  19
ENDBRANCH   3  18
TORSDOF 9
ENDMDL
MODEL 5
REMARK VINA RESULT:      -7.1      6.723      8.019
REMARK  Name = 
REMARK  10 active torsions:
REMARK  status: ('A' for Active; 'I' for Inactive)
REMARK    1  A    between atoms: C_1  and  C_2
REMARK    2  A    between atoms: C_7  and  C_8
REMARK    3  A    between atoms: C_8  and  S_9
REMARK    4  A    between atoms: S_9  and  C_12
REMARK    5  A    between atoms: C_12  and  C_13
REMARK    6  A    between atoms: C_13  and  C_14
REMARK    7  A    between atoms: N_16  and  C_17
REMARK    8  A    between atoms: C_17  and  C_18
REMARK    9  A    between atoms: C_18  and  N_19
REMARK   10  A    between atoms: N_22  and  C_23
REMARK                            x       y       z     vdW  Elec       q    Type
REMARK                         _______ _______ _______ _____ _____    ______ ____
ROOT
ATOM      1  C   UNL     1       7.997   7.395  18.060  0.00  0.00    +0.000 C 
ATOM      2  O   UNL     1       8.371   6.797  19.063  0.00  0.00    +0.000 OA
ATOM      3  N   UNL     1       8.175   8.751  17.860  0.00  0.00    +0.000 N 
ATOM      4  H   UNL     1       8.022   9.129  16.933  0.00  0.00    +0.000 HD
ENDROOT
BRANCH   1   5
ATOM      5  C   UNL     1       7.251   6.718  16.923  0.00  0.00    +0.000 C 
BRANCH   5   6
ATOM      6  C   UNL     1       6.832   5.274  17.217  0.00  0.00    +0.000 C 
BRANCH   6   7
ATOM      7  S   UNL     1       5.143   5.251  17.829  0.00  0.00    +0.000 S 
ATOM      8  O   UNL     1       4.401   6.200  17.015  0.00  0.00    +0.000 OA
ATOM      9  O   UNL     1       5.224   5.413  19.271  0.00  0.00    +0.000 OA
BRANCH   7  10
ATOM     10  C   UNL     1       4.523   3.595  17.469  0.00  0.00    +0.000 C 
BRANCH  10  17
ATOM     11  C   UNL     1       4.514   2.083  20.151  0.00  0.00    +0.000 C 
ATOM     12  C   UNL     1       3.263   2.624  19.512  0.00  0.00    +0.000 A 
ATOM     13  C   UNL     1       2.045   2.425  20.195  0.00  0.00    +0.000 A 
ATOM     14  C   UNL     1       0.840   2.894  19.679  0.00  0.00    +0.000 A 
ATOM     15  C   UNL     1       0.836   3.577  18.469  0.00  0.00    +0.000 A 
ATOM     16  C   UNL     1       2.030   3.781  17.777  0.00  0.00    +0.000 A 
ATOM     17  C   UNL     1       3.265   3.314  18.278  0.00  0.00    +0.000 A 
ENDBRANCH  10  17
ENDBRANCH   7  10
ENDBRANCH   6   7
ENDBRANCH   5   6
ENDBRANCH   1   5
BRANCH   3  18
ATOM     18  C   UNL     1       8.837   9.634  18.818  0.00  0.00    +0.000 C 
BRANCH  18  19
ATOM     19  C   UNL     1       9.449  10.912  18.184  0.00  0.00    +0.000 C 
BRANCH  19  20
ATOM     20  N   UNL     1      10.229  11.739  19.120  0.00  0.00    +0.000 NA
ATOM     21  C   UNL     1      10.194  13.199  18.870  0.00  0.00    +0.000 C 
ATOM     22  C   UNL     1       9.218  14.112  19.681  0.00  0.00    +0.000 C 
ATOM     23  N   UNL     1       9.092  13.673  21.077  0.00  0.00    +0.000 N 
ATOM     24  C   UNL     1       8.824  12.239  21.211  0.00  0.00    +0.000 C 
ATOM     25  C   UNL     1       9.946  11.424  20.538  0.00  0.00    +0.000 C 
BRANCH  23  26
ATOM     26  C   UNL     1       9.412  14.484  22.150  0.00  0.00    +0.000 A 
ATOM     27  C   UNL     1      10.421  15.459  22.058  0.00  0.00    +0.000 A 
ATOM     28  C   UNL     1      10.734  16.317  23.124  0.00  0.00    +0.000 A 
ATOM     29  C   UNL     1      10.045  16.213  24.326  0.00  0.00    +0.000 A 
ATOM     30  C   UNL     1       9.047  15.254  24.449  0.00  0.00    +0.000 A 
ATOM     31 CL   UNL     1       8.189  15.107  25.935  0.00  0.00    +0.000 Cl
ATOM     32  C   UNL     1       8.734  14.406  23.378  0.00  0.00    +0.000 A 
ENDBRANCH  23  26
ENDBRANCH  19  20
ENDBRANCH  18  19
ENDBRANCH   3  18
TORSDOF 9
ENDMDL
MODEL 6
REMARK VINA RESULT:      -7.1      7.506      9.075
REMARK  Name = 
REMARK  10 active torsions:
REMARK  status: ('A' for Active; 'I' for Inactive)
REMARK    1  A    between atoms: C_1  and  C_2
REMARK    2  A    between atoms: C_7  and  C_8
REMARK    3  A    between atoms: C_8  and  S_9
REMARK    4  A    between atoms: S_9  and  C_12
REMARK    5  A    between atoms: C_12  and  C_13
REMARK    6  A    between atoms: C_13  and  C_14
REMARK    7  A    between atoms: N_16  and  C_17
REMARK    8  A    between atoms: C_17  and  C_18
REMARK    9  A    between atoms: C_18  and  N_19
REMARK   10  A    between atoms: N_22  and  C_23
REMARK                            x       y       z     vdW  Elec       q    Type
REMARK                         _______ _______ _______ _____ _____    ______ ____
ROOT
ATOM      1  C   UNL     1       7.160   7.580  17.508  0.00  0.00    +0.000 C 
ATOM      2  O   UNL     1       6.300   8.124  16.823  0.00  0.00    +0.000 OA
ATOM      3  N   UNL     1       8.165   8.261  18.166  0.00  0.00    +0.000 N 
ATOM      4  H   UNL     1       8.709   7.768  18.865  0.00  0.00    +0.000 HD
ENDROOT
BRANCH   1   5
ATOM      5  C   UNL     1       7.247   6.073  17.682  0.00  0.00    +0.000 C 
BRANCH   5   6
ATOM      6  C   UNL     1       6.184   5.287  16.906  0.00  0.00    +0.000 C 
BRANCH   6   7
ATOM      7  S   UNL     1       5.217   4.295  18.048  0.00  0.00    +0.000 S 
ATOM      8  O   UNL     1       6.079   4.030  19.189  0.00  0.00    +0.000 OA
ATOM      9  O   UNL     1       4.653   3.204  17.272  0.00  0.00    +0.000 OA
BRANCH   7  10
ATOM     10  C   UNL     1       3.873   5.368  18.597  0.00  0.00    +0.000 C 
BRANCH  10  17
ATOM     11  C   UNL     1       1.330   4.145  17.365  0.00  0.00    +0.000 C 
ATOM     12  C   UNL     1       1.683   4.003  18.821  0.00  0.00    +0.000 A 
ATOM     13  C   UNL     1       0.800   3.266  19.636  0.00  0.00    +0.000 A 
ATOM     14  C   UNL     1       1.050   3.081  20.993  0.00  0.00    +0.000 A 
ATOM     15  C   UNL     1       2.195   3.629  21.557  0.00  0.00    +0.000 A 
ATOM     16  C   UNL     1       3.079   4.365  20.767  0.00  0.00    +0.000 A 
ATOM     17  C   UNL     1       2.848   4.568  19.389  0.00  0.00    +0.000 A 
ENDBRANCH  10  17
ENDBRANCH   7  10
ENDBRANCH   6   7
ENDBRANCH   5   6
ENDBRANCH   1   5
BRANCH   3  18
ATOM     18  C   UNL     1       8.321   9.714  18.134  0.00  0.00    +0.000 C 
BRANCH  18  19
ATOM     19  C   UNL     1       9.604  10.230  18.837  0.00  0.00    +0.000 C 
BRANCH  19  20
ATOM     20  N   UNL     1      10.234  11.384  18.174  0.00  0.00    +0.000 NA
ATOM     21  C   UNL     1       9.307  12.431  17.686  0.00  0.00    +0.000 C 
ATOM     22  C   UNL     1       9.049  13.714  18.541  0.00  0.00    +0.000 C 
ATOM     23  N   UNL     1      10.267  14.171  19.222  0.00  0.00    +0.000 N 
ATOM     24  C   UNL     1      10.966  13.102  19.939  0.00  0.00    +0.000 C 
ATOM     25  C   UNL     1      11.341  11.967  18.966  0.00  0.00    +0.000 C 
BRANCH  23  26
ATOM     26  C   UNL     1      10.813  15.426  19.022  0.00  0.00    +0.000 A 
ATOM     27  C   UNL     1      10.918  15.984  17.735  0.00  0.00    +0.000 A 
ATOM     28  C   UNL     1      11.433  17.271  17.516  0.00  0.00    +0.000 A 
ATOM     29  C   UNL     1      11.872  18.037  18.589  0.00  0.00    +0.000 A 
ATOM     30  C   UNL     1      11.787  17.509  19.871  0.00  0.00    +0.000 A 
ATOM     31 CL   UNL     1      12.333  18.442  21.212  0.00  0.00    +0.000 Cl
ATOM     32  C   UNL     1      11.263  16.227  20.084  0.00  0.00    +0.000 A 
ENDBRANCH  23  26
ENDBRANCH  19  20
ENDBRANCH  18  19
ENDBRANCH   3  18
TORSDOF 9
ENDMDL
MODEL 7
REMARK VINA RESULT:      -7.1      1.763      2.165
REMARK  Name = 
REMARK  10 active torsions:
REMARK  status: ('A' for Active; 'I' for Inactive)
REMARK    1  A    between atoms: C_1  and  C_2
REMARK    2  A    between atoms: C_7  and  C_8
REMARK    3  A    between atoms: C_8  and  S_9
REMARK    4  A    between atoms: S_9  and  C_12
REMARK    5  A    between atoms: C_12  and  C_13
REMARK    6  A    between atoms: C_13  and  C_14
REMARK    7  A    between atoms: N_16  and  C_17
REMARK    8  A    between atoms: C_17  and  C_18
REMARK    9  A    between atoms: C_18  and  N_19
REMARK   10  A    between atoms: N_22  and  C_23
REMARK                            x       y       z     vdW  Elec       q    Type
REMARK                         _______ _______ _______ _____ _____    ______ ____
ROOT
ATOM      1  C   UNL     1       2.949   7.077  17.906  0.00  0.00    +0.000 C 
ATOM      2  O   UNL     1       2.055   6.266  18.120  0.00  0.00    +0.000 OA
ATOM      3  N   UNL     1       2.812   8.441  18.085  0.00  0.00    +0.000 N 
ATOM      4  H   UNL     1       3.645   9.017  18.081  0.00  0.00    +0.000 HD
ENDROOT
BRANCH   1   5
ATOM      5  C   UNL     1       4.316   6.681  17.375  0.00  0.00    +0.000 C 
BRANCH   5   6
ATOM      6  C   UNL     1       4.550   5.167  17.308  0.00  0.00    +0.000 C 
BRANCH   6   7
ATOM      7  S   UNL     1       5.620   4.664  18.660  0.00  0.00    +0.000 S 
ATOM      8  O   UNL     1       5.503   5.696  19.678  0.00  0.00    +0.000 OA
ATOM      9  O   UNL     1       6.909   4.344  18.070  0.00  0.00    +0.000 OA
BRANCH   7  10
ATOM     10  C   UNL     1       4.891   3.146  19.311  0.00  0.00    +0.000 C 
BRANCH  10  17
ATOM     11  C   UNL     1       2.687   2.002  17.490  0.00  0.00    +0.000 C 
ATOM     12  C   UNL     1       2.391   2.810  18.726  0.00  0.00    +0.000 A 
ATOM     13  C   UNL     1       1.036   3.031  19.048  0.00  0.00    +0.000 A 
ATOM     14  C   UNL     1       0.671   3.764  20.175  0.00  0.00    +0.000 A 
ATOM     15  C   UNL     1       1.659   4.283  21.001  0.00  0.00    +0.000 A 
ATOM     16  C   UNL     1       3.005   4.078  20.696  0.00  0.00    +0.000 A 
ATOM     17  C   UNL     1       3.402   3.340  19.560  0.00  0.00    +0.000 A 
ENDBRANCH  10  17
ENDBRANCH   7  10
ENDBRANCH   6   7
ENDBRANCH   5   6
ENDBRANCH   1   5
BRANCH   3  18
ATOM     18  C   UNL     1       1.586   9.080  18.559  0.00  0.00    +0.000 C 
BRANCH  18  19
ATOM     19  C   UNL     1       1.564  10.620  18.379  0.00  0.00    +0.000 C 
BRANCH  19  20
ATOM     20  N   UNL     1       1.453  11.376  19.637  0.00  0.00    +0.000 NA
ATOM     21  C   UNL     1       1.058  12.798  19.501  0.00  0.00    +0.000 C 
ATOM     22  C   UNL     1      -0.431  13.224  19.712  0.00  0.00    +0.000 C 
ATOM     23  N   UNL     1      -1.072  12.457  20.788  0.00  0.00    +0.000 N 
ATOM     24  C   UNL     1      -0.872  11.011  20.666  0.00  0.00    +0.000 C 
ATOM     25  C   UNL     1       0.633  10.682  20.655  0.00  0.00    +0.000 C 
BRANCH  23  26
ATOM     26  C   UNL     1      -1.615  13.051  21.912  0.00  0.00    +0.000 A 
ATOM     27  C   UNL     1      -1.213  14.331  22.332  0.00  0.00    +0.000 A 
ATOM     28  C   UNL     1      -1.780  14.966  23.448  0.00  0.00    +0.000 A 
ATOM     29  C   UNL     1      -2.766  14.325  24.188  0.00  0.00    +0.000 A 
ATOM     30  C   UNL     1      -3.177  13.056  23.801  0.00  0.00    +0.000 A 
ATOM     31 CL   UNL     1      -4.393  12.243  24.712  0.00  0.00    +0.000 Cl
ATOM     32  C   UNL     1      -2.614  12.431  22.680  0.00  0.00    +0.000 A 
ENDBRANCH  23  26
ENDBRANCH  19  20
ENDBRANCH  18  19
ENDBRANCH   3  18
TORSDOF 9
ENDMDL
MODEL 8
REMARK VINA RESULT:      -7.1      6.378     10.961
REMARK  Name = 
REMARK  10 active torsions:
REMARK  status: ('A' for Active; 'I' for Inactive)
REMARK    1  A    between atoms: C_1  and  C_2
REMARK    2  A    between atoms: C_7  and  C_8
REMARK    3  A    between atoms: C_8  and  S_9
REMARK    4  A    between atoms: S_9  and  C_12
REMARK    5  A    between atoms: C_12  and  C_13
REMARK    6  A    between atoms: C_13  and  C_14
REMARK    7  A    between atoms: N_16  and  C_17
REMARK    8  A    between atoms: C_17  and  C_18
REMARK    9  A    between atoms: C_18  and  N_19
REMARK   10  A    between atoms: N_22  and  C_23
REMARK                            x       y       z     vdW  Elec       q    Type
REMARK                         _______ _______ _______ _____ _____    ______ ____
ROOT
ATOM      1  C   UNL     1       9.085  10.245  18.619  0.00  0.00    +0.000 C 
ATOM      2  O   UNL     1       9.299   9.959  19.792  0.00  0.00    +0.000 OA
ATOM      3  N   UNL     1       8.387   9.435  17.743  0.00  0.00    +0.000 N 
ATOM      4  H   UNL     1       8.082   9.825  16.859  0.00  0.00    +0.000 HD
ENDROOT
BRANCH   1   5
ATOM      5  C   UNL     1       9.603  11.517  17.969  0.00  0.00    +0.000 C 
BRANCH   5   6
ATOM      6  C   UNL     1       8.517  12.558  17.671  0.00  0.00    +0.000 C 
BRANCH   6   7
ATOM      7  S   UNL     1       8.848  14.055  18.607  0.00  0.00    +0.000 S 
ATOM      8  O   UNL     1      10.278  14.294  18.503  0.00  0.00    +0.000 OA
ATOM      9  O   UNL     1       8.216  13.879  19.904  0.00  0.00    +0.000 OA
BRANCH   7  10
ATOM     10  C   UNL     1       7.990  15.374  17.722  0.00  0.00    +0.000 C 
BRANCH  10  17
ATOM     11  C   UNL     1       7.132  17.543  19.731  0.00  0.00    +0.000 C 
ATOM     12  C   UNL     1       6.176  16.527  19.167  0.00  0.00    +0.000 A 
ATOM     13  C   UNL     1       4.831  16.596  19.585  0.00  0.00    +0.000 A 
ATOM     14  C   UNL     1       3.879  15.698  19.110  0.00  0.00    +0.000 A 
ATOM     15  C   UNL     1       4.257  14.717  18.204  0.00  0.00    +0.000 A 
ATOM     16  C   UNL     1       5.585  14.629  17.782  0.00  0.00    +0.000 A 
ATOM     17  C   UNL     1       6.570  15.527  18.248  0.00  0.00    +0.000 A 
ENDBRANCH  10  17
ENDBRANCH   7  10
ENDBRANCH   6   7
ENDBRANCH   5   6
ENDBRANCH   1   5
BRANCH   3  18
ATOM     18  C   UNL     1       7.811   8.144  18.113  0.00  0.00    +0.000 C 
BRANCH  18  19
ATOM     19  C   UNL     1       7.603   7.177  16.918  0.00  0.00    +0.000 C 
BRANCH  19  20
ATOM     20  N   UNL     1       7.111   5.842  17.298  0.00  0.00    +0.000 NA
ATOM     21  C   UNL     1       6.779   5.662  18.731  0.00  0.00    +0.000 C 
ATOM     22  C   UNL     1       5.298   5.783  19.216  0.00  0.00    +0.000 C 
ATOM     23  N   UNL     1       4.356   5.219  18.240  0.00  0.00    +0.000 N 
ATOM     24  C   UNL     1       4.581   5.698  16.874  0.00  0.00    +0.000 C 
ATOM     25  C   UNL     1       6.016   5.362  16.424  0.00  0.00    +0.000 C 
BRANCH  23  26
ATOM     26  C   UNL     1       3.494   4.181  18.542  0.00  0.00    +0.000 A 
ATOM     27  C   UNL     1       3.108   3.241  17.570  0.00  0.00    +0.000 A 
ATOM     28  C   UNL     1       2.265   2.158  17.866  0.00  0.00    +0.000 A 
ATOM     29  C   UNL     1       1.772   1.993  19.155  0.00  0.00    +0.000 A 
ATOM     30  C   UNL     1       2.130   2.910  20.135  0.00  0.00    +0.000 A 
ATOM     31 CL   UNL     1       1.521   2.725  21.735  0.00  0.00    +0.000 Cl
ATOM     32  C   UNL     1       2.979   3.984  19.834  0.00  0.00    +0.000 A 
ENDBRANCH  23  26
ENDBRANCH  19  20
ENDBRANCH  18  19
ENDBRANCH   3  18
TORSDOF 9
ENDMDL
MODEL 9
REMARK VINA RESULT:      -7.1      3.552      4.876
REMARK  Name = 
REMARK  10 active torsions:
REMARK  status: ('A' for Active; 'I' for Inactive)
REMARK    1  A    between atoms: C_1  and  C_2
REMARK    2  A    between atoms: C_7  and  C_8
REMARK    3  A    between atoms: C_8  and  S_9
REMARK    4  A    between atoms: S_9  and  C_12
REMARK    5  A    between atoms: C_12  and  C_13
REMARK    6  A    between atoms: C_13  and  C_14
REMARK    7  A    between atoms: N_16  and  C_17
REMARK    8  A    between atoms: C_17  and  C_18
REMARK    9  A    between atoms: C_18  and  N_19
REMARK   10  A    between atoms: N_22  and  C_23
REMARK                            x       y       z     vdW  Elec       q    Type
REMARK                         _______ _______ _______ _____ _____    ______ ____
ROOT
ATOM      1  C   UNL     1       2.084   6.170  20.433  0.00  0.00    +0.000 C 
ATOM      2  O   UNL     1       1.573   5.201  20.985  0.00  0.00    +0.000 OA
ATOM      3  N   UNL     1       1.620   7.465  20.567  0.00  0.00    +0.000 N 
ATOM      4  H   UNL     1       2.207   8.226  20.246  0.00  0.00    +0.000 HD
ENDROOT
BRANCH   1   5
ATOM      5  C   UNL     1       3.272   6.056  19.494  0.00  0.00    +0.000 C 
BRANCH   5   6
ATOM      6  C   UNL     1       2.915   5.591  18.078  0.00  0.00    +0.000 C 
BRANCH   6   7
ATOM      7  S   UNL     1       3.377   3.867  17.879  0.00  0.00    +0.000 S 
ATOM      8  O   UNL     1       2.288   3.234  17.151  0.00  0.00    +0.000 OA
ATOM      9  O   UNL     1       3.768   3.389  19.194  0.00  0.00    +0.000 OA
BRANCH   7  10
ATOM     10  C   UNL     1       4.833   3.880  16.813  0.00  0.00    +0.000 C 
BRANCH  10  17
ATOM     11  C   UNL     1       5.085   6.654  15.501  0.00  0.00    +0.000 C 
ATOM     12  C   UNL     1       5.927   6.223  16.673  0.00  0.00    +0.000 A 
ATOM     13  C   UNL     1       6.859   7.151  17.180  0.00  0.00    +0.000 A 
ATOM     14  C   UNL     1       7.675   6.839  18.264  0.00  0.00    +0.000 A 
ATOM     15  C   UNL     1       7.568   5.589  18.861  0.00  0.00    +0.000 A 
ATOM     16  C   UNL     1       6.654   4.656  18.371  0.00  0.00    +0.000 A 
ATOM     17  C   UNL     1       5.816   4.948  17.273  0.00  0.00    +0.000 A 
ENDBRANCH  10  17
ENDBRANCH   7  10
ENDBRANCH   6   7
ENDBRANCH   5   6
ENDBRANCH   1   5
BRANCH   3  18
ATOM     18  C   UNL     1       0.471   7.837  21.390  0.00  0.00    +0.000 C 
BRANCH  18  19
ATOM     19  C   UNL     1      -0.143   9.217  21.035  0.00  0.00    +0.000 C 
BRANCH  19  20
ATOM     20  N   UNL     1       0.772  10.120  20.317  0.00  0.00    +0.000 NA
ATOM     21  C   UNL     1       0.344  10.522  18.956  0.00  0.00    +0.000 C 
ATOM     22  C   UNL     1      -0.369  11.895  18.730  0.00  0.00    +0.000 C 
ATOM     23  N   UNL     1       0.189  12.948  19.588  0.00  0.00    +0.000 N 
ATOM     24  C   UNL     1       0.296  12.552  20.995  0.00  0.00    +0.000 C 
ATOM     25  C   UNL     1       1.175  11.292  21.126  0.00  0.00    +0.000 C 
BRANCH  23  26
ATOM     26  C   UNL     1       0.756  14.104  19.086  0.00  0.00    +0.000 A 
ATOM     27  C   UNL     1       0.027  15.304  19.005  0.00  0.00    +0.000 A 
ATOM     28  C   UNL     1       0.596  16.497  18.533  0.00  0.00    +0.000 A 
ATOM     29  C   UNL     1       1.921  16.518  18.116  0.00  0.00    +0.000 A 
ATOM     30  C   UNL     1       2.664  15.346  18.178  0.00  0.00    +0.000 A 
ATOM     31 CL   UNL     1       4.307  15.353  17.657  0.00  0.00    +0.000 Cl
ATOM     32  C   UNL     1       2.093  14.160  18.658  0.00  0.00    +0.000 A 
ENDBRANCH  23  26
ENDBRANCH  19  20
ENDBRANCH  18  19
ENDBRANCH   3  18
TORSDOF 9
ENDMDL
