MODEL 1
REMARK VINA RESULT:      -7.2      0.000      0.000
REMARK  Name = 
REMARK  9 active torsions:
REMARK  status: ('A' for Active; 'I' for Inactive)
REMARK    1  A    between atoms: C_2  and  O_3
REMARK    2  A    between atoms: C_2  and  C_4
REMARK    3  A    between atoms: C_4  and  N_5
REMARK    4  A    between atoms: C_6  and  C_8
REMARK    5  A    between atoms: C_11  and  N_12
REMARK    6  A    between atoms: N_12  and  C_13
REMARK    7  A    between atoms: C_13  and  N_15
REMARK    8  A    between atoms: N_15  and  N_16
REMARK    9  A    between atoms: C_17  and  C_18
REMARK                            x       y       z     vdW  Elec       q    Type
REMARK                         _______ _______ _______ _____ _____    ______ ____
ROOT
ATOM      1  C   UNL     1       1.736   8.577  19.005  0.00  0.00    +0.000 A 
ATOM      2  C   UNL     1       2.281   7.574  18.198  0.00  0.00    +0.000 A 
ATOM      3  C   UNL     1       2.502   6.293  18.726  0.00  0.00    +0.000 A 
ATOM      4  C   UNL     1       2.233   6.022  20.073  0.00  0.00    +0.000 A 
ATOM      5  C   UNL     1       1.674   7.020  20.871  0.00  0.00    +0.000 A 
ATOM      6  C   UNL     1       1.424   8.289  20.340  0.00  0.00    +0.000 A 
ENDROOT
BRANCH   1   8
ATOM      7  N   UNL     1       0.668  10.772  19.256  0.00  0.00    +0.000 N 
ATOM      8  C   UNL     1       1.512   9.966  18.522  0.00  0.00    +0.000 C 
ATOM      9  O   UNL     1       2.084  10.374  17.515  0.00  0.00    +0.000 OA
ATOM     10  H   UNL     1       0.332  10.493  20.172  0.00  0.00    +0.000 HD
BRANCH   7  11
ATOM     11  C   UNL     1       0.447  12.143  18.842  0.00  0.00    +0.000 C 
BRANCH  11  13
ATOM     12  O   UNL     1      -1.946  12.282  19.250  0.00  0.00    +0.000 OA
ATOM     13  C   UNL     1      -1.006  12.398  18.474  0.00  0.00    +0.000 C 
BRANCH  13  14
ATOM     14  O   UNL     1      -1.171  12.782  17.187  0.00  0.00    +0.000 OA
ATOM     15  H   UNL     1      -1.722  13.582  17.078  0.00  0.00    +0.000 HD
ENDBRANCH  13  14
ENDBRANCH  11  13
ENDBRANCH   7  11
ENDBRANCH   1   8
BRANCH   4  16
ATOM     16  N   UNL     1       2.446   4.717  20.542  0.00  0.00    +0.000 N 
ATOM     17  H   UNL     1       2.788   4.610  21.491  0.00  0.00    +0.000 HD
BRANCH  16  18
ATOM     18  C   UNL     1       2.260   3.497  19.923  0.00  0.00    +0.000 C 
ATOM     19  S   UNL     1       0.848   2.858  19.305  0.00  0.00    +0.000 S 
BRANCH  18  20
ATOM     20  N   UNL     1       3.426   2.740  19.873  0.00  0.00    +0.000 N 
ATOM     21  H   UNL     1       3.332   1.739  20.014  0.00  0.00    +0.000 HD
BRANCH  20  22
ATOM     22  N   UNL     1       4.443   3.218  19.106  0.00  0.00    +0.000 NA
ATOM     23  C   UNL     1       4.229   3.355  17.840  0.00  0.00    +0.000 C 
BRANCH  23  24
ATOM     24  C   UNL     1       5.233   4.082  17.030  0.00  0.00    +0.000 A 
ATOM     25  C   UNL     1       5.528   3.676  15.727  0.00  0.00    +0.000 A 
ATOM     26  C   UNL     1       6.456   4.404  14.976  0.00  0.00    +0.000 A 
ATOM     27  C   UNL     1       7.074   5.534  15.521  0.00  0.00    +0.000 A 
ATOM     28  C   UNL     1       6.761   5.939  16.817  0.00  0.00    +0.000 A 
ATOM     29 BR   UNL     1       7.576   7.477  17.554  0.00  0.00    +0.000 Br
ATOM     30  C   UNL     1       5.845   5.220  17.574  0.00  0.00    +0.000 A 
ENDBRANCH  23  24
ENDBRANCH  20  22
ENDBRANCH  18  20
ENDBRANCH  16  18
ENDBRANCH   4  16
TORSDOF 9
ENDMDL
MODEL 2
REMARK VINA RESULT:      -7.0      4.600      8.586
REMARK  Name = 
REMARK  9 active torsions:
REMARK  status: ('A' for Active; 'I' for Inactive)
REMARK    1  A    between atoms: C_2  and  O_3
REMARK    2  A    between atoms: C_2  and  C_4
REMARK    3  A    between atoms: C_4  and  N_5
REMARK    4  A    between atoms: C_6  and  C_8
REMARK    5  A    between atoms: C_11  and  N_12
REMARK    6  A    between atoms: N_12  and  C_13
REMARK    7  A    between atoms: C_13  and  N_15
REMARK    8  A    between atoms: N_15  and  N_16
REMARK    9  A    between atoms: C_17  and  C_18
REMARK                            x       y       z     vdW  Elec       q    Type
REMARK                         _______ _______ _______ _____ _____    ______ ____
ROOT
ATOM      1  C   UNL     1       5.781   4.418  16.056  0.00  0.00    +0.000 A 
ATOM      2  C   UNL     1       4.416   4.122  16.129  0.00  0.00    +0.000 A 
ATOM      3  C   UNL     1       3.771   4.091  17.374  0.00  0.00    +0.000 A 
ATOM      4  C   UNL     1       4.493   4.299  18.555  0.00  0.00    +0.000 A 
ATOM      5  C   UNL     1       5.851   4.610  18.479  0.00  0.00    +0.000 A 
ATOM      6  C   UNL     1       6.490   4.672  17.236  0.00  0.00    +0.000 A 
ENDROOT
BRANCH   1   8
ATOM      7  N   UNL     1       6.088   3.609  13.760  0.00  0.00    +0.000 N 
ATOM      8  C   UNL     1       6.535   4.429  14.774  0.00  0.00    +0.000 C 
ATOM      9  O   UNL     1       7.507   5.164  14.631  0.00  0.00    +0.000 OA
ATOM     10  H   UNL     1       5.194   3.132  13.818  0.00  0.00    +0.000 HD
BRANCH   7  11
ATOM     11  C   UNL     1       6.772   3.612  12.482  0.00  0.00    +0.000 C 
BRANCH  11  13
ATOM     12  O   UNL     1       5.234   2.128  11.324  0.00  0.00    +0.000 OA
ATOM     13  C   UNL     1       6.384   2.416  11.627  0.00  0.00    +0.000 C 
BRANCH  13  14
ATOM     14  O   UNL     1       7.447   1.687  11.215  0.00  0.00    +0.000 OA
ATOM     15  H   UNL     1       8.161   1.615  11.879  0.00  0.00    +0.000 HD
ENDBRANCH  13  14
ENDBRANCH  11  13
ENDBRANCH   7  11
ENDBRANCH   1   8
BRANCH   4  16
ATOM     16  N   UNL     1       3.794   4.285  19.771  0.00  0.00    +0.000 N 
ATOM     17  H   UNL     1       4.174   3.720  20.524  0.00  0.00    +0.000 HD
BRANCH  16  18
ATOM     18  C   UNL     1       2.635   4.933  20.150  0.00  0.00    +0.000 C 
ATOM     19  S   UNL     1       1.080   4.328  20.187  0.00  0.00    +0.000 S 
BRANCH  18  20
ATOM     20  N   UNL     1       2.855   6.261  20.499  0.00  0.00    +0.000 N 
ATOM     21  H   UNL     1       3.818   6.540  20.663  0.00  0.00    +0.000 HD
BRANCH  20  22
ATOM     22  N   UNL     1       1.957   7.178  20.047  0.00  0.00    +0.000 NA
ATOM     23  C   UNL     1       1.544   8.075  20.878  0.00  0.00    +0.000 C 
BRANCH  23  24
ATOM     24  C   UNL     1       0.751   9.210  20.353  0.00  0.00    +0.000 A 
ATOM     25  C   UNL     1       0.658   9.439  18.979  0.00  0.00    +0.000 A 
ATOM     26  C   UNL     1      -0.126  10.499  18.513  0.00  0.00    +0.000 A 
ATOM     27  C   UNL     1      -0.819  11.314  19.413  0.00  0.00    +0.000 A 
ATOM     28  C   UNL     1      -0.731  11.067  20.781  0.00  0.00    +0.000 A 
ATOM     29 BR   UNL     1      -1.681  12.150  22.005  0.00  0.00    +0.000 Br
ATOM     30  C   UNL     1       0.049  10.020  21.256  0.00  0.00    +0.000 A 
ENDBRANCH  23  24
ENDBRANCH  20  22
ENDBRANCH  18  20
ENDBRANCH  16  18
ENDBRANCH   4  16
TORSDOF 9
ENDMDL
MODEL 3
REMARK VINA RESULT:      -6.9      0.472      1.158
REMARK  Name = 
REMARK  9 active torsions:
REMARK  status: ('A' for Active; 'I' for Inactive)
REMARK    1  A    between atoms: C_2  and  O_3
REMARK    2  A    between atoms: C_2  and  C_4
REMARK    3  A    between atoms: C_4  and  N_5
REMARK    4  A    between atoms: C_6  and  C_8
REMARK    5  A    between atoms: C_11  and  N_12
REMARK    6  A    between atoms: N_12  and  C_13
REMARK    7  A    between atoms: C_13  and  N_15
REMARK    8  A    between atoms: N_15  and  N_16
REMARK    9  A    between atoms: C_17  and  C_18
REMARK                            x       y       z     vdW  Elec       q    Type
REMARK                         _______ _______ _______ _____ _____    ______ ____
ROOT
ATOM      1  C   UNL     1       1.650   8.900  19.215  0.00  0.00    +0.000 A 
ATOM      2  C   UNL     1       1.236   8.538  20.501  0.00  0.00    +0.000 A 
ATOM      3  C   UNL     1       1.537   7.263  21.001  0.00  0.00    +0.000 A 
ATOM      4  C   UNL     1       2.202   6.324  20.204  0.00  0.00    +0.000 A 
ATOM      5  C   UNL     1       2.628   6.692  18.928  0.00  0.00    +0.000 A 
ATOM      6  C   UNL     1       2.357   7.973  18.437  0.00  0.00    +0.000 A 
ENDROOT
BRANCH   1   8
ATOM      7  N   UNL     1       0.362  10.988  19.214  0.00  0.00    +0.000 N 
ATOM      8  C   UNL     1       1.332  10.220  18.607  0.00  0.00    +0.000 C 
ATOM      9  O   UNL     1       1.936  10.608  17.612  0.00  0.00    +0.000 OA
ATOM     10  H   UNL     1      -0.015  10.745  20.125  0.00  0.00    +0.000 HD
BRANCH   7  11
ATOM     11  C   UNL     1       0.042  12.295  18.677  0.00  0.00    +0.000 C 
BRANCH  11  13
ATOM     12  O   UNL     1      -1.964  11.818  17.390  0.00  0.00    +0.000 OA
ATOM     13  C   UNL     1      -1.429  12.417  18.314  0.00  0.00    +0.000 C 
BRANCH  13  14
ATOM     14  O   UNL     1      -2.112  13.257  19.125  0.00  0.00    +0.000 OA
ATOM     15  H   UNL     1      -2.604  12.807  19.840  0.00  0.00    +0.000 HD
ENDBRANCH  13  14
ENDBRANCH  11  13
ENDBRANCH   7  11
ENDBRANCH   1   8
BRANCH   4  16
ATOM     16  N   UNL     1       2.502   5.073  20.764  0.00  0.00    +0.000 N 
ATOM     17  H   UNL     1       2.920   5.061  21.688  0.00  0.00    +0.000 HD
BRANCH  16  18
ATOM     18  C   UNL     1       2.318   3.798  20.267  0.00  0.00    +0.000 C 
ATOM     19  S   UNL     1       0.904   3.094  19.729  0.00  0.00    +0.000 S 
BRANCH  18  20
ATOM     20  N   UNL     1       3.489   3.047  20.276  0.00  0.00    +0.000 N 
ATOM     21  H   UNL     1       3.404   2.065  20.521  0.00  0.00    +0.000 HD
BRANCH  20  22
ATOM     22  N   UNL     1       4.490   3.449  19.447  0.00  0.00    +0.000 NA
ATOM     23  C   UNL     1       4.234   3.520  18.184  0.00  0.00    +0.000 C 
BRANCH  23  24
ATOM     24  C   UNL     1       5.228   4.168  17.300  0.00  0.00    +0.000 A 
ATOM     25  C   UNL     1       5.482   3.665  16.023  0.00  0.00    +0.000 A 
ATOM     26  C   UNL     1       6.403   4.320  15.198  0.00  0.00    +0.000 A 
ATOM     27  C   UNL     1       7.053   5.475  15.644  0.00  0.00    +0.000 A 
ATOM     28  C   UNL     1       6.780   5.978  16.914  0.00  0.00    +0.000 A 
ATOM     29 BR   UNL     1       7.638   7.550  17.518  0.00  0.00    +0.000 Br
ATOM     30  C   UNL     1       5.872   5.331  17.744  0.00  0.00    +0.000 A 
ENDBRANCH  23  24
ENDBRANCH  20  22
ENDBRANCH  18  20
ENDBRANCH  16  18
ENDBRANCH   4  16
TORSDOF 9
ENDMDL
MODEL 4
REMARK VINA RESULT:      -6.9      1.769      2.247
REMARK  Name = 
REMARK  9 active torsions:
REMARK  status: ('A' for Active; 'I' for Inactive)
REMARK    1  A    between atoms: C_2  and  O_3
REMARK    2  A    between atoms: C_2  and  C_4
REMARK    3  A    between atoms: C_4  and  N_5
REMARK    4  A    between atoms: C_6  and  C_8
REMARK    5  A    between atoms: C_11  and  N_12
REMARK    6  A    between atoms: N_12  and  C_13
REMARK    7  A    between atoms: C_13  and  N_15
REMARK    8  A    between atoms: N_15  and  N_16
REMARK    9  A    between atoms: C_17  and  C_18
REMARK                            x       y       z     vdW  Elec       q    Type
REMARK                         _______ _______ _______ _____ _____    ______ ____
ROOT
ATOM      1  C   UNL     1       0.996   9.153  19.514  0.00  0.00    +0.000 A 
ATOM      2  C   UNL     1       0.813   8.537  20.757  0.00  0.00    +0.000 A 
ATOM      3  C   UNL     1       1.464   7.329  21.041  0.00  0.00    +0.000 A 
ATOM      4  C   UNL     1       2.255   6.700  20.073  0.00  0.00    +0.000 A 
ATOM      5  C   UNL     1       2.449   7.323  18.840  0.00  0.00    +0.000 A 
ATOM      6  C   UNL     1       1.826   8.545  18.564  0.00  0.00    +0.000 A 
ENDROOT
BRANCH   1   8
ATOM      7  N   UNL     1      -0.960  10.630  19.631  0.00  0.00    +0.000 N 
ATOM      8  C   UNL     1       0.306  10.414  19.131  0.00  0.00    +0.000 C 
ATOM      9  O   UNL     1       0.866  11.235  18.411  0.00  0.00    +0.000 OA
ATOM     10  H   UNL     1      -1.353  10.037  20.355  0.00  0.00    +0.000 HD
BRANCH   7  11
ATOM     11  C   UNL     1      -1.657  11.860  19.312  0.00  0.00    +0.000 C 
BRANCH  11  13
ATOM     12  O   UNL     1      -3.487  11.253  17.832  0.00  0.00    +0.000 OA
ATOM     13  C   UNL     1      -2.388  11.771  17.983  0.00  0.00    +0.000 C 
BRANCH  13  14
ATOM     14  O   UNL     1      -1.706  12.333  16.959  0.00  0.00    +0.000 OA
ATOM     15  H   UNL     1      -0.804  11.976  16.839  0.00  0.00    +0.000 HD
ENDBRANCH  13  14
ENDBRANCH  11  13
ENDBRANCH   7  11
ENDBRANCH   1   8
BRANCH   4  16
ATOM     16  N   UNL     1       2.906   5.506  20.420  0.00  0.00    +0.000 N 
ATOM     17  H   UNL     1       3.823   5.579  20.847  0.00  0.00    +0.000 HD
BRANCH  16  18
ATOM     18  C   UNL     1       2.505   4.191  20.286  0.00  0.00    +0.000 C 
ATOM     19  S   UNL     1       1.933   3.162  21.469  0.00  0.00    +0.000 S 
BRANCH  18  20
ATOM     20  N   UNL     1       2.655   3.717  18.988  0.00  0.00    +0.000 N 
ATOM     21  H   UNL     1       1.812   3.422  18.504  0.00  0.00    +0.000 HD
BRANCH  20  22
ATOM     22  N   UNL     1       3.709   4.194  18.271  0.00  0.00    +0.000 NA
ATOM     23  C   UNL     1       4.264   3.401  17.417  0.00  0.00    +0.000 C 
BRANCH  23  24
ATOM     24  C   UNL     1       5.254   3.966  16.472  0.00  0.00    +0.000 A 
ATOM     25  C   UNL     1       6.252   4.834  16.918  0.00  0.00    +0.000 A 
ATOM     26  C   UNL     1       7.192   5.324  16.007  0.00  0.00    +0.000 A 
ATOM     27  C   UNL     1       7.140   4.939  14.663  0.00  0.00    +0.000 A 
ATOM     28  C   UNL     1       6.150   4.060  14.231  0.00  0.00    +0.000 A 
ATOM     29 BR   UNL     1       6.084   3.517  12.423  0.00  0.00    +0.000 Br
ATOM     30  C   UNL     1       5.207   3.572  15.128  0.00  0.00    +0.000 A 
ENDBRANCH  23  24
ENDBRANCH  20  22
ENDBRANCH  18  20
ENDBRANCH  16  18
ENDBRANCH   4  16
TORSDOF 9
ENDMDL
MODEL 5
REMARK VINA RESULT:      -6.9      1.959      2.564
REMARK  Name = 
REMARK  9 active torsions:
REMARK  status: ('A' for Active; 'I' for Inactive)
REMARK    1  A    between atoms: C_2  and  O_3
REMARK    2  A    between atoms: C_2  and  C_4
REMARK    3  A    between atoms: C_4  and  N_5
REMARK    4  A    between atoms: C_6  and  C_8
REMARK    5  A    between atoms: C_11  and  N_12
REMARK    6  A    between atoms: N_12  and  C_13
REMARK    7  A    between atoms: C_13  and  N_15
REMARK    8  A    between atoms: N_15  and  N_16
REMARK    9  A    between atoms: C_17  and  C_18
REMARK                            x       y       z     vdW  Elec       q    Type
REMARK                         _______ _______ _______ _____ _____    ______ ____
ROOT
ATOM      1  C   UNL     1       0.718   9.553  18.966  0.00  0.00    +0.000 A 
ATOM      2  C   UNL     1       0.768   9.071  20.278  0.00  0.00    +0.000 A 
ATOM      3  C   UNL     1       1.573   7.964  20.587  0.00  0.00    +0.000 A 
ATOM      4  C   UNL     1       2.287   7.301  19.582  0.00  0.00    +0.000 A 
ATOM      5  C   UNL     1       2.249   7.793  18.278  0.00  0.00    +0.000 A 
ATOM      6  C   UNL     1       1.472   8.915  17.972  0.00  0.00    +0.000 A 
ENDROOT
BRANCH   1   8
ATOM      7  N   UNL     1      -1.135  10.455  17.635  0.00  0.00    +0.000 N 
ATOM      8  C   UNL     1      -0.143  10.697  18.561  0.00  0.00    +0.000 C 
ATOM      9  O   UNL     1       0.022  11.806  19.059  0.00  0.00    +0.000 OA
ATOM     10  H   UNL     1      -1.379   9.511  17.352  0.00  0.00    +0.000 HD
BRANCH   7  11
ATOM     11  C   UNL     1      -2.019  11.531  17.235  0.00  0.00    +0.000 C 
BRANCH  11  13
ATOM     12  O   UNL     1      -4.285  10.965  17.909  0.00  0.00    +0.000 OA
ATOM     13  C   UNL     1      -3.260  11.603  18.110  0.00  0.00    +0.000 C 
BRANCH  13  14
ATOM     14  O   UNL     1      -3.125  12.446  19.160  0.00  0.00    +0.000 OA
ATOM     15  H   UNL     1      -2.813  13.339  18.914  0.00  0.00    +0.000 HD
ENDBRANCH  13  14
ENDBRANCH  11  13
ENDBRANCH   7  11
ENDBRANCH   1   8
BRANCH   4  16
ATOM     16  N   UNL     1       3.098   6.216  19.951  0.00  0.00    +0.000 N 
ATOM     17  H   UNL     1       3.978   6.424  20.411  0.00  0.00    +0.000 HD
BRANCH  16  18
ATOM     18  C   UNL     1       2.905   4.857  19.801  0.00  0.00    +0.000 C 
ATOM     19  S   UNL     1       1.464   4.029  19.657  0.00  0.00    +0.000 S 
BRANCH  18  20
ATOM     20  N   UNL     1       4.099   4.144  19.816  0.00  0.00    +0.000 N 
ATOM     21  H   UNL     1       4.086   3.234  20.267  0.00  0.00    +0.000 HD
BRANCH  20  22
ATOM     22  N   UNL     1       4.975   4.378  18.801  0.00  0.00    +0.000 NA
ATOM     23  C   UNL     1       4.783   3.760  17.685  0.00  0.00    +0.000 C 
BRANCH  23  24
ATOM     24  C   UNL     1       5.579   4.170  16.506  0.00  0.00    +0.000 A 
ATOM     25  C   UNL     1       6.695   4.995  16.652  0.00  0.00    +0.000 A 
ATOM     26  C   UNL     1       7.446   5.338  15.523  0.00  0.00    +0.000 A 
ATOM     27  C   UNL     1       7.089   4.848  14.263  0.00  0.00    +0.000 A 
ATOM     28  C   UNL     1       5.983   4.012  14.131  0.00  0.00    +0.000 A 
ATOM     29 BR   UNL     1       5.506   3.329  12.435  0.00  0.00    +0.000 Br
ATOM     30  C   UNL     1       5.226   3.671  15.245  0.00  0.00    +0.000 A 
ENDBRANCH  23  24
ENDBRANCH  20  22
ENDBRANCH  18  20
ENDBRANCH  16  18
ENDBRANCH   4  16
TORSDOF 9
ENDMDL
MODEL 6
REMARK VINA RESULT:      -6.9      4.169      6.296
REMARK  Name = 
REMARK  9 active torsions:
REMARK  status: ('A' for Active; 'I' for Inactive)
REMARK    1  A    between atoms: C_2  and  O_3
REMARK    2  A    between atoms: C_2  and  C_4
REMARK    3  A    between atoms: C_4  and  N_5
REMARK    4  A    between atoms: C_6  and  C_8
REMARK    5  A    between atoms: C_11  and  N_12
REMARK    6  A    between atoms: N_12  and  C_13
REMARK    7  A    between atoms: C_13  and  N_15
REMARK    8  A    between atoms: N_15  and  N_16
REMARK    9  A    between atoms: C_17  and  C_18
REMARK                            x       y       z     vdW  Elec       q    Type
REMARK                         _______ _______ _______ _____ _____    ______ ____
ROOT
ATOM      1  C   UNL     1      -2.707  10.921  17.311  0.00  0.00    +0.000 A 
ATOM      2  C   UNL     1      -1.564  10.119  17.391  0.00  0.00    +0.000 A 
ATOM      3  C   UNL     1      -0.729  10.199  18.515  0.00  0.00    +0.000 A 
ATOM      4  C   UNL     1      -0.999  11.116  19.538  0.00  0.00    +0.000 A 
ATOM      5  C   UNL     1      -2.147  11.903  19.465  0.00  0.00    +0.000 A 
ATOM      6  C   UNL     1      -2.999  11.804  18.359  0.00  0.00    +0.000 A 
ENDROOT
BRANCH   1   8
ATOM      7  N   UNL     1      -3.322  10.048  15.103  0.00  0.00    +0.000 N 
ATOM      8  C   UNL     1      -3.614  10.916  16.132  0.00  0.00    +0.000 C 
ATOM      9  O   UNL     1      -4.597  11.650  16.101  0.00  0.00    +0.000 OA
ATOM     10  H   UNL     1      -2.613   9.328  15.200  0.00  0.00    +0.000 HD
BRANCH   7  11
ATOM     11  C   UNL     1      -4.196   9.984  13.948  0.00  0.00    +0.000 C 
BRANCH  11  13
ATOM     12  O   UNL     1      -2.252   9.437  12.596  0.00  0.00    +0.000 OA
ATOM     13  C   UNL     1      -3.418   9.804  12.655  0.00  0.00    +0.000 C 
BRANCH  13  14
ATOM     14  O   UNL     1      -4.148  10.083  11.550  0.00  0.00    +0.000 OA
ATOM     15  H   UNL     1      -3.750  10.765  10.973  0.00  0.00    +0.000 HD
ENDBRANCH  13  14
ENDBRANCH  11  13
ENDBRANCH   7  11
ENDBRANCH   1   8
BRANCH   4  16
ATOM     16  N   UNL     1      -0.146  11.135  20.653  0.00  0.00    +0.000 N 
ATOM     17  H   UNL     1       0.282  12.021  20.901  0.00  0.00    +0.000 HD
BRANCH  16  18
ATOM     18  C   UNL     1       0.227  10.125  21.518  0.00  0.00    +0.000 C 
ATOM     19  S   UNL     1      -0.496   9.676  22.953  0.00  0.00    +0.000 S 
BRANCH  18  20
ATOM     20  N   UNL     1       1.375   9.462  21.100  0.00  0.00    +0.000 N 
ATOM     21  H   UNL     1       2.232   9.659  21.609  0.00  0.00    +0.000 HD
BRANCH  20  22
ATOM     22  N   UNL     1       1.210   8.248  20.506  0.00  0.00    +0.000 NA
ATOM     23  C   UNL     1       2.268   7.622  20.112  0.00  0.00    +0.000 C 
BRANCH  23  24
ATOM     24  C   UNL     1       2.132   6.213  19.678  0.00  0.00    +0.000 A 
ATOM     25  C   UNL     1       2.256   5.867  18.331  0.00  0.00    +0.000 A 
ATOM     26  C   UNL     1       2.155   4.524  17.956  0.00  0.00    +0.000 A 
ATOM     27  C   UNL     1       1.944   3.535  18.923  0.00  0.00    +0.000 A 
ATOM     28  C   UNL     1       1.838   3.890  20.266  0.00  0.00    +0.000 A 
ATOM     29 BR   UNL     1       1.574   2.559  21.582  0.00  0.00    +0.000 Br
ATOM     30  C   UNL     1       1.930   5.223  20.648  0.00  0.00    +0.000 A 
ENDBRANCH  23  24
ENDBRANCH  20  22
ENDBRANCH  18  20
ENDBRANCH  16  18
ENDBRANCH   4  16
TORSDOF 9
ENDMDL
MODEL 7
REMARK VINA RESULT:      -6.8      4.035      6.436
REMARK  Name = 
REMARK  9 active torsions:
REMARK  status: ('A' for Active; 'I' for Inactive)
REMARK    1  A    between atoms: C_2  and  O_3
REMARK    2  A    between atoms: C_2  and  C_4
REMARK    3  A    between atoms: C_4  and  N_5
REMARK    4  A    between atoms: C_6  and  C_8
REMARK    5  A    between atoms: C_11  and  N_12
REMARK    6  A    between atoms: N_12  and  C_13
REMARK    7  A    between atoms: C_13  and  N_15
REMARK    8  A    between atoms: N_15  and  N_16
REMARK    9  A    between atoms: C_17  and  C_18
REMARK                            x       y       z     vdW  Elec       q    Type
REMARK                         _______ _______ _______ _____ _____    ______ ____
ROOT
ATOM      1  C   UNL     1       6.049   5.705  17.621  0.00  0.00    +0.000 A 
ATOM      2  C   UNL     1       5.043   5.139  16.832  0.00  0.00    +0.000 A 
ATOM      3  C   UNL     1       4.161   4.201  17.387  0.00  0.00    +0.000 A 
ATOM      4  C   UNL     1       4.310   3.782  18.714  0.00  0.00    +0.000 A 
ATOM      5  C   UNL     1       5.303   4.360  19.505  0.00  0.00    +0.000 A 
ATOM      6  C   UNL     1       6.165   5.318  18.963  0.00  0.00    +0.000 A 
ENDROOT
BRANCH   1   8
ATOM      7  N   UNL     1       7.238   7.844  17.791  0.00  0.00    +0.000 N 
ATOM      8  C   UNL     1       7.042   6.675  17.088  0.00  0.00    +0.000 C 
ATOM      9  O   UNL     1       7.674   6.420  16.067  0.00  0.00    +0.000 OA
ATOM     10  H   UNL     1       6.844   7.980  18.717  0.00  0.00    +0.000 HD
BRANCH   7  11
ATOM     11  C   UNL     1       8.220   8.804  17.327  0.00  0.00    +0.000 C 
BRANCH  11  13
ATOM     12  O   UNL     1       8.804  10.924  18.363  0.00  0.00    +0.000 OA
ATOM     13  C   UNL     1       8.707   9.707  18.449  0.00  0.00    +0.000 C 
BRANCH  13  14
ATOM     14  O   UNL     1       9.022   9.033  19.579  0.00  0.00    +0.000 OA
ATOM     15  H   UNL     1       9.450   8.168  19.419  0.00  0.00    +0.000 HD
ENDBRANCH  13  14
ENDBRANCH  11  13
ENDBRANCH   7  11
ENDBRANCH   1   8
BRANCH   4  16
ATOM     16  N   UNL     1       3.383   2.862  19.228  0.00  0.00    +0.000 N 
ATOM     17  H   UNL     1       3.700   1.910  19.376  0.00  0.00    +0.000 HD
BRANCH  16  18
ATOM     18  C   UNL     1       2.060   3.025  19.591  0.00  0.00    +0.000 C 
ATOM     19  S   UNL     1       0.726   2.194  19.030  0.00  0.00    +0.000 S 
BRANCH  18  20
ATOM     20  N   UNL     1       1.883   4.049  20.515  0.00  0.00    +0.000 N 
ATOM     21  H   UNL     1       2.425   3.994  21.373  0.00  0.00    +0.000 HD
BRANCH  20  22
ATOM     22  N   UNL     1       1.514   5.266  20.030  0.00  0.00    +0.000 NA
ATOM     23  C   UNL     1       2.204   6.294  20.395  0.00  0.00    +0.000 C 
BRANCH  23  24
ATOM     24  C   UNL     1       1.967   7.583  19.706  0.00  0.00    +0.000 A 
ATOM     25  C   UNL     1       2.419   7.788  18.401  0.00  0.00    +0.000 A 
ATOM     26  C   UNL     1       2.150   9.004  17.765  0.00  0.00    +0.000 A 
ATOM     27  C   UNL     1       1.424  10.000  18.426  0.00  0.00    +0.000 A 
ATOM     28  C   UNL     1       0.963   9.779  19.721  0.00  0.00    +0.000 A 
ATOM     29 BR   UNL     1      -0.037  11.110  20.614  0.00  0.00    +0.000 Br
ATOM     30  C   UNL     1       1.231   8.576  20.365  0.00  0.00    +0.000 A 
ENDBRANCH  23  24
ENDBRANCH  20  22
ENDBRANCH  18  20
ENDBRANCH  16  18
ENDBRANCH   4  16
TORSDOF 9
ENDMDL
MODEL 8
REMARK VINA RESULT:      -6.7      4.685      8.524
REMARK  Name = 
REMARK  9 active torsions:
REMARK  status: ('A' for Active; 'I' for Inactive)
REMARK    1  A    between atoms: C_2  and  O_3
REMARK    2  A    between atoms: C_2  and  C_4
REMARK    3  A    between atoms: C_4  and  N_5
REMARK    4  A    between atoms: C_6  and  C_8
REMARK    5  A    between atoms: C_11  and  N_12
REMARK    6  A    between atoms: N_12  and  C_13
REMARK    7  A    between atoms: C_13  and  N_15
REMARK    8  A    between atoms: N_15  and  N_16
REMARK    9  A    between atoms: C_17  and  C_18
REMARK                            x       y       z     vdW  Elec       q    Type
REMARK                         _______ _______ _______ _____ _____    ______ ____
ROOT
ATOM      1  C   UNL     1       5.192   5.254  16.154  0.00  0.00    +0.000 A 
ATOM      2  C   UNL     1       5.071   6.625  16.405  0.00  0.00    +0.000 A 
ATOM      3  C   UNL     1       4.108   7.087  17.315  0.00  0.00    +0.000 A 
ATOM      4  C   UNL     1       3.227   6.194  17.935  0.00  0.00    +0.000 A 
ATOM      5  C   UNL     1       3.360   4.826  17.695  0.00  0.00    +0.000 A 
ATOM      6  C   UNL     1       4.340   4.359  16.813  0.00  0.00    +0.000 A 
ENDROOT
BRANCH   1   8
ATOM      7  N   UNL     1       5.668   4.231  13.976  0.00  0.00    +0.000 N 
ATOM      8  C   UNL     1       6.163   4.698  15.174  0.00  0.00    +0.000 C 
ATOM      9  O   UNL     1       7.364   4.683  15.429  0.00  0.00    +0.000 OA
ATOM     10  H   UNL     1       4.706   4.396  13.698  0.00  0.00    +0.000 HD
BRANCH   7  11
ATOM     11  C   UNL     1       6.581   3.711  12.977  0.00  0.00    +0.000 C 
BRANCH  11  13
ATOM     12  O   UNL     1       4.755   3.082  11.500  0.00  0.00    +0.000 OA
ATOM     13  C   UNL     1       5.868   2.844  11.952  0.00  0.00    +0.000 C 
BRANCH  13  14
ATOM     14  O   UNL     1       6.591   1.767  11.568  0.00  0.00    +0.000 OA
ATOM     15  H   UNL     1       6.085   1.116  11.043  0.00  0.00    +0.000 HD
ENDBRANCH  13  14
ENDBRANCH  11  13
ENDBRANCH   7  11
ENDBRANCH   1   8
BRANCH   4  16
ATOM     16  N   UNL     1       2.302   6.707  18.857  0.00  0.00    +0.000 N 
ATOM     17  H   UNL     1       1.636   7.394  18.519  0.00  0.00    +0.000 HD
BRANCH  16  18
ATOM     18  C   UNL     1       2.119   6.430  20.197  0.00  0.00    +0.000 C 
ATOM     19  S   UNL     1       2.086   4.939  20.947  0.00  0.00    +0.000 S 
BRANCH  18  20
ATOM     20  N   UNL     1       1.905   7.576  20.955  0.00  0.00    +0.000 N 
ATOM     21  H   UNL     1       2.688   7.916  21.506  0.00  0.00    +0.000 HD
BRANCH  20  22
ATOM     22  N   UNL     1       0.971   8.455  20.501  0.00  0.00    +0.000 NA
ATOM     23  C   UNL     1       1.373   9.627  20.140  0.00  0.00    +0.000 C 
BRANCH  23  24
ATOM     24  C   UNL     1       0.419  10.512  19.433  0.00  0.00    +0.000 A 
ATOM     25  C   UNL     1      -0.598   9.976  18.641  0.00  0.00    +0.000 A 
ATOM     26  C   UNL     1      -1.504  10.837  18.014  0.00  0.00    +0.000 A 
ATOM     27  C   UNL     1      -1.399  12.221  18.188  0.00  0.00    +0.000 A 
ATOM     28  C   UNL     1      -0.390  12.744  18.994  0.00  0.00    +0.000 A 
ATOM     29 BR   UNL     1      -0.254  14.611  19.253  0.00  0.00    +0.000 Br
ATOM     30  C   UNL     1       0.519  11.897  19.617  0.00  0.00    +0.000 A 
ENDBRANCH  23  24
ENDBRANCH  20  22
ENDBRANCH  18  20
ENDBRANCH  16  18
ENDBRANCH   4  16
TORSDOF 9
ENDMDL
MODEL 9
REMARK VINA RESULT:      -6.7      4.250      8.146
REMARK  Name = 
REMARK  9 active torsions:
REMARK  status: ('A' for Active; 'I' for Inactive)
REMARK    1  A    between atoms: C_2  and  O_3
REMARK    2  A    between atoms: C_2  and  C_4
REMARK    3  A    between atoms: C_4  and  N_5
REMARK    4  A    between atoms: C_6  and  C_8
REMARK    5  A    between atoms: C_11  and  N_12
REMARK    6  A    between atoms: N_12  and  C_13
REMARK    7  A    between atoms: C_13  and  N_15
REMARK    8  A    between atoms: N_15  and  N_16
REMARK    9  A    between atoms: C_17  and  C_18
REMARK                            x       y       z     vdW  Elec       q    Type
REMARK                         _______ _______ _______ _____ _____    ______ ____
ROOT
ATOM      1  C   UNL     1       5.268   4.619  16.192  0.00  0.00    +0.000 A 
ATOM      2  C   UNL     1       4.517   3.526  16.637  0.00  0.00    +0.000 A 
ATOM      3  C   UNL     1       3.967   3.533  17.927  0.00  0.00    +0.000 A 
ATOM      4  C   UNL     1       4.209   4.601  18.799  0.00  0.00    +0.000 A 
ATOM      5  C   UNL     1       4.944   5.697  18.348  0.00  0.00    +0.000 A 
ATOM      6  C   UNL     1       5.468   5.707  17.051  0.00  0.00    +0.000 A 
ENDROOT
BRANCH   1   8
ATOM      7  N   UNL     1       5.819   3.537  14.061  0.00  0.00    +0.000 N 
ATOM      8  C   UNL     1       5.912   4.661  14.852  0.00  0.00    +0.000 C 
ATOM      9  O   UNL     1       6.483   5.678  14.469  0.00  0.00    +0.000 OA
ATOM     10  H   UNL     1       5.209   2.764  14.305  0.00  0.00    +0.000 HD
BRANCH   7  11
ATOM     11  C   UNL     1       6.403   3.545  12.734  0.00  0.00    +0.000 C 
BRANCH  11  13
ATOM     12  O   UNL     1       6.001   1.633  11.287  0.00  0.00    +0.000 OA
ATOM     13  C   UNL     1       5.608   2.692  11.758  0.00  0.00    +0.000 C 
BRANCH  13  14
ATOM     14  O   UNL     1       4.396   3.214  11.456  0.00  0.00    +0.000 OA
ATOM     15  H   UNL     1       4.329   3.558  10.544  0.00  0.00    +0.000 HD
ENDBRANCH  13  14
ENDBRANCH  11  13
ENDBRANCH   7  11
ENDBRANCH   1   8
BRANCH   4  16
ATOM     16  N   UNL     1       3.612   4.569  20.069  0.00  0.00    +0.000 N 
ATOM     17  H   UNL     1       4.211   4.369  20.863  0.00  0.00    +0.000 HD
BRANCH  16  18
ATOM     18  C   UNL     1       2.302   4.777  20.453  0.00  0.00    +0.000 C 
ATOM     19  S   UNL     1       0.967   3.832  20.121  0.00  0.00    +0.000 S 
BRANCH  18  20
ATOM     20  N   UNL     1       2.137   5.957  21.171  0.00  0.00    +0.000 N 
ATOM     21  H   UNL     1       2.700   6.068  22.009  0.00  0.00    +0.000 HD
BRANCH  20  22
ATOM     22  N   UNL     1       1.744   7.057  20.474  0.00  0.00    +0.000 NA
ATOM     23  C   UNL     1       1.125   7.989  21.120  0.00  0.00    +0.000 C 
BRANCH  23  24
ATOM     24  C   UNL     1       0.894   9.283  20.439  0.00  0.00    +0.000 A 
ATOM     25  C   UNL     1       0.968   9.381  19.049  0.00  0.00    +0.000 A 
ATOM     26  C   UNL     1       0.713  10.610  18.433  0.00  0.00    +0.000 A 
ATOM     27  C   UNL     1       0.373  11.727  19.202  0.00  0.00    +0.000 A 
ATOM     28  C   UNL     1       0.286  11.615  20.588  0.00  0.00    +0.000 A 
ATOM     29 BR   UNL     1      -0.193  13.114  21.634  0.00  0.00    +0.000 Br
ATOM     30  C   UNL     1       0.544  10.399  21.210  0.00  0.00    +0.000 A 
ENDBRANCH  23  24
ENDBRANCH  20  22
ENDBRANCH  18  20
ENDBRANCH  16  18
ENDBRANCH   4  16
TORSDOF 9
ENDMDL
