MODEL 1
REMARK VINA RESULT:      -7.3      0.000      0.000
REMARK  Name = 
REMARK  6 active torsions:
REMARK  status: ('A' for Active; 'I' for Inactive)
REMARK    1  A    between atoms: C_1  and  C_2
REMARK    2  A    between atoms: C_2  and  O_3
REMARK    3  A    between atoms: O_3  and  C_4
REMARK    4  A    between atoms: C_7  and  C_8
REMARK    5  A    between atoms: N_10  and  C_11
REMARK    6  A    between atoms: C_17  and  O_18
REMARK                            x       y       z     vdW  Elec       q    Type
REMARK                         _______ _______ _______ _____ _____    ______ ____
ROOT
ATOM      1  C   UNL     1       4.924   5.457  16.444  0.00  0.00    +0.000 C 
ATOM      2  O   UNL     1       4.839   6.573  15.936  0.00  0.00    +0.000 OA
ATOM      3  N   UNL     1       5.462   4.335  15.857  0.00  0.00    +0.000 N 
ATOM      4  H   UNL     1       5.310   3.425  16.282  0.00  0.00    +0.000 HD
ENDROOT
BRANCH   1   8
ATOM      5  C   UNL     1       3.110   4.708  20.268  0.00  0.00    +0.000 A 
ATOM      6  C   UNL     1       3.949   3.778  19.647  0.00  0.00    +0.000 A 
ATOM      7  C   UNL     1       4.538   4.061  18.419  0.00  0.00    +0.000 A 
ATOM      8  C   UNL     1       4.307   5.284  17.782  0.00  0.00    +0.000 A 
ATOM      9  C   UNL     1       3.475   6.232  18.381  0.00  0.00    +0.000 A 
ATOM     10  C   UNL     1       2.879   5.937  19.619  0.00  0.00    +0.000 A 
ATOM     11 CL   UNL     1       1.835   7.131  20.313  0.00  0.00    +0.000 Cl
BRANCH   5  12
ATOM     12  O   UNL     1       2.493   4.474  21.477  0.00  0.00    +0.000 OA
BRANCH  12  14
ATOM     13  C   UNL     1       0.747   3.166  20.419  0.00  0.00    +0.000 C 
ATOM     14  C   UNL     1       1.738   3.262  21.562  0.00  0.00    +0.000 C 
ENDBRANCH  12  14
ENDBRANCH   5  12
ENDBRANCH   1   8
BRANCH   3  15
ATOM     15  C   UNL     1       6.013   4.280  14.554  0.00  0.00    +0.000 A 
ATOM     16  C   UNL     1       5.499   3.483  13.528  0.00  0.00    +0.000 A 
ATOM     17  C   UNL     1       6.133   3.446  12.286  0.00  0.00    +0.000 A 
ATOM     18 CL   UNL     1       5.498   2.448  11.035  0.00  0.00    +0.000 Cl
ATOM     19  C   UNL     1       7.277   4.205  12.049  0.00  0.00    +0.000 A 
ATOM     20  C   UNL     1       7.788   5.023  13.057  0.00  0.00    +0.000 A 
ATOM     21  C   UNL     1       7.151   5.060  14.299  0.00  0.00    +0.000 A 
BRANCH  21  22
ATOM     22  O   UNL     1       7.645   5.843  15.310  0.00  0.00    +0.000 OA
ATOM     23  H   UNL     1       6.926   6.409  15.639  0.00  0.00    +0.000 HD
ENDBRANCH  21  22
ENDBRANCH   3  15
TORSDOF 5
ENDMDL
MODEL 2
REMARK VINA RESULT:      -7.1      3.673      8.141
REMARK  Name = 
REMARK  6 active torsions:
REMARK  status: ('A' for Active; 'I' for Inactive)
REMARK    1  A    between atoms: C_1  and  C_2
REMARK    2  A    between atoms: C_2  and  O_3
REMARK    3  A    between atoms: O_3  and  C_4
REMARK    4  A    between atoms: C_7  and  C_8
REMARK    5  A    between atoms: N_10  and  C_11
REMARK    6  A    between atoms: C_17  and  O_18
REMARK                            x       y       z     vdW  Elec       q    Type
REMARK                         _______ _______ _______ _____ _____    ______ ____
ROOT
ATOM      1  C   UNL     1       2.330   6.631  19.523  0.00  0.00    +0.000 C 
ATOM      2  O   UNL     1       1.807   6.102  20.502  0.00  0.00    +0.000 OA
ATOM      3  N   UNL     1       2.144   7.928  19.103  0.00  0.00    +0.000 N 
ATOM      4  H   UNL     1       2.467   8.207  18.182  0.00  0.00    +0.000 HD
ENDROOT
BRANCH   1   8
ATOM      5  C   UNL     1       4.755   4.291  16.855  0.00  0.00    +0.000 A 
ATOM      6  C   UNL     1       4.838   5.686  16.907  0.00  0.00    +0.000 A 
ATOM      7  C   UNL     1       4.055   6.412  17.798  0.00  0.00    +0.000 A 
ATOM      8  C   UNL     1       3.172   5.761  18.664  0.00  0.00    +0.000 A 
ATOM      9  C   UNL     1       3.070   4.369  18.636  0.00  0.00    +0.000 A 
ATOM     10  C   UNL     1       3.861   3.642  17.729  0.00  0.00    +0.000 A 
ATOM     11 CL   UNL     1       3.685   1.920  17.710  0.00  0.00    +0.000 Cl
BRANCH   5  12
ATOM     12  O   UNL     1       5.499   3.526  15.985  0.00  0.00    +0.000 OA
BRANCH  12  14
ATOM     13  C   UNL     1       6.021   3.898  13.647  0.00  0.00    +0.000 C 
ATOM     14  C   UNL     1       6.341   4.253  15.085  0.00  0.00    +0.000 C 
ENDBRANCH  12  14
ENDBRANCH   5  12
ENDBRANCH   1   8
BRANCH   3  15
ATOM     15  C   UNL     1       1.309   8.879  19.736  0.00  0.00    +0.000 A 
ATOM     16  C   UNL     1       0.992   8.850  21.096  0.00  0.00    +0.000 A 
ATOM     17  C   UNL     1       0.118   9.796  21.632  0.00  0.00    +0.000 A 
ATOM     18 CL   UNL     1      -0.277   9.738  23.307  0.00  0.00    +0.000 Cl
ATOM     19  C   UNL     1      -0.442  10.784  20.825  0.00  0.00    +0.000 A 
ATOM     20  C   UNL     1      -0.116  10.839  19.469  0.00  0.00    +0.000 A 
ATOM     21  C   UNL     1       0.760   9.893  18.936  0.00  0.00    +0.000 A 
BRANCH  21  22
ATOM     22  O   UNL     1       1.082   9.918  17.602  0.00  0.00    +0.000 OA
ATOM     23  H   UNL     1       1.183   9.000  17.295  0.00  0.00    +0.000 HD
ENDBRANCH  21  22
ENDBRANCH   3  15
TORSDOF 5
ENDMDL
MODEL 3
REMARK VINA RESULT:      -7.0      3.630      4.727
REMARK  Name = 
REMARK  6 active torsions:
REMARK  status: ('A' for Active; 'I' for Inactive)
REMARK    1  A    between atoms: C_1  and  C_2
REMARK    2  A    between atoms: C_2  and  O_3
REMARK    3  A    between atoms: O_3  and  C_4
REMARK    4  A    between atoms: C_7  and  C_8
REMARK    5  A    between atoms: N_10  and  C_11
REMARK    6  A    between atoms: C_17  and  O_18
REMARK                            x       y       z     vdW  Elec       q    Type
REMARK                         _______ _______ _______ _____ _____    ______ ____
ROOT
ATOM      1  C   UNL     1       3.226   6.508  18.031  0.00  0.00    +0.000 C 
ATOM      2  O   UNL     1       2.881   5.364  18.316  0.00  0.00    +0.000 OA
ATOM      3  N   UNL     1       4.341   6.867  17.308  0.00  0.00    +0.000 N 
ATOM      4  H   UNL     1       4.638   7.838  17.294  0.00  0.00    +0.000 HD
ENDROOT
BRANCH   1   8
ATOM      5  C   UNL     1       0.994   9.865  19.524  0.00  0.00    +0.000 A 
ATOM      6  C   UNL     1       1.434   9.793  18.199  0.00  0.00    +0.000 A 
ATOM      7  C   UNL     1       2.135   8.682  17.741  0.00  0.00    +0.000 A 
ATOM      8  C   UNL     1       2.410   7.611  18.597  0.00  0.00    +0.000 A 
ATOM      9  C   UNL     1       1.981   7.655  19.925  0.00  0.00    +0.000 A 
ATOM     10  C   UNL     1       1.278   8.783  20.382  0.00  0.00    +0.000 A 
ATOM     11 CL   UNL     1       0.787   8.807  22.041  0.00  0.00    +0.000 Cl
BRANCH   5  12
ATOM     12  O   UNL     1       0.307  10.945  20.031  0.00  0.00    +0.000 OA
BRANCH  12  14
ATOM     13  C   UNL     1      -1.499  12.463  19.470  0.00  0.00    +0.000 C 
ATOM     14  C   UNL     1      -1.076  11.022  19.672  0.00  0.00    +0.000 C 
ENDBRANCH  12  14
ENDBRANCH   5  12
ENDBRANCH   1   8
BRANCH   3  15
ATOM     15  C   UNL     1       5.287   5.964  16.766  0.00  0.00    +0.000 A 
ATOM     16  C   UNL     1       5.225   5.466  15.463  0.00  0.00    +0.000 A 
ATOM     17  C   UNL     1       6.169   4.538  15.023  0.00  0.00    +0.000 A 
ATOM     18 CL   UNL     1       6.072   3.919  13.419  0.00  0.00    +0.000 Cl
ATOM     19  C   UNL     1       7.187   4.104  15.869  0.00  0.00    +0.000 A 
ATOM     20  C   UNL     1       7.275   4.611  17.166  0.00  0.00    +0.000 A 
ATOM     21  C   UNL     1       6.330   5.540  17.604  0.00  0.00    +0.000 A 
BRANCH  21  22
ATOM     22  O   UNL     1       6.387   6.040  18.880  0.00  0.00    +0.000 OA
ATOM     23  H   UNL     1       6.807   6.916  18.848  0.00  0.00    +0.000 HD
ENDBRANCH  21  22
ENDBRANCH   3  15
TORSDOF 5
ENDMDL
MODEL 4
REMARK VINA RESULT:      -7.0      3.450      4.347
REMARK  Name = 
REMARK  6 active torsions:
REMARK  status: ('A' for Active; 'I' for Inactive)
REMARK    1  A    between atoms: C_1  and  C_2
REMARK    2  A    between atoms: C_2  and  O_3
REMARK    3  A    between atoms: O_3  and  C_4
REMARK    4  A    between atoms: C_7  and  C_8
REMARK    5  A    between atoms: N_10  and  C_11
REMARK    6  A    between atoms: C_17  and  O_18
REMARK                            x       y       z     vdW  Elec       q    Type
REMARK                         _______ _______ _______ _____ _____    ______ ____
ROOT
ATOM      1  C   UNL     1       3.218   6.324  18.265  0.00  0.00    +0.000 C 
ATOM      2  O   UNL     1       2.829   5.162  18.362  0.00  0.00    +0.000 OA
ATOM      3  N   UNL     1       4.364   6.748  17.631  0.00  0.00    +0.000 N 
ATOM      4  H   UNL     1       4.692   7.698  17.773  0.00  0.00    +0.000 HD
ENDROOT
BRANCH   1   8
ATOM      5  C   UNL     1       0.791   9.125  20.441  0.00  0.00    +0.000 A 
ATOM      6  C   UNL     1       1.227   7.923  21.005  0.00  0.00    +0.000 A 
ATOM      7  C   UNL     1       2.031   7.048  20.281  0.00  0.00    +0.000 A 
ATOM      8  C   UNL     1       2.423   7.356  18.975  0.00  0.00    +0.000 A 
ATOM      9  C   UNL     1       2.003   8.551  18.388  0.00  0.00    +0.000 A 
ATOM     10  C   UNL     1       1.187   9.428  19.123  0.00  0.00    +0.000 A 
ATOM     11 CL   UNL     1       0.670  10.886  18.347  0.00  0.00    +0.000 Cl
BRANCH   5  12
ATOM     12  O   UNL     1      -0.014  10.021  21.109  0.00  0.00    +0.000 OA
BRANCH  12  14
ATOM     13  C   UNL     1      -1.102  10.769  23.142  0.00  0.00    +0.000 C 
ATOM     14  C   UNL     1      -0.435   9.618  22.416  0.00  0.00    +0.000 C 
ENDBRANCH  12  14
ENDBRANCH   5  12
ENDBRANCH   1   8
BRANCH   3  15
ATOM     15  C   UNL     1       5.295   5.905  16.979  0.00  0.00    +0.000 A 
ATOM     16  C   UNL     1       5.152   5.464  15.662  0.00  0.00    +0.000 A 
ATOM     17  C   UNL     1       6.090   4.591  15.110  0.00  0.00    +0.000 A 
ATOM     18 CL   UNL     1       5.893   4.042  13.490  0.00  0.00    +0.000 Cl
ATOM     19  C   UNL     1       7.182   4.157  15.857  0.00  0.00    +0.000 A 
ATOM     20  C   UNL     1       7.351   4.607  17.166  0.00  0.00    +0.000 A 
ATOM     21  C   UNL     1       6.412   5.482  17.716  0.00  0.00    +0.000 A 
BRANCH  21  22
ATOM     22  O   UNL     1       6.548   5.925  19.007  0.00  0.00    +0.000 OA
ATOM     23  H   UNL     1       7.464   5.763  19.292  0.00  0.00    +0.000 HD
ENDBRANCH  21  22
ENDBRANCH   3  15
TORSDOF 5
ENDMDL
MODEL 5
REMARK VINA RESULT:      -6.9      3.549      8.040
REMARK  Name = 
REMARK  6 active torsions:
REMARK  status: ('A' for Active; 'I' for Inactive)
REMARK    1  A    between atoms: C_1  and  C_2
REMARK    2  A    between atoms: C_2  and  O_3
REMARK    3  A    between atoms: O_3  and  C_4
REMARK    4  A    between atoms: C_7  and  C_8
REMARK    5  A    between atoms: N_10  and  C_11
REMARK    6  A    between atoms: C_17  and  O_18
REMARK                            x       y       z     vdW  Elec       q    Type
REMARK                         _______ _______ _______ _____ _____    ______ ____
ROOT
ATOM      1  C   UNL     1       2.567   6.581  18.950  0.00  0.00    +0.000 C 
ATOM      2  O   UNL     1       1.837   5.844  19.609  0.00  0.00    +0.000 OA
ATOM      3  N   UNL     1       2.474   7.952  18.864  0.00  0.00    +0.000 N 
ATOM      4  H   UNL     1       2.998   8.445  18.147  0.00  0.00    +0.000 HD
ENDROOT
BRANCH   1   8
ATOM      5  C   UNL     1       5.441   4.449  16.569  0.00  0.00    +0.000 A 
ATOM      6  C   UNL     1       4.156   3.952  16.807  0.00  0.00    +0.000 A 
ATOM      7  C   UNL     1       3.241   4.678  17.564  0.00  0.00    +0.000 A 
ATOM      8  C   UNL     1       3.588   5.923  18.099  0.00  0.00    +0.000 A 
ATOM      9  C   UNL     1       4.864   6.443  17.875  0.00  0.00    +0.000 A 
ATOM     10  C   UNL     1       5.784   5.702  17.114  0.00  0.00    +0.000 A 
ATOM     11 CL   UNL     1       7.363   6.374  16.883  0.00  0.00    +0.000 Cl
BRANCH   5  12
ATOM     12  O   UNL     1       6.387   3.767  15.837  0.00  0.00    +0.000 OA
BRANCH  12  14
ATOM     13  C   UNL     1       7.057   4.777  13.738  0.00  0.00    +0.000 C 
ATOM     14  C   UNL     1       6.179   3.749  14.422  0.00  0.00    +0.000 C 
ENDBRANCH  12  14
ENDBRANCH   5  12
ENDBRANCH   1   8
BRANCH   3  15
ATOM     15  C   UNL     1       1.510   8.748  19.527  0.00  0.00    +0.000 A 
ATOM     16  C   UNL     1       1.235   8.656  20.893  0.00  0.00    +0.000 A 
ATOM     17  C   UNL     1       0.232   9.442  21.460  0.00  0.00    +0.000 A 
ATOM     18 CL   UNL     1      -0.108   9.307  23.142  0.00  0.00    +0.000 Cl
ATOM     19  C   UNL     1      -0.501  10.331  20.677  0.00  0.00    +0.000 A 
ATOM     20  C   UNL     1      -0.222  10.450  19.316  0.00  0.00    +0.000 A 
ATOM     21  C   UNL     1       0.783   9.665  18.751  0.00  0.00    +0.000 A 
BRANCH  21  22
ATOM     22  O   UNL     1       1.064   9.752  17.411  0.00  0.00    +0.000 OA
ATOM     23  H   UNL     1       1.735   9.082  17.194  0.00  0.00    +0.000 HD
ENDBRANCH  21  22
ENDBRANCH   3  15
TORSDOF 5
ENDMDL
MODEL 6
REMARK VINA RESULT:      -6.9      4.755      6.657
REMARK  Name = 
REMARK  6 active torsions:
REMARK  status: ('A' for Active; 'I' for Inactive)
REMARK    1  A    between atoms: C_1  and  C_2
REMARK    2  A    between atoms: C_2  and  O_3
REMARK    3  A    between atoms: O_3  and  C_4
REMARK    4  A    between atoms: C_7  and  C_8
REMARK    5  A    between atoms: N_10  and  C_11
REMARK    6  A    between atoms: C_17  and  O_18
REMARK                            x       y       z     vdW  Elec       q    Type
REMARK                         _______ _______ _______ _____ _____    ______ ____
ROOT
ATOM      1  C   UNL     1       2.680   6.631  18.990  0.00  0.00    +0.000 C 
ATOM      2  O   UNL     1       3.723   6.708  18.344  0.00  0.00    +0.000 OA
ATOM      3  N   UNL     1       2.068   5.473  19.412  0.00  0.00    +0.000 N 
ATOM      4  H   UNL     1       1.118   5.510  19.768  0.00  0.00    +0.000 HD
ENDROOT
BRANCH   1   8
ATOM      5  C   UNL     1       0.780  10.435  19.621  0.00  0.00    +0.000 A 
ATOM      6  C   UNL     1       1.307  10.062  18.381  0.00  0.00    +0.000 A 
ATOM      7  C   UNL     1       1.896   8.815  18.204  0.00  0.00    +0.000 A 
ATOM      8  C   UNL     1       1.968   7.904  19.263  0.00  0.00    +0.000 A 
ATOM      9  C   UNL     1       1.447   8.249  20.511  0.00  0.00    +0.000 A 
ATOM     10  C   UNL     1       0.858   9.513  20.684  0.00  0.00    +0.000 A 
ATOM     11 CL   UNL     1       0.248   9.908  22.255  0.00  0.00    +0.000 Cl
BRANCH   5  12
ATOM     12  O   UNL     1       0.196  11.660  19.852  0.00  0.00    +0.000 OA
BRANCH  12  14
ATOM     13  C   UNL     1      -0.260  13.578  18.442  0.00  0.00    +0.000 C 
ATOM     14  C   UNL     1      -0.639  12.156  18.802  0.00  0.00    +0.000 C 
ENDBRANCH  12  14
ENDBRANCH   5  12
ENDBRANCH   1   8
BRANCH   3  15
ATOM     15  C   UNL     1       2.544   4.163  19.169  0.00  0.00    +0.000 A 
ATOM     16  C   UNL     1       3.485   3.517  19.974  0.00  0.00    +0.000 A 
ATOM     17  C   UNL     1       3.941   2.244  19.634  0.00  0.00    +0.000 A 
ATOM     18 CL   UNL     1       5.114   1.466  20.627  0.00  0.00    +0.000 Cl
ATOM     19  C   UNL     1       3.461   1.597  18.498  0.00  0.00    +0.000 A 
ATOM     20  C   UNL     1       2.504   2.220  17.697  0.00  0.00    +0.000 A 
ATOM     21  C   UNL     1       2.048   3.493  18.039  0.00  0.00    +0.000 A 
BRANCH  21  22
ATOM     22  O   UNL     1       1.119   4.132  17.258  0.00  0.00    +0.000 OA
ATOM     23  H   UNL     1       1.027   3.637  16.425  0.00  0.00    +0.000 HD
ENDBRANCH  21  22
ENDBRANCH   3  15
TORSDOF 5
ENDMDL
MODEL 7
REMARK VINA RESULT:      -6.8      4.032      8.293
REMARK  Name = 
REMARK  6 active torsions:
REMARK  status: ('A' for Active; 'I' for Inactive)
REMARK    1  A    between atoms: C_1  and  C_2
REMARK    2  A    between atoms: C_2  and  O_3
REMARK    3  A    between atoms: O_3  and  C_4
REMARK    4  A    between atoms: C_7  and  C_8
REMARK    5  A    between atoms: N_10  and  C_11
REMARK    6  A    between atoms: C_17  and  O_18
REMARK                            x       y       z     vdW  Elec       q    Type
REMARK                         _______ _______ _______ _____ _____    ______ ____
ROOT
ATOM      1  C   UNL     1       2.185   8.233  18.247  0.00  0.00    +0.000 C 
ATOM      2  O   UNL     1       2.172   9.180  17.463  0.00  0.00    +0.000 OA
ATOM      3  N   UNL     1       1.572   8.188  19.478  0.00  0.00    +0.000 N 
ATOM      4  H   UNL     1       1.802   7.440  20.125  0.00  0.00    +0.000 HD
ENDROOT
BRANCH   1   8
ATOM      5  C   UNL     1       4.667   4.974  16.944  0.00  0.00    +0.000 A 
ATOM      6  C   UNL     1       5.057   6.310  16.805  0.00  0.00    +0.000 A 
ATOM      7  C   UNL     1       4.240   7.341  17.257  0.00  0.00    +0.000 A 
ATOM      8  C   UNL     1       3.012   7.062  17.866  0.00  0.00    +0.000 A 
ATOM      9  C   UNL     1       2.599   5.737  18.020  0.00  0.00    +0.000 A 
ATOM     10  C   UNL     1       3.428   4.701  17.556  0.00  0.00    +0.000 A 
ATOM     11 CL   UNL     1       2.864   3.075  17.746  0.00  0.00    +0.000 Cl
BRANCH   5  12
ATOM     12  O   UNL     1       5.433   3.918  16.504  0.00  0.00    +0.000 OA
BRANCH  12  14
ATOM     13  C   UNL     1       6.092   3.920  14.172  0.00  0.00    +0.000 C 
ATOM     14  C   UNL     1       6.487   4.253  15.596  0.00  0.00    +0.000 C 
ENDBRANCH  12  14
ENDBRANCH   5  12
ENDBRANCH   1   8
BRANCH   3  15
ATOM     15  C   UNL     1       0.818   9.238  20.054  0.00  0.00    +0.000 A 
ATOM     16  C   UNL     1      -0.015  10.087  19.321  0.00  0.00    +0.000 A 
ATOM     17  C   UNL     1      -0.684  11.132  19.957  0.00  0.00    +0.000 A 
ATOM     18 CL   UNL     1      -1.696  12.180  19.039  0.00  0.00    +0.000 Cl
ATOM     19  C   UNL     1      -0.539  11.340  21.327  0.00  0.00    +0.000 A 
ATOM     20  C   UNL     1       0.272  10.487  22.076  0.00  0.00    +0.000 A 
ATOM     21  C   UNL     1       0.939   9.440  21.437  0.00  0.00    +0.000 A 
BRANCH  21  22
ATOM     22  O   UNL     1       1.755   8.599  22.150  0.00  0.00    +0.000 OA
ATOM     23  H   UNL     1       1.852   7.770  21.650  0.00  0.00    +0.000 HD
ENDBRANCH  21  22
ENDBRANCH   3  15
TORSDOF 5
ENDMDL
MODEL 8
REMARK VINA RESULT:      -6.7      4.931      8.360
REMARK  Name = 
REMARK  6 active torsions:
REMARK  status: ('A' for Active; 'I' for Inactive)
REMARK    1  A    between atoms: C_1  and  C_2
REMARK    2  A    between atoms: C_2  and  O_3
REMARK    3  A    between atoms: O_3  and  C_4
REMARK    4  A    between atoms: C_7  and  C_8
REMARK    5  A    between atoms: N_10  and  C_11
REMARK    6  A    between atoms: C_17  and  O_18
REMARK                            x       y       z     vdW  Elec       q    Type
REMARK                         _______ _______ _______ _____ _____    ______ ____
ROOT
ATOM      1  C   UNL     1       1.874   9.016  18.439  0.00  0.00    +0.000 C 
ATOM      2  O   UNL     1       2.244   9.670  17.466  0.00  0.00    +0.000 OA
ATOM      3  N   UNL     1       1.004   9.437  19.419  0.00  0.00    +0.000 N 
ATOM      4  H   UNL     1       0.915   8.898  20.275  0.00  0.00    +0.000 HD
ENDROOT
BRANCH   1   8
ATOM      5  C   UNL     1       3.669   5.120  18.709  0.00  0.00    +0.000 A 
ATOM      6  C   UNL     1       3.975   6.011  17.676  0.00  0.00    +0.000 A 
ATOM      7  C   UNL     1       3.393   7.274  17.630  0.00  0.00    +0.000 A 
ATOM      8  C   UNL     1       2.493   7.680  18.620  0.00  0.00    +0.000 A 
ATOM      9  C   UNL     1       2.172   6.812  19.664  0.00  0.00    +0.000 A 
ATOM     10  C   UNL     1       2.759   5.535  19.702  0.00  0.00    +0.000 A 
ATOM     11 CL   UNL     1       2.313   4.483  21.001  0.00  0.00    +0.000 Cl
BRANCH   5  12
ATOM     12  O   UNL     1       4.208   3.856  18.797  0.00  0.00    +0.000 OA
BRANCH  12  14
ATOM     13  C   UNL     1       2.624   2.255  17.900  0.00  0.00    +0.000 C 
ATOM     14  C   UNL     1       3.933   2.989  17.692  0.00  0.00    +0.000 C 
ENDBRANCH  12  14
ENDBRANCH   5  12
ENDBRANCH   1   8
BRANCH   3  15
ATOM     15  C   UNL     1       0.385  10.709  19.470  0.00  0.00    +0.000 A 
ATOM     16  C   UNL     1       0.663  11.668  20.446  0.00  0.00    +0.000 A 
ATOM     17  C   UNL     1      -0.031  12.878  20.456  0.00  0.00    +0.000 A 
ATOM     18 CL   UNL     1       0.310  14.046  21.675  0.00  0.00    +0.000 Cl
ATOM     19  C   UNL     1      -0.998  13.151  19.492  0.00  0.00    +0.000 A 
ATOM     20  C   UNL     1      -1.270  12.212  18.497  0.00  0.00    +0.000 A 
ATOM     21  C   UNL     1      -0.574  11.002  18.488  0.00  0.00    +0.000 A 
BRANCH  21  22
ATOM     22  O   UNL     1      -0.836  10.056  17.529  0.00  0.00    +0.000 OA
ATOM     23  H   UNL     1      -0.128   9.390  17.555  0.00  0.00    +0.000 HD
ENDBRANCH  21  22
ENDBRANCH   3  15
TORSDOF 5
ENDMDL
MODEL 9
REMARK VINA RESULT:      -6.7      4.767      6.396
REMARK  Name = 
REMARK  6 active torsions:
REMARK  status: ('A' for Active; 'I' for Inactive)
REMARK    1  A    between atoms: C_1  and  C_2
REMARK    2  A    between atoms: C_2  and  O_3
REMARK    3  A    between atoms: O_3  and  C_4
REMARK    4  A    between atoms: C_7  and  C_8
REMARK    5  A    between atoms: N_10  and  C_11
REMARK    6  A    between atoms: C_17  and  O_18
REMARK                            x       y       z     vdW  Elec       q    Type
REMARK                         _______ _______ _______ _____ _____    ______ ____
ROOT
ATOM      1  C   UNL     1       2.069   8.362  18.538  0.00  0.00    +0.000 C 
ATOM      2  O   UNL     1       2.127   8.728  17.366  0.00  0.00    +0.000 OA
ATOM      3  N   UNL     1       2.532   7.166  19.040  0.00  0.00    +0.000 N 
ATOM      4  H   UNL     1       2.265   6.880  19.977  0.00  0.00    +0.000 HD
ENDROOT
BRANCH   1   8
ATOM      5  C   UNL     1       0.124  11.146  21.172  0.00  0.00    +0.000 A 
ATOM      6  C   UNL     1       0.444  11.470  19.850  0.00  0.00    +0.000 A 
ATOM      7  C   UNL     1       1.054  10.538  19.017  0.00  0.00    +0.000 A 
ATOM      8  C   UNL     1       1.355   9.255  19.483  0.00  0.00    +0.000 A 
ATOM      9  C   UNL     1       1.044   8.903  20.797  0.00  0.00    +0.000 A 
ATOM     10  C   UNL     1       0.433   9.851  21.636  0.00  0.00    +0.000 A 
ATOM     11 CL   UNL     1       0.088   9.380  23.265  0.00  0.00    +0.000 Cl
BRANCH   5  12
ATOM     12  O   UNL     1      -0.469  12.033  22.042  0.00  0.00    +0.000 OA
BRANCH  12  14
ATOM     13  C   UNL     1      -2.602  12.055  23.194  0.00  0.00    +0.000 C 
ATOM     14  C   UNL     1      -1.878  12.216  21.873  0.00  0.00    +0.000 C 
ENDBRANCH  12  14
ENDBRANCH   5  12
ENDBRANCH   1   8
BRANCH   3  15
ATOM     15  C   UNL     1       3.156   6.149  18.279  0.00  0.00    +0.000 A 
ATOM     16  C   UNL     1       4.286   6.357  17.485  0.00  0.00    +0.000 A 
ATOM     17  C   UNL     1       4.810   5.311  16.725  0.00  0.00    +0.000 A 
ATOM     18 CL   UNL     1       6.194   5.586  15.737  0.00  0.00    +0.000 Cl
ATOM     19  C   UNL     1       4.223   4.049  16.753  0.00  0.00    +0.000 A 
ATOM     20  C   UNL     1       3.108   3.820  17.560  0.00  0.00    +0.000 A 
ATOM     21  C   UNL     1       2.586   4.867  18.321  0.00  0.00    +0.000 A 
BRANCH  21  22
ATOM     22  O   UNL     1       1.480   4.670  19.108  0.00  0.00    +0.000 OA
ATOM     23  H   UNL     1       1.762   4.679  20.039  0.00  0.00    +0.000 HD
ENDBRANCH  21  22
ENDBRANCH   3  15
TORSDOF 5
ENDMDL
