MODEL 1
REMARK VINA RESULT:      -8.7      0.000      0.000
REMARK  Name = 
REMARK  10 active torsions:
REMARK  status: ('A' for Active; 'I' for Inactive)
REMARK    1  A    between atoms: C_1  and  O_2
REMARK    2  A    between atoms: O_2  and  C_3
REMARK    3  A    between atoms: C_9  and  C_10
REMARK    4  A    between atoms: C_10  and  S_11
REMARK    5  A    between atoms: S_11  and  C_12
REMARK    6  A    between atoms: N_20  and  C1*_21
REMARK    7  A    between atoms: C4*_23  and  C5*_24
REMARK    8  A    between atoms: C5*_24  and  O5*_25
REMARK    9  A    between atoms: C3*_26  and  O3*_27
REMARK   10  A    between atoms: C2*_28  and  O2*_29
REMARK                            x       y       z     vdW  Elec       q    Type
REMARK                         _______ _______ _______ _____ _____    ______ ____
ROOT
ATOM      1  C   UNL     1       3.191   7.012  18.087  0.00  0.00    +0.000 A 
ATOM      2  N   UNL     1       4.025   7.476  17.179  0.00  0.00    +0.000 NA
ATOM      3  C   UNL     1       4.655   6.366  16.675  0.00  0.00    +0.000 A 
ATOM      4  C   UNL     1       5.610   6.186  15.678  0.00  0.00    +0.000 A 
ATOM      5  N   UNL     1       6.059   4.937  15.394  0.00  0.00    +0.000 NA
ATOM      6  C   UNL     1       5.548   3.907  16.096  0.00  0.00    +0.000 A 
ATOM      7  N   UNL     1       4.608   3.956  17.062  0.00  0.00    +0.000 NA
ATOM      8  C   UNL     1       4.210   5.214  17.306  0.00  0.00    +0.000 A 
ATOM      9  N   UNL     1       3.263   5.640  18.204  0.00  0.00    +0.000 N 
ENDROOT
BRANCH   9  10
ATOM     10  C1* UNL     1       2.465   4.770  19.049  0.00  0.00    +0.000 C 
ATOM     11  O4* UNL     1       3.249   4.341  20.190  0.00  0.00    +0.000 OA
ATOM     12  C4* UNL     1       2.980   2.933  20.432  0.00  0.00    +0.000 C 
ATOM     13  C3* UNL     1       1.816   2.550  19.524  0.00  0.00    +0.000 C 
ATOM     14  C2* UNL     1       1.963   3.505  18.349  0.00  0.00    +0.000 C 
BRANCH  13  15
ATOM     15  O3* UNL     1       0.544   2.817  20.146  0.00  0.00    +0.000 OA
ATOM     16  H3* UNL     1      -0.157   2.795  19.468  0.00  0.00    +0.000 HD
ENDBRANCH  13  15
BRANCH  14  17
ATOM     17  O2* UNL     1       0.720   3.698  17.676  0.00  0.00    +0.000 OA
ATOM     18  H2* UNL     1       0.404   2.804  17.427  0.00  0.00    +0.000 HD
ENDBRANCH  14  17
BRANCH  12  19
ATOM     19  C5* UNL     1       4.244   2.114  20.155  0.00  0.00    +0.000 C 
BRANCH  19  20
ATOM     20  O5* UNL     1       5.280   2.966  19.673  0.00  0.00    +0.000 OA
ATOM     21  H5* UNL     1       4.987   3.269  18.791  0.00  0.00    +0.000 HD
ENDBRANCH  19  20
ENDBRANCH  12  19
ENDBRANCH   9  10
BRANCH   1  22
ATOM     22  S   UNL     1       2.076   7.991  18.988  0.00  0.00    +0.000 S 
BRANCH  22  23
ATOM     23  C   UNL     1       1.845   9.417  17.877  0.00  0.00    +0.000 C 
BRANCH  23  30
ATOM     24  C   UNL     1      -3.066  12.040  19.283  0.00  0.00    +0.000 A 
ATOM     25  C   UNL     1      -4.262  11.669  18.660  0.00  0.00    +0.000 A 
ATOM     26  C   UNL     1      -4.273  10.697  17.659  0.00  0.00    +0.000 A 
ATOM     27  C   UNL     1      -3.086  10.057  17.292  0.00  0.00    +0.000 A 
ATOM     28  C   UNL     1      -1.885  10.393  17.921  0.00  0.00    +0.000 A 
ATOM     29  C   UNL     1      -0.637   9.708  17.602  0.00  0.00    +0.000 A 
ATOM     30  C   UNL     1       0.524  10.083  18.166  0.00  0.00    +0.000 A 
ATOM     31  C   UNL     1       0.559  11.252  19.075  0.00  0.00    +0.000 A 
ATOM     32  O   UNL     1       1.612  11.760  19.446  0.00  0.00    +0.000 OA
ATOM     33  O   UNL     1      -0.664  11.743  19.507  0.00  0.00    +0.000 OA
ATOM     34  C   UNL     1      -1.884  11.389  18.901  0.00  0.00    +0.000 A 
BRANCH  24  36
ATOM     35  C   UNL     1      -4.413  12.953  21.016  0.00  0.00    +0.000 C 
ATOM     36  O   UNL     1      -3.214  12.996  20.250  0.00  0.00    +0.000 OA
ENDBRANCH  24  36
ENDBRANCH  23  30
ENDBRANCH  22  23
ENDBRANCH   1  22
TORSDOF 9
ENDMDL
MODEL 2
REMARK VINA RESULT:      -8.3      1.322      2.071
REMARK  Name = 
REMARK  10 active torsions:
REMARK  status: ('A' for Active; 'I' for Inactive)
REMARK    1  A    between atoms: C_1  and  O_2
REMARK    2  A    between atoms: O_2  and  C_3
REMARK    3  A    between atoms: C_9  and  C_10
REMARK    4  A    between atoms: C_10  and  S_11
REMARK    5  A    between atoms: S_11  and  C_12
REMARK    6  A    between atoms: N_20  and  C1*_21
REMARK    7  A    between atoms: C4*_23  and  C5*_24
REMARK    8  A    between atoms: C5*_24  and  O5*_25
REMARK    9  A    between atoms: C3*_26  and  O3*_27
REMARK   10  A    between atoms: C2*_28  and  O2*_29
REMARK                            x       y       z     vdW  Elec       q    Type
REMARK                         _______ _______ _______ _____ _____    ______ ____
ROOT
ATOM      1  C   UNL     1       3.029   7.056  18.367  0.00  0.00    +0.000 A 
ATOM      2  N   UNL     1       3.794   7.619  17.455  0.00  0.00    +0.000 NA
ATOM      3  C   UNL     1       4.405   6.574  16.810  0.00  0.00    +0.000 A 
ATOM      4  C   UNL     1       5.295   6.506  15.741  0.00  0.00    +0.000 A 
ATOM      5  N   UNL     1       5.742   5.298  15.313  0.00  0.00    +0.000 NA
ATOM      6  C   UNL     1       5.291   4.197  15.946  0.00  0.00    +0.000 A 
ATOM      7  N   UNL     1       4.417   4.137  16.971  0.00  0.00    +0.000 NA
ATOM      8  C   UNL     1       4.018   5.359  17.358  0.00  0.00    +0.000 A 
ATOM      9  N   UNL     1       3.127   5.681  18.351  0.00  0.00    +0.000 N 
ENDROOT
BRANCH   9  10
ATOM     10  C1* UNL     1       2.398   4.721  19.159  0.00  0.00    +0.000 C 
ATOM     11  O4* UNL     1       3.231   4.268  20.254  0.00  0.00    +0.000 OA
ATOM     12  C4* UNL     1       3.045   2.836  20.416  0.00  0.00    +0.000 C 
ATOM     13  C3* UNL     1       1.879   2.445  19.514  0.00  0.00    +0.000 C 
ATOM     14  C2* UNL     1       1.945   3.474  18.395  0.00  0.00    +0.000 C 
BRANCH  13  15
ATOM     15  O3* UNL     1       0.611   2.605  20.179  0.00  0.00    +0.000 OA
ATOM     16  H3* UNL     1       0.044   1.836  19.981  0.00  0.00    +0.000 HD
ENDBRANCH  13  15
BRANCH  14  17
ATOM     17  O2* UNL     1       0.677   3.639  17.763  0.00  0.00    +0.000 OA
ATOM     18  H2* UNL     1       0.819   4.280  17.034  0.00  0.00    +0.000 HD
ENDBRANCH  14  17
BRANCH  12  19
ATOM     19  C5* UNL     1       4.342   2.104  20.063  0.00  0.00    +0.000 C 
BRANCH  19  20
ATOM     20  O5* UNL     1       5.312   3.035  19.589  0.00  0.00    +0.000 OA
ATOM     21  H5* UNL     1       6.038   3.020  20.244  0.00  0.00    +0.000 HD
ENDBRANCH  19  20
ENDBRANCH  12  19
ENDBRANCH   9  10
BRANCH   1  22
ATOM     22  S   UNL     1       1.962   7.925  19.426  0.00  0.00    +0.000 S 
BRANCH  22  23
ATOM     23  C   UNL     1       1.270   9.189  18.309  0.00  0.00    +0.000 C 
BRANCH  23  30
ATOM     24  C   UNL     1      -2.653  12.537  20.834  0.00  0.00    +0.000 A 
ATOM     25  C   UNL     1      -2.522  12.875  22.184  0.00  0.00    +0.000 A 
ATOM     26  C   UNL     1      -1.469  12.366  22.947  0.00  0.00    +0.000 A 
ATOM     27  C   UNL     1      -0.512  11.538  22.355  0.00  0.00    +0.000 A 
ATOM     28  C   UNL     1      -0.609  11.211  21.000  0.00  0.00    +0.000 A 
ATOM     29  C   UNL     1       0.401  10.394  20.336  0.00  0.00    +0.000 A 
ATOM     30  C   UNL     1       0.265  10.032  19.050  0.00  0.00    +0.000 A 
ATOM     31  C   UNL     1      -0.960  10.406  18.304  0.00  0.00    +0.000 A 
ATOM     32  O   UNL     1      -1.229   9.929  17.207  0.00  0.00    +0.000 OA
ATOM     33  O   UNL     1      -1.792  11.343  18.899  0.00  0.00    +0.000 OA
ATOM     34  C   UNL     1      -1.685  11.703  20.256  0.00  0.00    +0.000 A 
BRANCH  24  36
ATOM     35  C   UNL     1      -5.003  12.546  20.473  0.00  0.00    +0.000 C 
ATOM     36  O   UNL     1      -3.726  13.119  20.215  0.00  0.00    +0.000 OA
ENDBRANCH  24  36
ENDBRANCH  23  30
ENDBRANCH  22  23
ENDBRANCH   1  22
TORSDOF 9
ENDMDL
MODEL 3
REMARK VINA RESULT:      -8.2      2.185      3.871
REMARK  Name = 
REMARK  10 active torsions:
REMARK  status: ('A' for Active; 'I' for Inactive)
REMARK    1  A    between atoms: C_1  and  O_2
REMARK    2  A    between atoms: O_2  and  C_3
REMARK    3  A    between atoms: C_9  and  C_10
REMARK    4  A    between atoms: C_10  and  S_11
REMARK    5  A    between atoms: S_11  and  C_12
REMARK    6  A    between atoms: N_20  and  C1*_21
REMARK    7  A    between atoms: C4*_23  and  C5*_24
REMARK    8  A    between atoms: C5*_24  and  O5*_25
REMARK    9  A    between atoms: C3*_26  and  O3*_27
REMARK   10  A    between atoms: C2*_28  and  O2*_29
REMARK                            x       y       z     vdW  Elec       q    Type
REMARK                         _______ _______ _______ _____ _____    ______ ____
ROOT
ATOM      1  C   UNL     1       2.724   6.577  18.655  0.00  0.00    +0.000 A 
ATOM      2  N   UNL     1       1.921   5.961  19.498  0.00  0.00    +0.000 NA
ATOM      3  C   UNL     1       2.567   4.793  19.815  0.00  0.00    +0.000 A 
ATOM      4  C   UNL     1       2.258   3.738  20.670  0.00  0.00    +0.000 A 
ATOM      5  N   UNL     1       3.111   2.688  20.779  0.00  0.00    +0.000 NA
ATOM      6  C   UNL     1       4.242   2.715  20.047  0.00  0.00    +0.000 A 
ATOM      7  N   UNL     1       4.657   3.686  19.208  0.00  0.00    +0.000 NA
ATOM      8  C   UNL     1       3.771   4.692  19.134  0.00  0.00    +0.000 A 
ATOM      9  N   UNL     1       3.866   5.847  18.399  0.00  0.00    +0.000 N 
ENDROOT
BRANCH   9  10
ATOM     10  C1* UNL     1       5.002   6.220  17.576  0.00  0.00    +0.000 C 
ATOM     11  O4* UNL     1       4.689   5.999  16.178  0.00  0.00    +0.000 OA
ATOM     12  C4* UNL     1       5.854   5.421  15.529  0.00  0.00    +0.000 C 
ATOM     13  C3* UNL     1       6.996   5.498  16.537  0.00  0.00    +0.000 C 
ATOM     14  C2* UNL     1       6.280   5.435  17.878  0.00  0.00    +0.000 C 
BRANCH  13  15
ATOM     15  O3* UNL     1       7.684   6.762  16.470  0.00  0.00    +0.000 OA
ATOM     16  H3* UNL     1       7.153   7.443  16.924  0.00  0.00    +0.000 HD
ENDBRANCH  13  15
BRANCH  14  17
ATOM     17  O2* UNL     1       7.063   6.024  18.915  0.00  0.00    +0.000 OA
ATOM     18  H2* UNL     1       6.858   5.518  19.730  0.00  0.00    +0.000 HD
ENDBRANCH  14  17
BRANCH  12  19
ATOM     19  C5* UNL     1       5.542   3.988  15.093  0.00  0.00    +0.000 C 
BRANCH  19  20
ATOM     20  O5* UNL     1       6.439   3.588  14.060  0.00  0.00    +0.000 OA
ATOM     21  H5* UNL     1       7.317   3.514  14.484  0.00  0.00    +0.000 HD
ENDBRANCH  19  20
ENDBRANCH  12  19
ENDBRANCH   9  10
BRANCH   1  22
ATOM     22  S   UNL     1       2.429   8.153  17.990  0.00  0.00    +0.000 S 
BRANCH  22  23
ATOM     23  C   UNL     1       1.801   9.062  19.440  0.00  0.00    +0.000 C 
BRANCH  23  30
ATOM     24  C   UNL     1      -3.246  11.627  18.480  0.00  0.00    +0.000 A 
ATOM     25  C   UNL     1      -3.926  11.408  17.278  0.00  0.00    +0.000 A 
ATOM     26  C   UNL     1      -3.369  10.607  16.279  0.00  0.00    +0.000 A 
ATOM     27  C   UNL     1      -2.135   9.986  16.488  0.00  0.00    +0.000 A 
ATOM     28  C   UNL     1      -1.452  10.169  17.692  0.00  0.00    +0.000 A 
ATOM     29  C   UNL     1      -0.189   9.493  17.966  0.00  0.00    +0.000 A 
ATOM     30  C   UNL     1       0.492   9.726  19.100  0.00  0.00    +0.000 A 
ATOM     31  C   UNL     1      -0.006  10.735  20.065  0.00  0.00    +0.000 A 
ATOM     32  O   UNL     1       0.676  11.135  21.003  0.00  0.00    +0.000 OA
ATOM     33  O   UNL     1      -1.297  11.201  19.870  0.00  0.00    +0.000 OA
ATOM     34  C   UNL     1      -2.008  10.997  18.672  0.00  0.00    +0.000 A 
BRANCH  24  36
ATOM     35  C   UNL     1      -5.286  12.106  19.601  0.00  0.00    +0.000 C 
ATOM     36  O   UNL     1      -3.920  12.424  19.365  0.00  0.00    +0.000 OA
ENDBRANCH  24  36
ENDBRANCH  23  30
ENDBRANCH  22  23
ENDBRANCH   1  22
TORSDOF 9
ENDMDL
MODEL 4
REMARK VINA RESULT:      -8.1      1.986      2.228
REMARK  Name = 
REMARK  10 active torsions:
REMARK  status: ('A' for Active; 'I' for Inactive)
REMARK    1  A    between atoms: C_1  and  O_2
REMARK    2  A    between atoms: O_2  and  C_3
REMARK    3  A    between atoms: C_9  and  C_10
REMARK    4  A    between atoms: C_10  and  S_11
REMARK    5  A    between atoms: S_11  and  C_12
REMARK    6  A    between atoms: N_20  and  C1*_21
REMARK    7  A    between atoms: C4*_23  and  C5*_24
REMARK    8  A    between atoms: C5*_24  and  O5*_25
REMARK    9  A    between atoms: C3*_26  and  O3*_27
REMARK   10  A    between atoms: C2*_28  and  O2*_29
REMARK                            x       y       z     vdW  Elec       q    Type
REMARK                         _______ _______ _______ _____ _____    ______ ____
ROOT
ATOM      1  C   UNL     1       3.350   7.057  18.040  0.00  0.00    +0.000 A 
ATOM      2  N   UNL     1       4.404   7.635  17.504  0.00  0.00    +0.000 NA
ATOM      3  C   UNL     1       5.339   6.637  17.392  0.00  0.00    +0.000 A 
ATOM      4  C   UNL     1       6.633   6.599  16.879  0.00  0.00    +0.000 A 
ATOM      5  N   UNL     1       7.334   5.437  16.908  0.00  0.00    +0.000 NA
ATOM      6  C   UNL     1       6.736   4.351  17.433  0.00  0.00    +0.000 A 
ATOM      7  N   UNL     1       5.488   4.261  17.935  0.00  0.00    +0.000 NA
ATOM      8  C   UNL     1       4.846   5.440  17.890  0.00  0.00    +0.000 A 
ATOM      9  N   UNL     1       3.565   5.718  18.295  0.00  0.00    +0.000 N 
ENDROOT
BRANCH   9  10
ATOM     10  C1* UNL     1       2.627   4.745  18.822  0.00  0.00    +0.000 C 
ATOM     11  O4* UNL     1       3.266   3.957  19.857  0.00  0.00    +0.000 OA
ATOM     12  C4* UNL     1       2.866   2.570  19.696  0.00  0.00    +0.000 C 
ATOM     13  C3* UNL     1       1.763   2.555  18.644  0.00  0.00    +0.000 C 
ATOM     14  C2* UNL     1       2.091   3.762  17.779  0.00  0.00    +0.000 C 
BRANCH  13  15
ATOM     15  O3* UNL     1       0.464   2.777  19.229  0.00  0.00    +0.000 OA
ATOM     16  H3* UNL     1       0.435   2.368  20.114  0.00  0.00    +0.000 HD
ENDBRANCH  13  15
BRANCH  14  17
ATOM     17  O2* UNL     1       0.934   4.247  17.100  0.00  0.00    +0.000 OA
ATOM     18  H2* UNL     1       0.219   3.603  17.288  0.00  0.00    +0.000 HD
ENDBRANCH  14  17
BRANCH  12  19
ATOM     19  C5* UNL     1       4.081   1.727  19.296  0.00  0.00    +0.000 C 
BRANCH  19  20
ATOM     20  O5* UNL     1       5.220   2.125  20.054  0.00  0.00    +0.000 OA
ATOM     21  H5* UNL     1       5.357   3.073  19.853  0.00  0.00    +0.000 HD
ENDBRANCH  19  20
ENDBRANCH  12  19
ENDBRANCH   9  10
BRANCH   1  22
ATOM     22  S   UNL     1       1.835   7.853  18.332  0.00  0.00    +0.000 S 
BRANCH  22  23
ATOM     23  C   UNL     1       1.827   7.994  20.149  0.00  0.00    +0.000 C 
BRANCH  23  30
ATOM     24  C   UNL     1      -1.524  12.242  22.071  0.00  0.00    +0.000 A 
ATOM     25  C   UNL     1      -2.379  12.913  21.191  0.00  0.00    +0.000 A 
ATOM     26  C   UNL     1      -2.394  12.596  19.832  0.00  0.00    +0.000 A 
ATOM     27  C   UNL     1      -1.576  11.576  19.342  0.00  0.00    +0.000 A 
ATOM     28  C   UNL     1      -0.735  10.874  20.209  0.00  0.00    +0.000 A 
ATOM     29  C   UNL     1       0.093   9.767  19.742  0.00  0.00    +0.000 A 
ATOM     30  C   UNL     1       0.946   9.141  20.570  0.00  0.00    +0.000 A 
ATOM     31  C   UNL     1       1.105   9.619  21.964  0.00  0.00    +0.000 A 
ATOM     32  O   UNL     1       2.011   9.224  22.691  0.00  0.00    +0.000 OA
ATOM     33  O   UNL     1       0.166  10.530  22.423  0.00  0.00    +0.000 OA
ATOM     34  C   UNL     1      -0.708  11.222  21.562  0.00  0.00    +0.000 A 
BRANCH  24  36
ATOM     35  C   UNL     1      -1.672  14.057  23.599  0.00  0.00    +0.000 C 
ATOM     36  O   UNL     1      -1.628  12.653  23.372  0.00  0.00    +0.000 OA
ENDBRANCH  24  36
ENDBRANCH  23  30
ENDBRANCH  22  23
ENDBRANCH   1  22
TORSDOF 9
ENDMDL
MODEL 5
REMARK VINA RESULT:      -8.1      3.555      8.680
REMARK  Name = 
REMARK  10 active torsions:
REMARK  status: ('A' for Active; 'I' for Inactive)
REMARK    1  A    between atoms: C_1  and  O_2
REMARK    2  A    between atoms: O_2  and  C_3
REMARK    3  A    between atoms: C_9  and  C_10
REMARK    4  A    between atoms: C_10  and  S_11
REMARK    5  A    between atoms: S_11  and  C_12
REMARK    6  A    between atoms: N_20  and  C1*_21
REMARK    7  A    between atoms: C4*_23  and  C5*_24
REMARK    8  A    between atoms: C5*_24  and  O5*_25
REMARK    9  A    between atoms: C3*_26  and  O3*_27
REMARK   10  A    between atoms: C2*_28  and  O2*_29
REMARK                            x       y       z     vdW  Elec       q    Type
REMARK                         _______ _______ _______ _____ _____    ______ ____
ROOT
ATOM      1  C   UNL     1       1.485  10.744  18.645  0.00  0.00    +0.000 A 
ATOM      2  N   UNL     1       2.266  11.656  18.107  0.00  0.00    +0.000 NA
ATOM      3  C   UNL     1       2.313  12.673  19.027  0.00  0.00    +0.000 A 
ATOM      4  C   UNL     1       2.987  13.891  19.065  0.00  0.00    +0.000 A 
ATOM      5  N   UNL     1       2.833  14.712  20.135  0.00  0.00    +0.000 NA
ATOM      6  C   UNL     1       2.027  14.303  21.134  0.00  0.00    +0.000 A 
ATOM      7  N   UNL     1       1.346  13.143  21.219  0.00  0.00    +0.000 NA
ATOM      8  C   UNL     1       1.528  12.377  20.131  0.00  0.00    +0.000 A 
ATOM      9  N   UNL     1       1.008  11.132  19.880  0.00  0.00    +0.000 N 
ENDROOT
BRANCH   9  10
ATOM     10  C1* UNL     1       0.174  10.376  20.796  0.00  0.00    +0.000 C 
ATOM     11  O4* UNL     1      -1.053  11.102  21.056  0.00  0.00    +0.000 OA
ATOM     12  C4* UNL     1      -1.366  10.990  22.471  0.00  0.00    +0.000 C 
ATOM     13  C3* UNL     1      -0.395   9.968  23.051  0.00  0.00    +0.000 C 
ATOM     14  C2* UNL     1       0.826  10.099  22.153  0.00  0.00    +0.000 C 
BRANCH  13  15
ATOM     15  O3* UNL     1      -0.893   8.622  22.917  0.00  0.00    +0.000 OA
ATOM     16  H3* UNL     1      -1.707   8.525  23.445  0.00  0.00    +0.000 HD
ENDBRANCH  13  15
BRANCH  14  17
ATOM     17  O2* UNL     1       1.609   8.906  22.160  0.00  0.00    +0.000 OA
ATOM     18  H2* UNL     1       1.244   8.338  21.449  0.00  0.00    +0.000 HD
ENDBRANCH  14  17
BRANCH  12  19
ATOM     19  C5* UNL     1      -1.248  12.365  23.134  0.00  0.00    +0.000 C 
BRANCH  19  20
ATOM     20  O5* UNL     1      -1.359  13.391  22.151  0.00  0.00    +0.000 OA
ATOM     21  H5* UNL     1      -1.557  12.933  21.309  0.00  0.00    +0.000 HD
ENDBRANCH  19  20
ENDBRANCH  12  19
ENDBRANCH   9  10
BRANCH   1  22
ATOM     22  S   UNL     1       1.142   9.198  17.932  0.00  0.00    +0.000 S 
BRANCH  22  23
ATOM     23  C   UNL     1       2.815   8.556  17.602  0.00  0.00    +0.000 C 
BRANCH  23  30
ATOM     24  C   UNL     1       3.512   3.249  19.681  0.00  0.00    +0.000 A 
ATOM     25  C   UNL     1       2.828   2.853  20.834  0.00  0.00    +0.000 A 
ATOM     26  C   UNL     1       2.009   3.751  21.521  0.00  0.00    +0.000 A 
ATOM     27  C   UNL     1       1.837   5.051  21.040  0.00  0.00    +0.000 A 
ATOM     28  C   UNL     1       2.490   5.459  19.874  0.00  0.00    +0.000 A 
ATOM     29  C   UNL     1       2.292   6.791  19.312  0.00  0.00    +0.000 A 
ATOM     30  C   UNL     1       2.974   7.195  18.227  0.00  0.00    +0.000 A 
ATOM     31  C   UNL     1       3.995   6.306  17.624  0.00  0.00    +0.000 A 
ATOM     32  O   UNL     1       4.785   6.701  16.773  0.00  0.00    +0.000 OA
ATOM     33  O   UNL     1       4.009   4.988  18.056  0.00  0.00    +0.000 OA
ATOM     34  C   UNL     1       3.330   4.558  19.213  0.00  0.00    +0.000 A 
BRANCH  24  36
ATOM     35  C   UNL     1       3.604   1.394  18.198  0.00  0.00    +0.000 C 
ATOM     36  O   UNL     1       4.267   2.260  19.112  0.00  0.00    +0.000 OA
ENDBRANCH  24  36
ENDBRANCH  23  30
ENDBRANCH  22  23
ENDBRANCH   1  22
TORSDOF 9
ENDMDL
MODEL 6
REMARK VINA RESULT:      -8.1      2.198      3.756
REMARK  Name = 
REMARK  10 active torsions:
REMARK  status: ('A' for Active; 'I' for Inactive)
REMARK    1  A    between atoms: C_1  and  O_2
REMARK    2  A    between atoms: O_2  and  C_3
REMARK    3  A    between atoms: C_9  and  C_10
REMARK    4  A    between atoms: C_10  and  S_11
REMARK    5  A    between atoms: S_11  and  C_12
REMARK    6  A    between atoms: N_20  and  C1*_21
REMARK    7  A    between atoms: C4*_23  and  C5*_24
REMARK    8  A    between atoms: C5*_24  and  O5*_25
REMARK    9  A    between atoms: C3*_26  and  O3*_27
REMARK   10  A    between atoms: C2*_28  and  O2*_29
REMARK                            x       y       z     vdW  Elec       q    Type
REMARK                         _______ _______ _______ _____ _____    ______ ____
ROOT
ATOM      1  C   UNL     1       2.699   6.361  18.007  0.00  0.00    +0.000 A 
ATOM      2  N   UNL     1       1.628   5.603  18.119  0.00  0.00    +0.000 NA
ATOM      3  C   UNL     1       2.109   4.331  18.298  0.00  0.00    +0.000 A 
ATOM      4  C   UNL     1       1.491   3.101  18.508  0.00  0.00    +0.000 A 
ATOM      5  N   UNL     1       2.247   1.983  18.652  0.00  0.00    +0.000 NA
ATOM      6  C   UNL     1       3.586   2.115  18.593  0.00  0.00    +0.000 A 
ATOM      7  N   UNL     1       4.295   3.249  18.419  0.00  0.00    +0.000 NA
ATOM      8  C   UNL     1       3.496   4.318  18.273  0.00  0.00    +0.000 A 
ATOM      9  N   UNL     1       3.864   5.628  18.094  0.00  0.00    +0.000 N 
ENDROOT
BRANCH   9  10
ATOM     10  C1* UNL     1       5.232   6.114  18.076  0.00  0.00    +0.000 C 
ATOM     11  O4* UNL     1       5.611   6.460  16.721  0.00  0.00    +0.000 OA
ATOM     12  C4* UNL     1       6.971   6.004  16.491  0.00  0.00    +0.000 C 
ATOM     13  C3* UNL     1       7.513   5.552  17.843  0.00  0.00    +0.000 C 
ATOM     14  C2* UNL     1       6.263   5.105  18.586  0.00  0.00    +0.000 C 
BRANCH  13  15
ATOM     15  O3* UNL     1       8.091   6.647  18.581  0.00  0.00    +0.000 OA
ATOM     16  H3* UNL     1       8.525   7.261  17.958  0.00  0.00    +0.000 HD
ENDBRANCH  13  15
BRANCH  14  17
ATOM     17  O2* UNL     1       6.447   5.164  19.999  0.00  0.00    +0.000 OA
ATOM     18  H2* UNL     1       6.990   4.382  20.235  0.00  0.00    +0.000 HD
ENDBRANCH  14  17
BRANCH  12  19
ATOM     19  C5* UNL     1       6.968   4.884  15.447  0.00  0.00    +0.000 C 
BRANCH  19  20
ATOM     20  O5* UNL     1       7.673   5.303  14.281  0.00  0.00    +0.000 OA
ATOM     21  H5* UNL     1       7.116   5.038  13.523  0.00  0.00    +0.000 HD
ENDBRANCH  19  20
ENDBRANCH  12  19
ENDBRANCH   9  10
BRANCH   1  22
ATOM     22  S   UNL     1       2.667   8.089  17.842  0.00  0.00    +0.000 S 
BRANCH  22  23
ATOM     23  C   UNL     1       1.932   8.605  19.427  0.00  0.00    +0.000 C 
BRANCH  23  30
ATOM     24  C   UNL     1      -2.876  11.682  18.800  0.00  0.00    +0.000 A 
ATOM     25  C   UNL     1      -3.604  11.609  17.608  0.00  0.00    +0.000 A 
ATOM     26  C   UNL     1      -3.150  10.832  16.541  0.00  0.00    +0.000 A 
ATOM     27  C   UNL     1      -1.975  10.087  16.669  0.00  0.00    +0.000 A 
ATOM     28  C   UNL     1      -1.247  10.124  17.861  0.00  0.00    +0.000 A 
ATOM     29  C   UNL     1      -0.046   9.318  18.049  0.00  0.00    +0.000 A 
ATOM     30  C   UNL     1       0.682   9.409  19.174  0.00  0.00    +0.000 A 
ATOM     31  C   UNL     1       0.305  10.389  20.219  0.00  0.00    +0.000 A 
ATOM     32  O   UNL     1       1.044  10.659  21.160  0.00  0.00    +0.000 OA
ATOM     33  O   UNL     1      -0.942  10.984  20.096  0.00  0.00    +0.000 OA
ATOM     34  C   UNL     1      -1.698  10.929  18.910  0.00  0.00    +0.000 A 
BRANCH  24  36
ATOM     35  C   UNL     1      -4.863  12.634  19.693  0.00  0.00    +0.000 C 
ATOM     36  O   UNL     1      -3.450  12.473  19.757  0.00  0.00    +0.000 OA
ENDBRANCH  24  36
ENDBRANCH  23  30
ENDBRANCH  22  23
ENDBRANCH   1  22
TORSDOF 9
ENDMDL
MODEL 7
REMARK VINA RESULT:      -8.0      1.798      2.872
REMARK  Name = 
REMARK  10 active torsions:
REMARK  status: ('A' for Active; 'I' for Inactive)
REMARK    1  A    between atoms: C_1  and  O_2
REMARK    2  A    between atoms: O_2  and  C_3
REMARK    3  A    between atoms: C_9  and  C_10
REMARK    4  A    between atoms: C_10  and  S_11
REMARK    5  A    between atoms: S_11  and  C_12
REMARK    6  A    between atoms: N_20  and  C1*_21
REMARK    7  A    between atoms: C4*_23  and  C5*_24
REMARK    8  A    between atoms: C5*_24  and  O5*_25
REMARK    9  A    between atoms: C3*_26  and  O3*_27
REMARK   10  A    between atoms: C2*_28  and  O2*_29
REMARK                            x       y       z     vdW  Elec       q    Type
REMARK                         _______ _______ _______ _____ _____    ______ ____
ROOT
ATOM      1  C   UNL     1       3.255   6.996  18.120  0.00  0.00    +0.000 A 
ATOM      2  N   UNL     1       4.078   7.460  17.202  0.00  0.00    +0.000 NA
ATOM      3  C   UNL     1       4.675   6.348  16.665  0.00  0.00    +0.000 A 
ATOM      4  C   UNL     1       5.605   6.167  15.644  0.00  0.00    +0.000 A 
ATOM      5  N   UNL     1       6.022   4.915  15.328  0.00  0.00    +0.000 NA
ATOM      6  C   UNL     1       5.505   3.883  16.022  0.00  0.00    +0.000 A 
ATOM      7  N   UNL     1       4.588   3.932  17.009  0.00  0.00    +0.000 NA
ATOM      8  C   UNL     1       4.220   5.193  17.285  0.00  0.00    +0.000 A 
ATOM      9  N   UNL     1       3.302   5.621  18.211  0.00  0.00    +0.000 N 
ENDROOT
BRANCH   9  10
ATOM     10  C1* UNL     1       2.504   4.752  19.057  0.00  0.00    +0.000 C 
ATOM     11  O4* UNL     1       3.293   4.312  20.190  0.00  0.00    +0.000 OA
ATOM     12  C4* UNL     1       3.018   2.905  20.427  0.00  0.00    +0.000 C 
ATOM     13  C3* UNL     1       1.845   2.534  19.526  0.00  0.00    +0.000 C 
ATOM     14  C2* UNL     1       1.989   3.493  18.354  0.00  0.00    +0.000 C 
BRANCH  13  15
ATOM     15  O3* UNL     1       0.579   2.805  20.158  0.00  0.00    +0.000 OA
ATOM     16  H3* UNL     1       0.031   1.997  20.142  0.00  0.00    +0.000 HD
ENDBRANCH  13  15
BRANCH  14  17
ATOM     17  O2* UNL     1       0.743   3.698  17.691  0.00  0.00    +0.000 OA
ATOM     18  H2* UNL     1       0.842   3.301  16.799  0.00  0.00    +0.000 HD
ENDBRANCH  14  17
BRANCH  12  19
ATOM     19  C5* UNL     1       4.275   2.079  20.137  0.00  0.00    +0.000 C 
BRANCH  19  20
ATOM     20  O5* UNL     1       5.313   2.928  19.653  0.00  0.00    +0.000 OA
ATOM     21  H5* UNL     1       4.885   3.783  19.449  0.00  0.00    +0.000 HD
ENDBRANCH  19  20
ENDBRANCH  12  19
ENDBRANCH   9  10
BRANCH   1  22
ATOM     22  S   UNL     1       2.179   7.981  19.062  0.00  0.00    +0.000 S 
BRANCH  22  23
ATOM     23  C   UNL     1       1.307   8.927  17.772  0.00  0.00    +0.000 C 
BRANCH  23  30
ATOM     24  C   UNL     1       0.599  14.425  19.268  0.00  0.00    +0.000 A 
ATOM     25  C   UNL     1       1.658  15.329  19.138  0.00  0.00    +0.000 A 
ATOM     26  C   UNL     1       2.910  14.901  18.691  0.00  0.00    +0.000 A 
ATOM     27  C   UNL     1       3.107  13.564  18.336  0.00  0.00    +0.000 A 
ATOM     28  C   UNL     1       2.054  12.651  18.433  0.00  0.00    +0.000 A 
ATOM     29  C   UNL     1       2.208  11.260  18.019  0.00  0.00    +0.000 A 
ATOM     30  C   UNL     1       1.209  10.375  18.176  0.00  0.00    +0.000 A 
ATOM     31  C   UNL     1      -0.048  10.791  18.841  0.00  0.00    +0.000 A 
ATOM     32  O   UNL     1      -0.899   9.983  19.196  0.00  0.00    +0.000 OA
ATOM     33  O   UNL     1      -0.231  12.153  19.033  0.00  0.00    +0.000 OA
ATOM     34  C   UNL     1       0.814  13.087  18.909  0.00  0.00    +0.000 A 
BRANCH  24  36
ATOM     35  C   UNL     1      -0.779  15.017  21.113  0.00  0.00    +0.000 C 
ATOM     36  O   UNL     1      -0.567  14.992  19.706  0.00  0.00    +0.000 OA
ENDBRANCH  24  36
ENDBRANCH  23  30
ENDBRANCH  22  23
ENDBRANCH   1  22
TORSDOF 9
ENDMDL
MODEL 8
REMARK VINA RESULT:      -7.9      2.465      2.837
REMARK  Name = 
REMARK  10 active torsions:
REMARK  status: ('A' for Active; 'I' for Inactive)
REMARK    1  A    between atoms: C_1  and  O_2
REMARK    2  A    between atoms: O_2  and  C_3
REMARK    3  A    between atoms: C_9  and  C_10
REMARK    4  A    between atoms: C_10  and  S_11
REMARK    5  A    between atoms: S_11  and  C_12
REMARK    6  A    between atoms: N_20  and  C1*_21
REMARK    7  A    between atoms: C4*_23  and  C5*_24
REMARK    8  A    between atoms: C5*_24  and  O5*_25
REMARK    9  A    between atoms: C3*_26  and  O3*_27
REMARK   10  A    between atoms: C2*_28  and  O2*_29
REMARK                            x       y       z     vdW  Elec       q    Type
REMARK                         _______ _______ _______ _____ _____    ______ ____
ROOT
ATOM      1  C   UNL     1       3.979   6.206  18.222  0.00  0.00    +0.000 A 
ATOM      2  N   UNL     1       5.007   6.870  17.736  0.00  0.00    +0.000 NA
ATOM      3  C   UNL     1       5.647   5.981  16.910  0.00  0.00    +0.000 A 
ATOM      4  C   UNL     1       6.767   6.082  16.089  0.00  0.00    +0.000 A 
ATOM      5  N   UNL     1       7.176   5.004  15.372  0.00  0.00    +0.000 NA
ATOM      6  C   UNL     1       6.464   3.866  15.483  0.00  0.00    +0.000 A 
ATOM      7  N   UNL     1       5.357   3.656  16.223  0.00  0.00    +0.000 NA
ATOM      8  C   UNL     1       5.005   4.751  16.916  0.00  0.00    +0.000 A 
ATOM      9  N   UNL     1       3.931   4.909  17.754  0.00  0.00    +0.000 N 
ENDROOT
BRANCH   9  10
ATOM     10  C1* UNL     1       2.922   3.899  18.016  0.00  0.00    +0.000 C 
ATOM     11  O4* UNL     1       1.850   4.470  18.807  0.00  0.00    +0.000 OA
ATOM     12  C4* UNL     1       1.453   3.502  19.815  0.00  0.00    +0.000 C 
ATOM     13  C3* UNL     1       2.175   2.202  19.478  0.00  0.00    +0.000 C 
ATOM     14  C2* UNL     1       3.440   2.678  18.779  0.00  0.00    +0.000 C 
BRANCH  13  15
ATOM     15  O3* UNL     1       1.430   1.406  18.535  0.00  0.00    +0.000 OA
ATOM     16  H3* UNL     1       1.608   0.461  18.700  0.00  0.00    +0.000 HD
ENDBRANCH  13  15
BRANCH  14  17
ATOM     17  O2* UNL     1       3.973   1.671  17.921  0.00  0.00    +0.000 OA
ATOM     18  H2* UNL     1       4.483   1.065  18.498  0.00  0.00    +0.000 HD
ENDBRANCH  14  17
BRANCH  12  19
ATOM     19  C5* UNL     1       1.807   4.034  21.207  0.00  0.00    +0.000 C 
BRANCH  19  20
ATOM     20  O5* UNL     1       2.126   2.950  22.076  0.00  0.00    +0.000 OA
ATOM     21  H5* UNL     1       2.251   2.172  21.496  0.00  0.00    +0.000 HD
ENDBRANCH  19  20
ENDBRANCH  12  19
ENDBRANCH   9  10
BRANCH   1  22
ATOM     22  S   UNL     1       2.777   6.888  19.273  0.00  0.00    +0.000 S 
BRANCH  22  23
ATOM     23  C   UNL     1       2.133   8.264  18.266  0.00  0.00    +0.000 C 
BRANCH  23  30
ATOM     24  C   UNL     1      -0.130  12.396  21.548  0.00  0.00    +0.000 A 
ATOM     25  C   UNL     1      -0.847  12.062  22.701  0.00  0.00    +0.000 A 
ATOM     26  C   UNL     1      -1.063  10.726  23.044  0.00  0.00    +0.000 A 
ATOM     27  C   UNL     1      -0.533   9.705  22.250  0.00  0.00    +0.000 A 
ATOM     28  C   UNL     1       0.209  10.018  21.109  0.00  0.00    +0.000 A 
ATOM     29  C   UNL     1       0.823   8.981  20.288  0.00  0.00    +0.000 A 
ATOM     30  C   UNL     1       1.480   9.288  19.157  0.00  0.00    +0.000 A 
ATOM     31  C   UNL     1       1.530  10.695  18.692  0.00  0.00    +0.000 A 
ATOM     32  O   UNL     1       1.930  11.000  17.574  0.00  0.00    +0.000 OA
ATOM     33  O   UNL     1       1.116  11.664  19.593  0.00  0.00    +0.000 OA
ATOM     34  C   UNL     1       0.393  11.360  20.762  0.00  0.00    +0.000 A 
BRANCH  24  36
ATOM     35  C   UNL     1      -0.193  14.582  22.480  0.00  0.00    +0.000 C 
ATOM     36  O   UNL     1       0.010  13.743  21.349  0.00  0.00    +0.000 OA
ENDBRANCH  24  36
ENDBRANCH  23  30
ENDBRANCH  22  23
ENDBRANCH   1  22
TORSDOF 9
ENDMDL
MODEL 9
REMARK VINA RESULT:      -7.9      2.734      4.261
REMARK  Name = 
REMARK  10 active torsions:
REMARK  status: ('A' for Active; 'I' for Inactive)
REMARK    1  A    between atoms: C_1  and  O_2
REMARK    2  A    between atoms: O_2  and  C_3
REMARK    3  A    between atoms: C_9  and  C_10
REMARK    4  A    between atoms: C_10  and  S_11
REMARK    5  A    between atoms: S_11  and  C_12
REMARK    6  A    between atoms: N_20  and  C1*_21
REMARK    7  A    between atoms: C4*_23  and  C5*_24
REMARK    8  A    between atoms: C5*_24  and  O5*_25
REMARK    9  A    between atoms: C3*_26  and  O3*_27
REMARK   10  A    between atoms: C2*_28  and  O2*_29
REMARK                            x       y       z     vdW  Elec       q    Type
REMARK                         _______ _______ _______ _____ _____    ______ ____
ROOT
ATOM      1  C   UNL     1       2.362   5.926  19.257  0.00  0.00    +0.000 A 
ATOM      2  N   UNL     1       1.444   5.054  19.620  0.00  0.00    +0.000 NA
ATOM      3  C   UNL     1       1.945   3.834  19.245  0.00  0.00    +0.000 A 
ATOM      4  C   UNL     1       1.473   2.531  19.379  0.00  0.00    +0.000 A 
ATOM      5  N   UNL     1       2.207   1.496  18.895  0.00  0.00    +0.000 NA
ATOM      6  C   UNL     1       3.383   1.779  18.302  0.00  0.00    +0.000 A 
ATOM      7  N   UNL     1       3.951   2.991  18.137  0.00  0.00    +0.000 NA
ATOM      8  C   UNL     1       3.178   3.974  18.625  0.00  0.00    +0.000 A 
ATOM      9  N   UNL     1       3.440   5.321  18.646  0.00  0.00    +0.000 N 
ENDROOT
BRANCH   9  10
ATOM     10  C1* UNL     1       4.662   5.940  18.167  0.00  0.00    +0.000 C 
ATOM     11  O4* UNL     1       4.584   6.136  16.733  0.00  0.00    +0.000 OA
ATOM     12  C4* UNL     1       5.870   5.797  16.149  0.00  0.00    +0.000 C 
ATOM     13  C3* UNL     1       6.835   5.592  17.312  0.00  0.00    +0.000 C 
ATOM     14  C2* UNL     1       5.927   5.122  18.438  0.00  0.00    +0.000 C 
BRANCH  13  15
ATOM     15  O3* UNL     1       7.442   6.831  17.728  0.00  0.00    +0.000 OA
ATOM     16  H3* UNL     1       6.974   7.170  18.515  0.00  0.00    +0.000 HD
ENDBRANCH  13  15
BRANCH  14  17
ATOM     17  O2* UNL     1       6.500   5.392  19.717  0.00  0.00    +0.000 OA
ATOM     18  H2* UNL     1       6.045   6.193  20.054  0.00  0.00    +0.000 HD
ENDBRANCH  14  17
BRANCH  12  19
ATOM     19  C5* UNL     1       5.724   4.551  15.271  0.00  0.00    +0.000 C 
BRANCH  19  20
ATOM     20  O5* UNL     1       6.019   3.382  16.032  0.00  0.00    +0.000 OA
ATOM     21  H5* UNL     1       5.172   2.900  16.118  0.00  0.00    +0.000 HD
ENDBRANCH  19  20
ENDBRANCH  12  19
ENDBRANCH   9  10
BRANCH   1  22
ATOM     22  S   UNL     1       2.274   7.633  19.567  0.00  0.00    +0.000 S 
BRANCH  22  23
ATOM     23  C   UNL     1       1.427   7.679  21.181  0.00  0.00    +0.000 C 
BRANCH  23  30
ATOM     24  C   UNL     1      -1.424  12.578  22.094  0.00  0.00    +0.000 A 
ATOM     25  C   UNL     1      -2.127  13.185  21.049  0.00  0.00    +0.000 A 
ATOM     26  C   UNL     1      -2.106  12.640  19.764  0.00  0.00    +0.000 A 
ATOM     27  C   UNL     1      -1.406  11.456  19.518  0.00  0.00    +0.000 A 
ATOM     28  C   UNL     1      -0.720  10.819  20.554  0.00  0.00    +0.000 A 
ATOM     29  C   UNL     1      -0.024   9.553  20.346  0.00  0.00    +0.000 A 
ATOM     30  C   UNL     1       0.686   8.981  21.333  0.00  0.00    +0.000 A 
ATOM     31  C   UNL     1       0.827   9.672  22.636  0.00  0.00    +0.000 A 
ATOM     32  O   UNL     1       1.627   9.302  23.489  0.00  0.00    +0.000 OA
ATOM     33  O   UNL     1      -0.006  10.759  22.860  0.00  0.00    +0.000 OA
ATOM     34  C   UNL     1      -0.726  11.392  21.829  0.00  0.00    +0.000 A 
BRANCH  24  36
ATOM     35  C   UNL     1      -1.043  14.549  23.367  0.00  0.00    +0.000 C 
ATOM     36  O   UNL     1      -1.547  13.220  23.296  0.00  0.00    +0.000 OA
ENDBRANCH  24  36
ENDBRANCH  23  30
ENDBRANCH  22  23
ENDBRANCH   1  22
TORSDOF 9
ENDMDL
