MODEL 1
REMARK VINA RESULT:      -5.7      0.000      0.000
REMARK  Name = 
REMARK  5 active torsions:
REMARK  status: ('A' for Active; 'I' for Inactive)
REMARK    1  A    between atoms: C_4  and  C_5
REMARK    2  A    between atoms: C_5  and  C_6
REMARK    3  A    between atoms: C_6  and  C_7
REMARK    4  A    between atoms: C_7  and  C_8
REMARK    5  A    between atoms: C_8  and  C_9
REMARK                            x       y       z     vdW  Elec       q    Type
REMARK                         _______ _______ _______ _____ _____    ______ ____
ROOT
ATOM      1  C   UNL     1       6.079   4.043  14.937  0.00  0.00    +0.000 C 
ATOM      2  C   UNL     1       5.833   4.212  16.240  0.00  0.00    +0.000 C 
ATOM      3  C   UNL     1       4.503   4.356  16.911  0.00  0.00    +0.000 C 
ATOM      4  C   UNL     1       4.834   4.241  18.407  0.00  0.00    +0.000 C 
ATOM      5  N   UNL     1       6.270   4.378  18.474  0.00  0.00    +0.000 N 
ATOM      6  C   UNL     1       6.900   4.272  17.265  0.00  0.00    +0.000 C 
ATOM      7  O   UNL     1       8.102   4.238  17.075  0.00  0.00    +0.000 OA
ATOM      8  H   UNL     1       6.816   4.390  19.327  0.00  0.00    +0.000 HD
ENDROOT
BRANCH   4   9
ATOM      9  C   UNL     1       4.368   2.910  19.016  0.00  0.00    +0.000 C 
BRANCH   9  10
ATOM     10  C   UNL     1       3.344   2.207  18.117  0.00  0.00    +0.000 C 
BRANCH  10  11
ATOM     11  C   UNL     1       1.983   2.081  18.799  0.00  0.00    +0.000 C 
BRANCH  11  12
ATOM     12  C   UNL     1       1.258   3.427  18.809  0.00  0.00    +0.000 C 
ATOM     13  C   UNL     1       0.914   3.862  20.223  0.00  0.00    +0.000 C 
ENDBRANCH  11  12
ENDBRANCH  10  11
ENDBRANCH   9  10
ENDBRANCH   4   9
TORSDOF 4
ENDMDL
MODEL 2
REMARK VINA RESULT:      -5.7      1.330      2.111
REMARK  Name = 
REMARK  5 active torsions:
REMARK  status: ('A' for Active; 'I' for Inactive)
REMARK    1  A    between atoms: C_4  and  C_5
REMARK    2  A    between atoms: C_5  and  C_6
REMARK    3  A    between atoms: C_6  and  C_7
REMARK    4  A    between atoms: C_7  and  C_8
REMARK    5  A    between atoms: C_8  and  C_9
REMARK                            x       y       z     vdW  Elec       q    Type
REMARK                         _______ _______ _______ _____ _____    ______ ____
ROOT
ATOM      1  C   UNL     1       7.799   6.519  18.561  0.00  0.00    +0.000 C 
ATOM      2  C   UNL     1       6.922   5.534  18.341  0.00  0.00    +0.000 C 
ATOM      3  C   UNL     1       5.684   5.218  19.121  0.00  0.00    +0.000 C 
ATOM      4  C   UNL     1       4.958   4.182  18.249  0.00  0.00    +0.000 C 
ATOM      5  N   UNL     1       5.943   3.769  17.278  0.00  0.00    +0.000 N 
ATOM      6  C   UNL     1       7.049   4.571  17.224  0.00  0.00    +0.000 C 
ATOM      7  O   UNL     1       7.957   4.499  16.418  0.00  0.00    +0.000 OA
ATOM      8  H   UNL     1       5.802   3.058  16.570  0.00  0.00    +0.000 HD
ENDROOT
BRANCH   4   9
ATOM      9  C   UNL     1       3.706   4.756  17.569  0.00  0.00    +0.000 C 
BRANCH   9  10
ATOM     10  C   UNL     1       2.654   3.670  17.314  0.00  0.00    +0.000 C 
BRANCH  10  11
ATOM     11  C   UNL     1       1.391   3.899  18.141  0.00  0.00    +0.000 C 
BRANCH  11  12
ATOM     12  C   UNL     1       1.196   2.769  19.153  0.00  0.00    +0.000 C 
ATOM     13  C   UNL     1       1.023   3.309  20.563  0.00  0.00    +0.000 C 
ENDBRANCH  11  12
ENDBRANCH  10  11
ENDBRANCH   9  10
ENDBRANCH   4   9
TORSDOF 4
ENDMDL
MODEL 3
REMARK VINA RESULT:      -5.6      3.997      5.423
REMARK  Name = 
REMARK  5 active torsions:
REMARK  status: ('A' for Active; 'I' for Inactive)
REMARK    1  A    between atoms: C_4  and  C_5
REMARK    2  A    between atoms: C_5  and  C_6
REMARK    3  A    between atoms: C_6  and  C_7
REMARK    4  A    between atoms: C_7  and  C_8
REMARK    5  A    between atoms: C_8  and  C_9
REMARK                            x       y       z     vdW  Elec       q    Type
REMARK                         _______ _______ _______ _____ _____    ______ ____
ROOT
ATOM      1  C   UNL     1       7.250   6.921  17.224  0.00  0.00    +0.000 C 
ATOM      2  C   UNL     1       6.843   5.855  16.526  0.00  0.00    +0.000 C 
ATOM      3  C   UNL     1       5.836   5.813  15.419  0.00  0.00    +0.000 C 
ATOM      4  C   UNL     1       5.992   4.400  14.837  0.00  0.00    +0.000 C 
ATOM      5  N   UNL     1       6.779   3.687  15.816  0.00  0.00    +0.000 N 
ATOM      6  C   UNL     1       7.368   4.489  16.753  0.00  0.00    +0.000 C 
ATOM      7  O   UNL     1       8.164   4.142  17.606  0.00  0.00    +0.000 OA
ATOM      8  H   UNL     1       7.031   2.708  15.762  0.00  0.00    +0.000 HD
ENDROOT
BRANCH   4   9
ATOM      9  C   UNL     1       6.674   4.399  13.461  0.00  0.00    +0.000 C 
BRANCH   9  10
ATOM     10  C   UNL     1       6.046   3.364  12.521  0.00  0.00    +0.000 C 
BRANCH  10  11
ATOM     11  C   UNL     1       4.558   3.628  12.299  0.00  0.00    +0.000 C 
BRANCH  11  12
ATOM     12  C   UNL     1       4.075   2.952  11.015  0.00  0.00    +0.000 C 
ATOM     13  C   UNL     1       3.258   3.905  10.159  0.00  0.00    +0.000 C 
ENDBRANCH  11  12
ENDBRANCH  10  11
ENDBRANCH   9  10
ENDBRANCH   4   9
TORSDOF 4
ENDMDL
MODEL 4
REMARK VINA RESULT:      -5.6      2.110      2.942
REMARK  Name = 
REMARK  5 active torsions:
REMARK  status: ('A' for Active; 'I' for Inactive)
REMARK    1  A    between atoms: C_4  and  C_5
REMARK    2  A    between atoms: C_5  and  C_6
REMARK    3  A    between atoms: C_6  and  C_7
REMARK    4  A    between atoms: C_7  and  C_8
REMARK    5  A    between atoms: C_8  and  C_9
REMARK                            x       y       z     vdW  Elec       q    Type
REMARK                         _______ _______ _______ _____ _____    ______ ____
ROOT
ATOM      1  C   UNL     1       3.873   3.488  16.989  0.00  0.00    +0.000 C 
ATOM      2  C   UNL     1       3.711   4.438  17.916  0.00  0.00    +0.000 C 
ATOM      3  C   UNL     1       2.594   5.428  18.029  0.00  0.00    +0.000 C 
ATOM      4  C   UNL     1       2.803   6.058  19.416  0.00  0.00    +0.000 C 
ATOM      5  N   UNL     1       4.132   5.647  19.805  0.00  0.00    +0.000 N 
ATOM      6  C   UNL     1       4.660   4.650  19.033  0.00  0.00    +0.000 C 
ATOM      7  O   UNL     1       5.706   4.060  19.228  0.00  0.00    +0.000 OA
ATOM      8  H   UNL     1       4.603   5.927  20.657  0.00  0.00    +0.000 HD
ENDROOT
BRANCH   4   9
ATOM      9  C   UNL     1       1.752   5.601  20.437  0.00  0.00    +0.000 C 
BRANCH   9  10
ATOM     10  C   UNL     1       2.232   4.381  21.233  0.00  0.00    +0.000 C 
BRANCH  10  11
ATOM     11  C   UNL     1       1.266   3.205  21.105  0.00  0.00    +0.000 C 
BRANCH  11  12
ATOM     12  C   UNL     1       1.668   2.299  19.942  0.00  0.00    +0.000 C 
ATOM     13  C   UNL     1       0.632   2.327  18.831  0.00  0.00    +0.000 C 
ENDBRANCH  11  12
ENDBRANCH  10  11
ENDBRANCH   9  10
ENDBRANCH   4   9
TORSDOF 4
ENDMDL
MODEL 5
REMARK VINA RESULT:      -5.5      3.073      5.011
REMARK  Name = 
REMARK  5 active torsions:
REMARK  status: ('A' for Active; 'I' for Inactive)
REMARK    1  A    between atoms: C_4  and  C_5
REMARK    2  A    between atoms: C_5  and  C_6
REMARK    3  A    between atoms: C_6  and  C_7
REMARK    4  A    between atoms: C_7  and  C_8
REMARK    5  A    between atoms: C_8  and  C_9
REMARK                            x       y       z     vdW  Elec       q    Type
REMARK                         _______ _______ _______ _____ _____    ______ ____
ROOT
ATOM      1  C   UNL     1       7.612   7.561  17.542  0.00  0.00    +0.000 C 
ATOM      2  C   UNL     1       6.941   6.405  17.538  0.00  0.00    +0.000 C 
ATOM      3  C   UNL     1       5.774   6.026  16.681  0.00  0.00    +0.000 C 
ATOM      4  C   UNL     1       5.616   4.517  16.925  0.00  0.00    +0.000 C 
ATOM      5  N   UNL     1       6.433   4.249  18.086  0.00  0.00    +0.000 N 
ATOM      6  C   UNL     1       7.281   5.267  18.421  0.00  0.00    +0.000 C 
ATOM      7  O   UNL     1       8.142   5.238  19.281  0.00  0.00    +0.000 OA
ATOM      8  H   UNL     1       6.521   3.349  18.542  0.00  0.00    +0.000 HD
ENDROOT
BRANCH   4   9
ATOM      9  C   UNL     1       6.058   3.673  15.721  0.00  0.00    +0.000 C 
BRANCH   9  10
ATOM     10  C   UNL     1       6.233   4.533  14.463  0.00  0.00    +0.000 C 
BRANCH  10  11
ATOM     11  C   UNL     1       5.394   4.012  13.298  0.00  0.00    +0.000 C 
BRANCH  11  12
ATOM     12  C   UNL     1       6.290   3.428  12.206  0.00  0.00    +0.000 C 
ATOM     13  C   UNL     1       5.655   2.208  11.559  0.00  0.00    +0.000 C 
ENDBRANCH  11  12
ENDBRANCH  10  11
ENDBRANCH   9  10
ENDBRANCH   4   9
TORSDOF 4
ENDMDL
MODEL 6
REMARK VINA RESULT:      -5.5      1.222      1.398
REMARK  Name = 
REMARK  5 active torsions:
REMARK  status: ('A' for Active; 'I' for Inactive)
REMARK    1  A    between atoms: C_4  and  C_5
REMARK    2  A    between atoms: C_5  and  C_6
REMARK    3  A    between atoms: C_6  and  C_7
REMARK    4  A    between atoms: C_7  and  C_8
REMARK    5  A    between atoms: C_8  and  C_9
REMARK                            x       y       z     vdW  Elec       q    Type
REMARK                         _______ _______ _______ _____ _____    ______ ____
ROOT
ATOM      1  C   UNL     1       5.868   6.258  16.391  0.00  0.00    +0.000 C 
ATOM      2  C   UNL     1       5.455   5.395  17.325  0.00  0.00    +0.000 C 
ATOM      3  C   UNL     1       4.056   5.159  17.801  0.00  0.00    +0.000 C 
ATOM      4  C   UNL     1       4.170   3.888  18.656  0.00  0.00    +0.000 C 
ATOM      5  N   UNL     1       5.589   3.715  18.863  0.00  0.00    +0.000 N 
ATOM      6  C   UNL     1       6.372   4.489  18.053  0.00  0.00    +0.000 C 
ATOM      7  O   UNL     1       7.584   4.441  17.957  0.00  0.00    +0.000 OA
ATOM      8  H   UNL     1       6.012   2.987  19.426  0.00  0.00    +0.000 HD
ENDROOT
BRANCH   4   9
ATOM      9  C   UNL     1       3.548   2.660  17.977  0.00  0.00    +0.000 C 
BRANCH   9  10
ATOM     10  C   UNL     1       2.560   1.942  18.904  0.00  0.00    +0.000 C 
BRANCH  10  11
ATOM     11  C   UNL     1       1.160   2.545  18.819  0.00  0.00    +0.000 C 
BRANCH  11  12
ATOM     12  C   UNL     1       0.867   3.408  20.046  0.00  0.00    +0.000 C 
ATOM     13  C   UNL     1       1.417   2.776  21.314  0.00  0.00    +0.000 C 
ENDBRANCH  11  12
ENDBRANCH  10  11
ENDBRANCH   9  10
ENDBRANCH   4   9
TORSDOF 4
ENDMDL
MODEL 7
REMARK VINA RESULT:      -5.5      2.397      4.487
REMARK  Name = 
REMARK  5 active torsions:
REMARK  status: ('A' for Active; 'I' for Inactive)
REMARK    1  A    between atoms: C_4  and  C_5
REMARK    2  A    between atoms: C_5  and  C_6
REMARK    3  A    between atoms: C_6  and  C_7
REMARK    4  A    between atoms: C_7  and  C_8
REMARK    5  A    between atoms: C_8  and  C_9
REMARK                            x       y       z     vdW  Elec       q    Type
REMARK                         _______ _______ _______ _____ _____    ______ ____
ROOT
ATOM      1  C   UNL     1       2.341   2.749  21.484  0.00  0.00    +0.000 C 
ATOM      2  C   UNL     1       2.623   2.418  20.219  0.00  0.00    +0.000 C 
ATOM      3  C   UNL     1       1.680   2.338  19.060  0.00  0.00    +0.000 C 
ATOM      4  C   UNL     1       2.608   2.187  17.844  0.00  0.00    +0.000 C 
ATOM      5  N   UNL     1       3.898   1.867  18.408  0.00  0.00    +0.000 N 
ATOM      6  C   UNL     1       3.987   2.076  19.757  0.00  0.00    +0.000 C 
ATOM      7  O   UNL     1       4.993   1.991  20.437  0.00  0.00    +0.000 OA
ATOM      8  H   UNL     1       4.733   1.661  17.875  0.00  0.00    +0.000 HD
ENDROOT
BRANCH   4   9
ATOM      9  C   UNL     1       2.669   3.458  16.985  0.00  0.00    +0.000 C 
BRANCH   9  10
ATOM     10  C   UNL     1       3.924   4.285  17.291  0.00  0.00    +0.000 C 
BRANCH  10  11
ATOM     11  C   UNL     1       3.591   5.549  18.080  0.00  0.00    +0.000 C 
BRANCH  11  12
ATOM     12  C   UNL     1       4.399   5.606  19.376  0.00  0.00    +0.000 C 
ATOM     13  C   UNL     1       5.850   5.221  19.143  0.00  0.00    +0.000 C 
ENDBRANCH  11  12
ENDBRANCH  10  11
ENDBRANCH   9  10
ENDBRANCH   4   9
TORSDOF 4
ENDMDL
MODEL 8
REMARK VINA RESULT:      -5.4      2.107      3.367
REMARK  Name = 
REMARK  5 active torsions:
REMARK  status: ('A' for Active; 'I' for Inactive)
REMARK    1  A    between atoms: C_4  and  C_5
REMARK    2  A    between atoms: C_5  and  C_6
REMARK    3  A    between atoms: C_6  and  C_7
REMARK    4  A    between atoms: C_7  and  C_8
REMARK    5  A    between atoms: C_8  and  C_9
REMARK                            x       y       z     vdW  Elec       q    Type
REMARK                         _______ _______ _______ _____ _____    ______ ____
ROOT
ATOM      1  C   UNL     1       7.816   5.934  19.425  0.00  0.00    +0.000 C 
ATOM      2  C   UNL     1       7.610   5.695  18.126  0.00  0.00    +0.000 C 
ATOM      3  C   UNL     1       7.491   4.366  17.447  0.00  0.00    +0.000 C 
ATOM      4  C   UNL     1       6.993   4.720  16.037  0.00  0.00    +0.000 C 
ATOM      5  N   UNL     1       7.187   6.147  15.930  0.00  0.00    +0.000 N 
ATOM      6  C   UNL     1       7.449   6.768  17.120  0.00  0.00    +0.000 C 
ATOM      7  O   UNL     1       7.536   7.968  17.307  0.00  0.00    +0.000 OA
ATOM      8  H   UNL     1       6.997   6.702  15.104  0.00  0.00    +0.000 HD
ENDROOT
BRANCH   4   9
ATOM      9  C   UNL     1       5.523   4.335  15.815  0.00  0.00    +0.000 C 
BRANCH   9  10
ATOM     10  C   UNL     1       4.791   4.113  17.145  0.00  0.00    +0.000 C 
BRANCH  10  11
ATOM     11  C   UNL     1       3.808   5.242  17.446  0.00  0.00    +0.000 C 
BRANCH  11  12
ATOM     12  C   UNL     1       2.439   4.678  17.828  0.00  0.00    +0.000 C 
ATOM     13  C   UNL     1       2.323   3.207  17.466  0.00  0.00    +0.000 C 
ENDBRANCH  11  12
ENDBRANCH  10  11
ENDBRANCH   9  10
ENDBRANCH   4   9
TORSDOF 4
ENDMDL
MODEL 9
REMARK VINA RESULT:      -5.4      1.852      2.678
REMARK  Name = 
REMARK  5 active torsions:
REMARK  status: ('A' for Active; 'I' for Inactive)
REMARK    1  A    between atoms: C_4  and  C_5
REMARK    2  A    between atoms: C_5  and  C_6
REMARK    3  A    between atoms: C_6  and  C_7
REMARK    4  A    between atoms: C_7  and  C_8
REMARK    5  A    between atoms: C_8  and  C_9
REMARK                            x       y       z     vdW  Elec       q    Type
REMARK                         _______ _______ _______ _____ _____    ______ ____
ROOT
ATOM      1  C   UNL     1       7.724   7.424  17.769  0.00  0.00    +0.000 C 
ATOM      2  C   UNL     1       7.146   6.220  17.831  0.00  0.00    +0.000 C 
ATOM      3  C   UNL     1       6.551   5.549  19.030  0.00  0.00    +0.000 C 
ATOM      4  C   UNL     1       5.810   4.339  18.440  0.00  0.00    +0.000 C 
ATOM      5  N   UNL     1       6.298   4.236  17.085  0.00  0.00    +0.000 N 
ATOM      6  C   UNL     1       6.991   5.334  16.655  0.00  0.00    +0.000 C 
ATOM      7  O   UNL     1       7.400   5.535  15.526  0.00  0.00    +0.000 OA
ATOM      8  H   UNL     1       6.041   3.513  16.425  0.00  0.00    +0.000 HD
ENDROOT
BRANCH   4   9
ATOM      9  C   UNL     1       4.284   4.506  18.475  0.00  0.00    +0.000 C 
BRANCH   9  10
ATOM     10  C   UNL     1       3.861   5.626  19.434  0.00  0.00    +0.000 C 
BRANCH  10  11
ATOM     11  C   UNL     1       2.375   5.547  19.778  0.00  0.00    +0.000 C 
BRANCH  11  12
ATOM     12  C   UNL     1       2.138   4.573  20.932  0.00  0.00    +0.000 C 
ATOM     13  C   UNL     1       1.100   3.524  20.570  0.00  0.00    +0.000 C 
ENDBRANCH  11  12
ENDBRANCH  10  11
ENDBRANCH   9  10
ENDBRANCH   4   9
TORSDOF 4
ENDMDL
