MODEL 1
REMARK VINA RESULT:      -7.7      0.000      0.000
REMARK  Name = 
REMARK  2 active torsions:
REMARK  status: ('A' for Active; 'I' for Inactive)
REMARK    1  A    between atoms: C_14  and  C_15
REMARK    2  A    between atoms: C_19  and  C_20
REMARK                            x       y       z     vdW  Elec       q    Type
REMARK                         _______ _______ _______ _____ _____    ______ ____
ROOT
ATOM      1  O   UNL     1       1.947  11.004  18.019  0.00  0.00    +0.000 OA
ATOM      2  C   UNL     1       1.358  10.229  18.779  0.00  0.00    +0.000 C 
ATOM      3  C   UNL     1       1.879   8.847  18.908  0.00  0.00    +0.000 A 
ATOM      4  C   UNL     1       2.549   8.309  17.797  0.00  0.00    +0.000 A 
ATOM      5  C   UNL     1       3.029   7.004  17.838  0.00  0.00    +0.000 A 
ATOM      6  C   UNL     1       2.851   6.241  18.989  0.00  0.00    +0.000 A 
ATOM      7  C   UNL     1       2.188   6.779  20.094  0.00  0.00    +0.000 A 
ATOM      8  C   UNL     1       1.692   8.089  20.067  0.00  0.00    +0.000 A 
ATOM      9  S   UNL     1       0.825   8.655  21.519  0.00  0.00    +0.000 S 
ATOM     10  C   UNL     1       0.528  10.396  21.078  0.00  0.00    +0.000 C 
ATOM     11  C   UNL     1       0.148  10.632  19.610  0.00  0.00    +0.000 C 
ATOM     12  C   UNL     1      -1.077   9.816  19.174  0.00  0.00    +0.000 C 
ATOM     13  O   UNL     1      -1.645  10.279  17.956  0.00  0.00    +0.000 OA
ATOM     14  C   UNL     1      -1.966  11.666  17.976  0.00  0.00    +0.000 C 
ATOM     15  O   UNL     1      -0.812  12.457  18.226  0.00  0.00    +0.000 OA
ATOM     16  C   UNL     1      -0.126  12.134  19.430  0.00  0.00    +0.000 C 
ENDROOT
BRANCH  14  17
ATOM     17  C   UNL     1      -3.177  12.017  18.836  0.00  0.00    +0.000 A 
ATOM     18  C   UNL     1      -3.010  12.637  20.085  0.00  0.00    +0.000 A 
ATOM     19  C   UNL     1      -4.106  12.905  20.905  0.00  0.00    +0.000 A 
ATOM     20  C   UNL     1      -5.386  12.535  20.502  0.00  0.00    +0.000 A 
ATOM     21  C   UNL     1      -5.586  11.889  19.275  0.00  0.00    +0.000 A 
ATOM     22  C   UNL     1      -4.475  11.639  18.450  0.00  0.00    +0.000 A 
BRANCH  21  23
ATOM     23  C   UNL     1      -6.962  11.442  18.847  0.00  0.00    +0.000 C 
ATOM     24  F   UNL     1      -7.501  12.213  17.861  0.00  0.00    +0.000 F 
ATOM     25  F   UNL     1      -6.972  10.166  18.371  0.00  0.00    +0.000 F 
ATOM     26  F   UNL     1      -7.860  11.468  19.871  0.00  0.00    +0.000 F 
ENDBRANCH  21  23
ENDBRANCH  14  17
TORSDOF 2
ENDMDL
MODEL 2
REMARK VINA RESULT:      -7.6      4.242      7.803
REMARK  Name = 
REMARK  2 active torsions:
REMARK  status: ('A' for Active; 'I' for Inactive)
REMARK    1  A    between atoms: C_14  and  C_15
REMARK    2  A    between atoms: C_19  and  C_20
REMARK                            x       y       z     vdW  Elec       q    Type
REMARK                         _______ _______ _______ _____ _____    ______ ____
ROOT
ATOM      1  O   UNL     1      -1.569  13.509  20.292  0.00  0.00    +0.000 OA
ATOM      2  C   UNL     1      -2.096  12.558  19.708  0.00  0.00    +0.000 C 
ATOM      3  C   UNL     1      -3.572  12.428  19.777  0.00  0.00    +0.000 A 
ATOM      4  C   UNL     1      -4.207  12.943  20.917  0.00  0.00    +0.000 A 
ATOM      5  C   UNL     1      -5.585  12.820  21.063  0.00  0.00    +0.000 A 
ATOM      6  C   UNL     1      -6.329  12.194  20.066  0.00  0.00    +0.000 A 
ATOM      7  C   UNL     1      -5.696  11.685  18.930  0.00  0.00    +0.000 A 
ATOM      8  C   UNL     1      -4.308  11.794  18.772  0.00  0.00    +0.000 A 
ATOM      9  S   UNL     1      -3.603  11.070  17.303  0.00  0.00    +0.000 S 
ATOM     10  C   UNL     1      -1.867  11.592  17.468  0.00  0.00    +0.000 C 
ATOM     11  C   UNL     1      -1.312  11.535  18.897  0.00  0.00    +0.000 C 
ATOM     12  C   UNL     1      -1.453  10.147  19.536  0.00  0.00    +0.000 C 
ATOM     13  O   UNL     1      -0.644   9.986  20.694  0.00  0.00    +0.000 OA
ATOM     14  C   UNL     1       0.730  10.279  20.466  0.00  0.00    +0.000 C 
ATOM     15  O   UNL     1       0.904  11.616  20.018  0.00  0.00    +0.000 OA
ATOM     16  C   UNL     1       0.170  11.944  18.844  0.00  0.00    +0.000 C 
ENDROOT
BRANCH  14  17
ATOM     17  C   UNL     1       1.466   9.230  19.635  0.00  0.00    +0.000 A 
ATOM     18  C   UNL     1       1.810   9.490  18.298  0.00  0.00    +0.000 A 
ATOM     19  C   UNL     1       2.426   8.516  17.514  0.00  0.00    +0.000 A 
ATOM     20  C   UNL     1       2.685   7.254  18.044  0.00  0.00    +0.000 A 
ATOM     21  C   UNL     1       2.330   6.951  19.364  0.00  0.00    +0.000 A 
ATOM     22  C   UNL     1       1.724   7.948  20.150  0.00  0.00    +0.000 A 
BRANCH  21  23
ATOM     23  C   UNL     1       2.564   5.575  19.936  0.00  0.00    +0.000 C 
ATOM     24  F   UNL     1       1.993   5.391  21.160  0.00  0.00    +0.000 F 
ATOM     25  F   UNL     1       2.066   4.588  19.140  0.00  0.00    +0.000 F 
ATOM     26  F   UNL     1       3.887   5.295  20.097  0.00  0.00    +0.000 F 
ENDBRANCH  21  23
ENDBRANCH  14  17
TORSDOF 2
ENDMDL
MODEL 3
REMARK VINA RESULT:      -7.4      4.056      7.728
REMARK  Name = 
REMARK  2 active torsions:
REMARK  status: ('A' for Active; 'I' for Inactive)
REMARK    1  A    between atoms: C_14  and  C_15
REMARK    2  A    between atoms: C_19  and  C_20
REMARK                            x       y       z     vdW  Elec       q    Type
REMARK                         _______ _______ _______ _____ _____    ______ ____
ROOT
ATOM      1  O   UNL     1      -1.044  13.236  19.870  0.00  0.00    +0.000 OA
ATOM      2  C   UNL     1      -1.670  12.269  19.426  0.00  0.00    +0.000 C 
ATOM      3  C   UNL     1      -3.150  12.294  19.516  0.00  0.00    +0.000 A 
ATOM      4  C   UNL     1      -3.714  13.022  20.575  0.00  0.00    +0.000 A 
ATOM      5  C   UNL     1      -5.095  13.055  20.741  0.00  0.00    +0.000 A 
ATOM      6  C   UNL     1      -5.912  12.371  19.843  0.00  0.00    +0.000 A 
ATOM      7  C   UNL     1      -5.349  11.650  18.789  0.00  0.00    +0.000 A 
ATOM      8  C   UNL     1      -3.960  11.601  18.612  0.00  0.00    +0.000 A 
ATOM      9  S   UNL     1      -3.351  10.613  17.257  0.00  0.00    +0.000 S 
ATOM     10  C   UNL     1      -1.571  10.982  17.343  0.00  0.00    +0.000 C 
ATOM     11  C   UNL     1      -1.001  11.071  18.765  0.00  0.00    +0.000 C 
ATOM     12  C   UNL     1      -1.264   9.806  19.593  0.00  0.00    +0.000 C 
ATOM     13  O   UNL     1      -0.456   9.730  20.759  0.00  0.00    +0.000 OA
ATOM     14  C   UNL     1       0.937   9.853  20.489  0.00  0.00    +0.000 C 
ATOM     15  O   UNL     1       1.230  11.092  19.857  0.00  0.00    +0.000 OA
ATOM     16  C   UNL     1       0.512  11.323  18.651  0.00  0.00    +0.000 C 
ENDROOT
BRANCH  14  17
ATOM     17  C   UNL     1       1.555   8.632  19.812  0.00  0.00    +0.000 A 
ATOM     18  C   UNL     1       2.095   8.730  18.519  0.00  0.00    +0.000 A 
ATOM     19  C   UNL     1       2.605   7.606  17.868  0.00  0.00    +0.000 A 
ATOM     20  C   UNL     1       2.560   6.360  18.488  0.00  0.00    +0.000 A 
ATOM     21  C   UNL     1       2.002   6.222  19.765  0.00  0.00    +0.000 A 
ATOM     22  C   UNL     1       1.506   7.365  20.418  0.00  0.00    +0.000 A 
BRANCH  21  23
ATOM     23  C   UNL     1       1.906   4.870  20.429  0.00  0.00    +0.000 C 
ATOM     24  F   UNL     1       2.574   3.889  19.760  0.00  0.00    +0.000 F 
ATOM     25  F   UNL     1       2.414   4.872  21.693  0.00  0.00    +0.000 F 
ATOM     26  F   UNL     1       0.621   4.435  20.542  0.00  0.00    +0.000 F 
ENDBRANCH  21  23
ENDBRANCH  14  17
TORSDOF 2
ENDMDL
MODEL 4
REMARK VINA RESULT:      -7.4      4.430      7.942
REMARK  Name = 
REMARK  2 active torsions:
REMARK  status: ('A' for Active; 'I' for Inactive)
REMARK    1  A    between atoms: C_14  and  C_15
REMARK    2  A    between atoms: C_19  and  C_20
REMARK                            x       y       z     vdW  Elec       q    Type
REMARK                         _______ _______ _______ _____ _____    ______ ____
ROOT
ATOM      1  O   UNL     1      -0.155  12.445  22.358  0.00  0.00    +0.000 OA
ATOM      2  C   UNL     1      -0.790  11.938  21.429  0.00  0.00    +0.000 C 
ATOM      3  C   UNL     1      -2.213  12.323  21.265  0.00  0.00    +0.000 A 
ATOM      4  C   UNL     1      -2.913  12.696  22.423  0.00  0.00    +0.000 A 
ATOM      5  C   UNL     1      -4.261  13.031  22.347  0.00  0.00    +0.000 A 
ATOM      6  C   UNL     1      -4.906  13.004  21.113  0.00  0.00    +0.000 A 
ATOM      7  C   UNL     1      -4.208  12.636  19.961  0.00  0.00    +0.000 A 
ATOM      8  C   UNL     1      -2.852  12.289  20.023  0.00  0.00    +0.000 A 
ATOM      9  S   UNL     1      -2.075  11.793  18.496  0.00  0.00    +0.000 S 
ATOM     10  C   UNL     1      -0.349  11.604  19.042  0.00  0.00    +0.000 C 
ATOM     11  C   UNL     1      -0.178  10.968  20.428  0.00  0.00    +0.000 C 
ATOM     12  C   UNL     1      -0.865   9.600  20.544  0.00  0.00    +0.000 C 
ATOM     13  O   UNL     1      -0.428   8.855  21.672  0.00  0.00    +0.000 OA
ATOM     14  C   UNL     1       0.986   8.696  21.729  0.00  0.00    +0.000 C 
ATOM     15  O   UNL     1       1.644   9.955  21.779  0.00  0.00    +0.000 OA
ATOM     16  C   UNL     1       1.329  10.827  20.700  0.00  0.00    +0.000 C 
ENDROOT
BRANCH  14  17
ATOM     17  C   UNL     1       1.550   7.725  20.694  0.00  0.00    +0.000 A 
ATOM     18  C   UNL     1       2.041   8.196  19.466  0.00  0.00    +0.000 A 
ATOM     19  C   UNL     1       2.501   7.311  18.490  0.00  0.00    +0.000 A 
ATOM     20  C   UNL     1       2.452   5.938  18.716  0.00  0.00    +0.000 A 
ATOM     21  C   UNL     1       1.941   5.432  19.918  0.00  0.00    +0.000 A 
ATOM     22  C   UNL     1       1.496   6.335  20.900  0.00  0.00    +0.000 A 
BRANCH  21  23
ATOM     23  C   UNL     1       1.840   3.946  20.155  0.00  0.00    +0.000 C 
ATOM     24  F   UNL     1       1.730   3.613  21.472  0.00  0.00    +0.000 F 
ATOM     25  F   UNL     1       0.760   3.390  19.539  0.00  0.00    +0.000 F 
ATOM     26  F   UNL     1       2.927   3.269  19.690  0.00  0.00    +0.000 F 
ENDBRANCH  21  23
ENDBRANCH  14  17
TORSDOF 2
ENDMDL
MODEL 5
REMARK VINA RESULT:      -7.3      4.637      8.018
REMARK  Name = 
REMARK  2 active torsions:
REMARK  status: ('A' for Active; 'I' for Inactive)
REMARK    1  A    between atoms: C_14  and  C_15
REMARK    2  A    between atoms: C_19  and  C_20
REMARK                            x       y       z     vdW  Elec       q    Type
REMARK                         _______ _______ _______ _____ _____    ______ ____
ROOT
ATOM      1  O   UNL     1      -0.318  12.044  23.053  0.00  0.00    +0.000 OA
ATOM      2  C   UNL     1      -0.849  11.791  21.967  0.00  0.00    +0.000 C 
ATOM      3  C   UNL     1      -2.245  12.243  21.751  0.00  0.00    +0.000 A 
ATOM      4  C   UNL     1      -3.066  12.349  22.884  0.00  0.00    +0.000 A 
ATOM      5  C   UNL     1      -4.397  12.730  22.748  0.00  0.00    +0.000 A 
ATOM      6  C   UNL     1      -4.904  13.016  21.483  0.00  0.00    +0.000 A 
ATOM      7  C   UNL     1      -4.085  12.914  20.357  0.00  0.00    +0.000 A 
ATOM      8  C   UNL     1      -2.744  12.524  20.476  0.00  0.00    +0.000 A 
ATOM      9  S   UNL     1      -1.805  12.385  18.967  0.00  0.00    +0.000 S 
ATOM     10  C   UNL     1      -0.149  12.023  19.631  0.00  0.00    +0.000 C 
ATOM     11  C   UNL     1      -0.133  11.071  20.833  0.00  0.00    +0.000 C 
ATOM     12  C   UNL     1      -0.831   9.735  20.544  0.00  0.00    +0.000 C 
ATOM     13  O   UNL     1      -0.521   8.730  21.501  0.00  0.00    +0.000 OA
ATOM     14  C   UNL     1       0.878   8.523  21.667  0.00  0.00    +0.000 C 
ATOM     15  O   UNL     1       1.529   9.714  22.087  0.00  0.00    +0.000 OA
ATOM     16  C   UNL     1       1.335  10.827  21.222  0.00  0.00    +0.000 C 
ENDROOT
BRANCH  14  17
ATOM     17  C   UNL     1       1.550   7.810  20.495  0.00  0.00    +0.000 A 
ATOM     18  C   UNL     1       1.894   8.518  19.332  0.00  0.00    +0.000 A 
ATOM     19  C   UNL     1       2.451   7.864  18.233  0.00  0.00    +0.000 A 
ATOM     20  C   UNL     1       2.649   6.486  18.268  0.00  0.00    +0.000 A 
ATOM     21  C   UNL     1       2.291   5.745  19.401  0.00  0.00    +0.000 A 
ATOM     22  C   UNL     1       1.746   6.419  20.509  0.00  0.00    +0.000 A 
BRANCH  21  23
ATOM     23  C   UNL     1       2.459   4.246  19.435  0.00  0.00    +0.000 C 
ATOM     24  F   UNL     1       2.356   3.661  18.208  0.00  0.00    +0.000 F 
ATOM     25  F   UNL     1       3.671   3.867  19.927  0.00  0.00    +0.000 F 
ATOM     26  F   UNL     1       1.528   3.634  20.217  0.00  0.00    +0.000 F 
ENDBRANCH  21  23
ENDBRANCH  14  17
TORSDOF 2
ENDMDL
MODEL 6
REMARK VINA RESULT:      -7.2      8.611     11.191
REMARK  Name = 
REMARK  2 active torsions:
REMARK  status: ('A' for Active; 'I' for Inactive)
REMARK    1  A    between atoms: C_14  and  C_15
REMARK    2  A    between atoms: C_19  and  C_20
REMARK                            x       y       z     vdW  Elec       q    Type
REMARK                         _______ _______ _______ _____ _____    ______ ____
ROOT
ATOM      1  O   UNL     1       5.950   4.852  19.700  0.00  0.00    +0.000 OA
ATOM      2  C   UNL     1       4.932   4.838  19.000  0.00  0.00    +0.000 C 
ATOM      3  C   UNL     1       3.649   4.462  19.642  0.00  0.00    +0.000 A 
ATOM      4  C   UNL     1       3.714   3.590  20.739  0.00  0.00    +0.000 A 
ATOM      5  C   UNL     1       2.545   3.167  21.363  0.00  0.00    +0.000 A 
ATOM      6  C   UNL     1       1.314   3.623  20.899  0.00  0.00    +0.000 A 
ATOM      7  C   UNL     1       1.251   4.494  19.809  0.00  0.00    +0.000 A 
ATOM      8  C   UNL     1       2.419   4.924  19.165  0.00  0.00    +0.000 A 
ATOM      9  S   UNL     1       2.216   6.000  17.758  0.00  0.00    +0.000 S 
ATOM     10  C   UNL     1       3.953   6.395  17.381  0.00  0.00    +0.000 C 
ATOM     11  C   UNL     1       4.926   5.217  17.525  0.00  0.00    +0.000 C 
ATOM     12  C   UNL     1       4.521   4.003  16.679  0.00  0.00    +0.000 C 
ATOM     13  O   UNL     1       5.572   3.059  16.525  0.00  0.00    +0.000 OA
ATOM     14  C   UNL     1       6.772   3.631  16.014  0.00  0.00    +0.000 C 
ATOM     15  O   UNL     1       7.255   4.661  16.866  0.00  0.00    +0.000 OA
ATOM     16  C   UNL     1       6.323   5.707  17.112  0.00  0.00    +0.000 C 
ENDROOT
BRANCH  14  17
ATOM     17  C   UNL     1       6.707   4.007  14.536  0.00  0.00    +0.000 A 
ATOM     18  C   UNL     1       7.554   4.999  14.014  0.00  0.00    +0.000 A 
ATOM     19  C   UNL     1       7.458   5.393  12.679  0.00  0.00    +0.000 A 
ATOM     20  C   UNL     1       6.497   4.821  11.849  0.00  0.00    +0.000 A 
ATOM     21  C   UNL     1       5.618   3.850  12.345  0.00  0.00    +0.000 A 
ATOM     22  C   UNL     1       5.734   3.449  13.688  0.00  0.00    +0.000 A 
BRANCH  21  23
ATOM     23  C   UNL     1       4.542   3.256  11.468  0.00  0.00    +0.000 C 
ATOM     24  F   UNL     1       4.202   4.049  10.414  0.00  0.00    +0.000 F 
ATOM     25  F   UNL     1       4.909   2.059  10.932  0.00  0.00    +0.000 F 
ATOM     26  F   UNL     1       3.385   3.024  12.148  0.00  0.00    +0.000 F 
ENDBRANCH  21  23
ENDBRANCH  14  17
TORSDOF 2
ENDMDL
MODEL 7
REMARK VINA RESULT:      -7.1      1.784      2.371
REMARK  Name = 
REMARK  2 active torsions:
REMARK  status: ('A' for Active; 'I' for Inactive)
REMARK    1  A    between atoms: C_14  and  C_15
REMARK    2  A    between atoms: C_19  and  C_20
REMARK                            x       y       z     vdW  Elec       q    Type
REMARK                         _______ _______ _______ _____ _____    ______ ____
ROOT
ATOM      1  O   UNL     1       1.913  11.136  18.065  0.00  0.00    +0.000 OA
ATOM      2  C   UNL     1       1.321  10.307  18.762  0.00  0.00    +0.000 C 
ATOM      3  C   UNL     1       1.891   8.941  18.857  0.00  0.00    +0.000 A 
ATOM      4  C   UNL     1       2.632   8.479  17.758  0.00  0.00    +0.000 A 
ATOM      5  C   UNL     1       3.162   7.193  17.766  0.00  0.00    +0.000 A 
ATOM      6  C   UNL     1       2.962   6.373  18.874  0.00  0.00    +0.000 A 
ATOM      7  C   UNL     1       2.228   6.836  19.968  0.00  0.00    +0.000 A 
ATOM      8  C   UNL     1       1.681   8.126  19.973  0.00  0.00    +0.000 A 
ATOM      9  S   UNL     1       0.725   8.594  21.404  0.00  0.00    +0.000 S 
ATOM     10  C   UNL     1       0.379  10.340  21.024  0.00  0.00    +0.000 C 
ATOM     11  C   UNL     1       0.058  10.625  19.551  0.00  0.00    +0.000 C 
ATOM     12  C   UNL     1      -1.111   9.784  19.022  0.00  0.00    +0.000 C 
ATOM     13  O   UNL     1      -1.640  10.278  17.799  0.00  0.00    +0.000 OA
ATOM     14  C   UNL     1      -2.017  11.649  17.862  0.00  0.00    +0.000 C 
ATOM     15  O   UNL     1      -0.909  12.473  18.201  0.00  0.00    +0.000 OA
ATOM     16  C   UNL     1      -0.267  12.123  19.422  0.00  0.00    +0.000 C 
ENDROOT
BRANCH  14  17
ATOM     17  C   UNL     1      -3.280  11.916  18.678  0.00  0.00    +0.000 A 
ATOM     18  C   UNL     1      -4.551  11.720  18.111  0.00  0.00    +0.000 A 
ATOM     19  C   UNL     1      -5.709  12.020  18.827  0.00  0.00    +0.000 A 
ATOM     20  C   UNL     1      -5.618  12.547  20.113  0.00  0.00    +0.000 A 
ATOM     21  C   UNL     1      -4.367  12.781  20.698  0.00  0.00    +0.000 A 
ATOM     22  C   UNL     1      -3.207  12.459  19.972  0.00  0.00    +0.000 A 
BRANCH  21  23
ATOM     23  C   UNL     1      -4.255  13.393  22.073  0.00  0.00    +0.000 C 
ATOM     24  F   UNL     1      -3.557  14.563  22.091  0.00  0.00    +0.000 F 
ATOM     25  F   UNL     1      -5.470  13.675  22.619  0.00  0.00    +0.000 F 
ATOM     26  F   UNL     1      -3.626  12.572  22.959  0.00  0.00    +0.000 F 
ENDBRANCH  21  23
ENDBRANCH  14  17
TORSDOF 2
ENDMDL
MODEL 8
REMARK VINA RESULT:      -7.0      4.776      7.500
REMARK  Name = 
REMARK  2 active torsions:
REMARK  status: ('A' for Active; 'I' for Inactive)
REMARK    1  A    between atoms: C_14  and  C_15
REMARK    2  A    between atoms: C_19  and  C_20
REMARK                            x       y       z     vdW  Elec       q    Type
REMARK                         _______ _______ _______ _____ _____    ______ ____
ROOT
ATOM      1  O   UNL     1      -1.039  15.788  20.568  0.00  0.00    +0.000 OA
ATOM      2  C   UNL     1      -0.028  15.455  19.943  0.00  0.00    +0.000 C 
ATOM      3  C   UNL     1       0.461  16.359  18.874  0.00  0.00    +0.000 A 
ATOM      4  C   UNL     1      -0.494  17.152  18.220  0.00  0.00    +0.000 A 
ATOM      5  C   UNL     1      -0.109  17.994  17.181  0.00  0.00    +0.000 A 
ATOM      6  C   UNL     1       1.231  18.051  16.804  0.00  0.00    +0.000 A 
ATOM      7  C   UNL     1       2.180  17.264  17.458  0.00  0.00    +0.000 A 
ATOM      8  C   UNL     1       1.807  16.405  18.501  0.00  0.00    +0.000 A 
ATOM      9  S   UNL     1       3.097  15.415  19.233  0.00  0.00    +0.000 S 
ATOM     10  C   UNL     1       2.182  14.620  20.591  0.00  0.00    +0.000 C 
ATOM     11  C   UNL     1       0.755  14.182  20.235  0.00  0.00    +0.000 C 
ATOM     12  C   UNL     1       0.704  13.249  19.018  0.00  0.00    +0.000 C 
ATOM     13  O   UNL     1      -0.536  12.566  18.896  0.00  0.00    +0.000 OA
ATOM     14  C   UNL     1      -0.905  11.853  20.071  0.00  0.00    +0.000 C 
ATOM     15  O   UNL     1      -1.016  12.725  21.188  0.00  0.00    +0.000 OA
ATOM     16  C   UNL     1       0.157  13.479  21.466  0.00  0.00    +0.000 C 
ENDROOT
BRANCH  14  17
ATOM     17  C   UNL     1      -0.079  10.595  20.327  0.00  0.00    +0.000 A 
ATOM     18  C   UNL     1       0.159  10.151  21.638  0.00  0.00    +0.000 A 
ATOM     19  C   UNL     1       0.964   9.039  21.883  0.00  0.00    +0.000 A 
ATOM     20  C   UNL     1       1.567   8.366  20.823  0.00  0.00    +0.000 A 
ATOM     21  C   UNL     1       1.373   8.798  19.505  0.00  0.00    +0.000 A 
ATOM     22  C   UNL     1       0.546   9.911  19.270  0.00  0.00    +0.000 A 
BRANCH  21  23
ATOM     23  C   UNL     1       2.057   8.105  18.352  0.00  0.00    +0.000 C 
ATOM     24  F   UNL     1       3.280   8.627  18.053  0.00  0.00    +0.000 F 
ATOM     25  F   UNL     1       2.264   6.780  18.588  0.00  0.00    +0.000 F 
ATOM     26  F   UNL     1       1.333   8.173  17.200  0.00  0.00    +0.000 F 
ENDBRANCH  21  23
ENDBRANCH  14  17
TORSDOF 2
ENDMDL
MODEL 9
REMARK VINA RESULT:      -7.0      1.629      2.207
REMARK  Name = 
REMARK  2 active torsions:
REMARK  status: ('A' for Active; 'I' for Inactive)
REMARK    1  A    between atoms: C_14  and  C_15
REMARK    2  A    between atoms: C_19  and  C_20
REMARK                            x       y       z     vdW  Elec       q    Type
REMARK                         _______ _______ _______ _____ _____    ______ ____
ROOT
ATOM      1  O   UNL     1       1.197  11.537  18.238  0.00  0.00    +0.000 OA
ATOM      2  C   UNL     1       0.696  10.597  18.860  0.00  0.00    +0.000 C 
ATOM      3  C   UNL     1       1.451   9.322  18.928  0.00  0.00    +0.000 A 
ATOM      4  C   UNL     1       2.308   9.029  17.855  0.00  0.00    +0.000 A 
ATOM      5  C   UNL     1       3.017   7.832  17.836  0.00  0.00    +0.000 A 
ATOM      6  C   UNL     1       2.879   6.935  18.893  0.00  0.00    +0.000 A 
ATOM      7  C   UNL     1       2.030   7.230  19.960  0.00  0.00    +0.000 A 
ATOM      8  C   UNL     1       1.303   8.428  19.991  0.00  0.00    +0.000 A 
ATOM      9  S   UNL     1       0.216   8.678  21.382  0.00  0.00    +0.000 S 
ATOM     10  C   UNL     1      -0.358  10.375  21.061  0.00  0.00    +0.000 C 
ATOM     11  C   UNL     1      -0.640  10.691  19.587  0.00  0.00    +0.000 C 
ATOM     12  C   UNL     1      -1.645   9.721  18.952  0.00  0.00    +0.000 C 
ATOM     13  O   UNL     1      -2.176  10.200  17.723  0.00  0.00    +0.000 OA
ATOM     14  C   UNL     1      -2.750  11.499  17.825  0.00  0.00    +0.000 C 
ATOM     15  O   UNL     1      -1.792  12.451  18.266  0.00  0.00    +0.000 OA
ATOM     16  C   UNL     1      -1.171  12.132  19.506  0.00  0.00    +0.000 C 
ENDROOT
BRANCH  14  17
ATOM     17  C   UNL     1      -4.079  11.540  18.575  0.00  0.00    +0.000 A 
ATOM     18  C   UNL     1      -5.197  10.845  18.085  0.00  0.00    +0.000 A 
ATOM     19  C   UNL     1      -6.431  10.927  18.730  0.00  0.00    +0.000 A 
ATOM     20  C   UNL     1      -6.576  11.727  19.860  0.00  0.00    +0.000 A 
ATOM     21  C   UNL     1      -5.490  12.456  20.359  0.00  0.00    +0.000 A 
ATOM     22  C   UNL     1      -4.246  12.352  19.710  0.00  0.00    +0.000 A 
BRANCH  21  23
ATOM     23  C   UNL     1      -5.645  13.361  21.556  0.00  0.00    +0.000 C 
ATOM     24  F   UNL     1      -5.600  12.700  22.747  0.00  0.00    +0.000 F 
ATOM     25  F   UNL     1      -4.672  14.312  21.621  0.00  0.00    +0.000 F 
ATOM     26  F   UNL     1      -6.828  14.035  21.550  0.00  0.00    +0.000 F 
ENDBRANCH  21  23
ENDBRANCH  14  17
TORSDOF 2
ENDMDL
