MODEL 1
REMARK VINA RESULT:      -7.5      0.000      0.000
REMARK  Name = 
REMARK  7 active torsions:
REMARK  status: ('A' for Active; 'I' for Inactive)
REMARK    1  A    between atoms: C_1  and  C_2
REMARK    2  A    between atoms: C_2  and  C_3
REMARK    3  A    between atoms: C_7  and  C_8
REMARK    4  A    between atoms: C_9  and  N_10
REMARK    5  A    between atoms: N_10  and  C_11
REMARK    6  A    between atoms: C_12  and  C_13
REMARK    7  A    between atoms: C_17  and  O_18
REMARK                            x       y       z     vdW  Elec       q    Type
REMARK                         _______ _______ _______ _____ _____    ______ ____
ROOT
ATOM      1  C   UNL     1       2.824   6.925  18.411  0.00  0.00    +0.000 A 
ATOM      2  C   UNL     1       2.447   6.244  19.584  0.00  0.00    +0.000 A 
ATOM      3  N   UNL     1       1.795   7.090  20.476  0.00  0.00    +0.000 NA
ATOM      4  C   UNL     1       1.748   8.222  19.835  0.00  0.00    +0.000 A 
ATOM      5  S   UNL     1       0.964   9.742  20.142  0.00  0.00    +0.000 S 
ATOM      6  C   UNL     1       1.436  10.268  18.521  0.00  0.00    +0.000 A 
ATOM      7  C   UNL     1       2.140   9.340  17.853  0.00  0.00    +0.000 A 
ATOM      8  N   UNL     1       2.317   8.191  18.595  0.00  0.00    +0.000 N 
ENDROOT
BRANCH   2   9
ATOM      9  C   UNL     1       2.583   4.816  19.857  0.00  0.00    +0.000 A 
ATOM     10  C   UNL     1       1.423   4.032  19.994  0.00  0.00    +0.000 A 
ATOM     11  C   UNL     1       1.502   2.644  20.150  0.00  0.00    +0.000 A 
ATOM     12  C   UNL     1       2.746   2.017  20.176  0.00  0.00    +0.000 A 
ATOM     13  C   UNL     1       3.896   2.792  20.085  0.00  0.00    +0.000 A 
ATOM     14  C   UNL     1       3.824   4.177  19.948  0.00  0.00    +0.000 A 
BRANCH  13  15
ATOM     15  O   UNL     1       5.136   2.226  20.116  0.00  0.00    +0.000 OA
ATOM     16  H   UNL     1       5.264   1.715  19.300  0.00  0.00    +0.000 HD
ENDBRANCH  13  15
ENDBRANCH   2   9
BRANCH   1  17
ATOM     17  N   UNL     1       3.356   6.470  17.244  0.00  0.00    +0.000 N 
ATOM     18  H   UNL     1       2.843   6.705  16.398  0.00  0.00    +0.000 HD
BRANCH  17  25
ATOM     19  C   UNL     1       5.851   6.391  16.968  0.00  0.00    +0.000 A 
ATOM     20  C   UNL     1       6.973   5.612  16.601  0.00  0.00    +0.000 A 
ATOM     21  C   UNL     1       6.852   4.278  16.229  0.00  0.00    +0.000 A 
ATOM     22  C   UNL     1       5.605   3.678  16.242  0.00  0.00    +0.000 A 
ATOM     23  C   UNL     1       4.464   4.412  16.600  0.00  0.00    +0.000 A 
ATOM     24  C   UNL     1       3.143   3.680  16.606  0.00  0.00    +0.000 C 
ATOM     25  C   UNL     1       4.565   5.792  16.951  0.00  0.00    +0.000 A 
BRANCH  19  27
ATOM     26  C   UNL     1       7.632   8.130  17.601  0.00  0.00    +0.000 C 
ATOM     27  C   UNL     1       6.148   7.762  17.551  0.00  0.00    +0.000 C 
ENDBRANCH  19  27
ENDBRANCH  17  25
ENDBRANCH   1  17
TORSDOF 5
ENDMDL
MODEL 2
REMARK VINA RESULT:      -7.3      3.612      6.308
REMARK  Name = 
REMARK  7 active torsions:
REMARK  status: ('A' for Active; 'I' for Inactive)
REMARK    1  A    between atoms: C_1  and  C_2
REMARK    2  A    between atoms: C_2  and  C_3
REMARK    3  A    between atoms: C_7  and  C_8
REMARK    4  A    between atoms: C_9  and  N_10
REMARK    5  A    between atoms: N_10  and  C_11
REMARK    6  A    between atoms: C_12  and  C_13
REMARK    7  A    between atoms: C_17  and  O_18
REMARK                            x       y       z     vdW  Elec       q    Type
REMARK                         _______ _______ _______ _____ _____    ______ ____
ROOT
ATOM      1  C   UNL     1       5.416   4.398  15.338  0.00  0.00    +0.000 A 
ATOM      2  C   UNL     1       6.705   4.882  15.631  0.00  0.00    +0.000 A 
ATOM      3  N   UNL     1       7.580   4.675  14.568  0.00  0.00    +0.000 NA
ATOM      4  C   UNL     1       6.824   4.128  13.660  0.00  0.00    +0.000 A 
ATOM      5  S   UNL     1       7.066   3.714  11.990  0.00  0.00    +0.000 S 
ATOM      6  C   UNL     1       5.341   3.342  11.874  0.00  0.00    +0.000 A 
ATOM      7  C   UNL     1       4.687   3.516  13.034  0.00  0.00    +0.000 A 
ATOM      8  N   UNL     1       5.524   3.956  14.038  0.00  0.00    +0.000 N 
ENDROOT
BRANCH   2   9
ATOM      9  C   UNL     1       7.121   5.617  16.822  0.00  0.00    +0.000 A 
ATOM     10  C   UNL     1       7.392   4.907  18.004  0.00  0.00    +0.000 A 
ATOM     11  C   UNL     1       7.895   5.555  19.138  0.00  0.00    +0.000 A 
ATOM     12  C   UNL     1       8.131   6.927  19.107  0.00  0.00    +0.000 A 
ATOM     13  C   UNL     1       7.824   7.641  17.955  0.00  0.00    +0.000 A 
ATOM     14  C   UNL     1       7.305   7.004  16.829  0.00  0.00    +0.000 A 
BRANCH  13  15
ATOM     15  O   UNL     1       8.027   8.987  17.880  0.00  0.00    +0.000 OA
ATOM     16  H   UNL     1       7.249   9.395  17.465  0.00  0.00    +0.000 HD
ENDBRANCH  13  15
ENDBRANCH   2   9
BRANCH   1  17
ATOM     17  N   UNL     1       4.244   4.504  16.020  0.00  0.00    +0.000 N 
ATOM     18  H   UNL     1       3.395   4.399  15.469  0.00  0.00    +0.000 HD
BRANCH  17  25
ATOM     19  C   UNL     1       3.863   5.884  18.083  0.00  0.00    +0.000 A 
ATOM     20  C   UNL     1       3.622   5.880  19.477  0.00  0.00    +0.000 A 
ATOM     21  C   UNL     1       3.469   4.699  20.194  0.00  0.00    +0.000 A 
ATOM     22  C   UNL     1       3.526   3.486  19.528  0.00  0.00    +0.000 A 
ATOM     23  C   UNL     1       3.762   3.442  18.145  0.00  0.00    +0.000 A 
ATOM     24  C   UNL     1       3.792   2.082  17.491  0.00  0.00    +0.000 C 
ATOM     25  C   UNL     1       3.956   4.644  17.400  0.00  0.00    +0.000 A 
BRANCH  19  27
ATOM     26  C   UNL     1       2.637   8.127  17.838  0.00  0.00    +0.000 C 
ATOM     27  C   UNL     1       3.799   7.237  17.395  0.00  0.00    +0.000 C 
ENDBRANCH  19  27
ENDBRANCH  17  25
ENDBRANCH   1  17
TORSDOF 5
ENDMDL
MODEL 3
REMARK VINA RESULT:      -7.3      3.371      6.202
REMARK  Name = 
REMARK  7 active torsions:
REMARK  status: ('A' for Active; 'I' for Inactive)
REMARK    1  A    between atoms: C_1  and  C_2
REMARK    2  A    between atoms: C_2  and  C_3
REMARK    3  A    between atoms: C_7  and  C_8
REMARK    4  A    between atoms: C_9  and  N_10
REMARK    5  A    between atoms: N_10  and  C_11
REMARK    6  A    between atoms: C_12  and  C_13
REMARK    7  A    between atoms: C_17  and  O_18
REMARK                            x       y       z     vdW  Elec       q    Type
REMARK                         _______ _______ _______ _____ _____    ______ ____
ROOT
ATOM      1  C   UNL     1       5.467   4.442  15.321  0.00  0.00    +0.000 A 
ATOM      2  C   UNL     1       6.773   4.895  15.585  0.00  0.00    +0.000 A 
ATOM      3  N   UNL     1       7.627   4.636  14.517  0.00  0.00    +0.000 NA
ATOM      4  C   UNL     1       6.843   4.088  13.633  0.00  0.00    +0.000 A 
ATOM      5  S   UNL     1       7.050   3.624  11.972  0.00  0.00    +0.000 S 
ATOM      6  C   UNL     1       5.314   3.300  11.887  0.00  0.00    +0.000 A 
ATOM      7  C   UNL     1       4.682   3.523  13.052  0.00  0.00    +0.000 A 
ATOM      8  N   UNL     1       5.545   3.964  14.033  0.00  0.00    +0.000 N 
ENDROOT
BRANCH   2   9
ATOM      9  C   UNL     1       7.227   5.649  16.751  0.00  0.00    +0.000 A 
ATOM     10  C   UNL     1       7.389   7.042  16.644  0.00  0.00    +0.000 A 
ATOM     11  C   UNL     1       7.718   7.819  17.760  0.00  0.00    +0.000 A 
ATOM     12  C   UNL     1       7.894   7.214  19.002  0.00  0.00    +0.000 A 
ATOM     13  C   UNL     1       7.778   5.832  19.104  0.00  0.00    +0.000 A 
ATOM     14  C   UNL     1       7.469   5.051  17.992  0.00  0.00    +0.000 A 
BRANCH  13  15
ATOM     15  O   UNL     1       7.952   5.192  20.295  0.00  0.00    +0.000 OA
ATOM     16  H   UNL     1       7.799   5.828  21.013  0.00  0.00    +0.000 HD
ENDBRANCH  13  15
ENDBRANCH   2   9
BRANCH   1  17
ATOM     17  N   UNL     1       4.308   4.600  16.016  0.00  0.00    +0.000 N 
ATOM     18  H   UNL     1       3.452   4.574  15.468  0.00  0.00    +0.000 HD
BRANCH  17  25
ATOM     19  C   UNL     1       3.949   5.927  18.118  0.00  0.00    +0.000 A 
ATOM     20  C   UNL     1       3.726   5.887  19.514  0.00  0.00    +0.000 A 
ATOM     21  C   UNL     1       3.585   4.687  20.202  0.00  0.00    +0.000 A 
ATOM     22  C   UNL     1       3.636   3.492  19.506  0.00  0.00    +0.000 A 
ATOM     23  C   UNL     1       3.855   3.484  18.120  0.00  0.00    +0.000 A 
ATOM     24  C   UNL     1       3.880   2.140  17.431  0.00  0.00    +0.000 C 
ATOM     25  C   UNL     1       4.037   4.704  17.403  0.00  0.00    +0.000 A 
BRANCH  19  27
ATOM     26  C   UNL     1       2.665   8.137  17.878  0.00  0.00    +0.000 C 
ATOM     27  C   UNL     1       3.873   7.296  17.465  0.00  0.00    +0.000 C 
ENDBRANCH  19  27
ENDBRANCH  17  25
ENDBRANCH   1  17
TORSDOF 5
ENDMDL
MODEL 4
REMARK VINA RESULT:      -7.1      2.696      5.192
REMARK  Name = 
REMARK  7 active torsions:
REMARK  status: ('A' for Active; 'I' for Inactive)
REMARK    1  A    between atoms: C_1  and  C_2
REMARK    2  A    between atoms: C_2  and  C_3
REMARK    3  A    between atoms: C_7  and  C_8
REMARK    4  A    between atoms: C_9  and  N_10
REMARK    5  A    between atoms: N_10  and  C_11
REMARK    6  A    between atoms: C_12  and  C_13
REMARK    7  A    between atoms: C_17  and  O_18
REMARK                            x       y       z     vdW  Elec       q    Type
REMARK                         _______ _______ _______ _____ _____    ______ ____
ROOT
ATOM      1  C   UNL     1       3.457   5.243  19.485  0.00  0.00    +0.000 A 
ATOM      2  C   UNL     1       2.316   6.001  19.809  0.00  0.00    +0.000 A 
ATOM      3  N   UNL     1       1.436   5.279  20.608  0.00  0.00    +0.000 NA
ATOM      4  C   UNL     1       2.054   4.147  20.788  0.00  0.00    +0.000 A 
ATOM      5  S   UNL     1       1.749   2.760  21.789  0.00  0.00    +0.000 S 
ATOM      6  C   UNL     1       3.336   2.130  21.332  0.00  0.00    +0.000 A 
ATOM      7  C   UNL     1       3.993   2.933  20.478  0.00  0.00    +0.000 A 
ATOM      8  N   UNL     1       3.268   4.065  20.172  0.00  0.00    +0.000 N 
ENDROOT
BRANCH   2   9
ATOM      9  C   UNL     1       2.068   7.403  19.485  0.00  0.00    +0.000 A 
ATOM     10  C   UNL     1       2.349   7.866  18.187  0.00  0.00    +0.000 A 
ATOM     11  C   UNL     1       2.029   9.171  17.800  0.00  0.00    +0.000 A 
ATOM     12  C   UNL     1       1.424  10.038  18.707  0.00  0.00    +0.000 A 
ATOM     13  C   UNL     1       1.185   9.600  20.004  0.00  0.00    +0.000 A 
ATOM     14  C   UNL     1       1.518   8.306  20.402  0.00  0.00    +0.000 A 
BRANCH  13  15
ATOM     15  O   UNL     1       0.605  10.414  20.932  0.00  0.00    +0.000 OA
ATOM     16  H   UNL     1      -0.166  10.845  20.528  0.00  0.00    +0.000 HD
ENDBRANCH  13  15
ENDBRANCH   2   9
BRANCH   1  17
ATOM     17  N   UNL     1       4.609   5.588  18.848  0.00  0.00    +0.000 N 
ATOM     18  H   UNL     1       5.212   6.243  19.340  0.00  0.00    +0.000 HD
BRANCH  17  25
ATOM     19  C   UNL     1       4.579   4.261  16.716  0.00  0.00    +0.000 A 
ATOM     20  C   UNL     1       5.306   3.844  15.576  0.00  0.00    +0.000 A 
ATOM     21  C   UNL     1       6.607   4.271  15.337  0.00  0.00    +0.000 A 
ATOM     22  C   UNL     1       7.209   5.151  16.220  0.00  0.00    +0.000 A 
ATOM     23  C   UNL     1       6.526   5.591  17.364  0.00  0.00    +0.000 A 
ATOM     24  C   UNL     1       7.244   6.564  18.268  0.00  0.00    +0.000 C 
ATOM     25  C   UNL     1       5.202   5.136  17.643  0.00  0.00    +0.000 A 
BRANCH  19  27
ATOM     26  C   UNL     1       2.816   2.446  17.150  0.00  0.00    +0.000 C 
ATOM     27  C   UNL     1       3.106   3.891  16.745  0.00  0.00    +0.000 C 
ENDBRANCH  19  27
ENDBRANCH  17  25
ENDBRANCH   1  17
TORSDOF 5
ENDMDL
MODEL 5
REMARK VINA RESULT:      -7.1      2.652      4.600
REMARK  Name = 
REMARK  7 active torsions:
REMARK  status: ('A' for Active; 'I' for Inactive)
REMARK    1  A    between atoms: C_1  and  C_2
REMARK    2  A    between atoms: C_2  and  C_3
REMARK    3  A    between atoms: C_7  and  C_8
REMARK    4  A    between atoms: C_9  and  N_10
REMARK    5  A    between atoms: N_10  and  C_11
REMARK    6  A    between atoms: C_12  and  C_13
REMARK    7  A    between atoms: C_17  and  O_18
REMARK                            x       y       z     vdW  Elec       q    Type
REMARK                         _______ _______ _______ _____ _____    ______ ____
ROOT
ATOM      1  C   UNL     1       3.529   5.453  19.210  0.00  0.00    +0.000 A 
ATOM      2  C   UNL     1       2.381   6.015  19.801  0.00  0.00    +0.000 A 
ATOM      3  N   UNL     1       1.754   5.111  20.653  0.00  0.00    +0.000 NA
ATOM      4  C   UNL     1       2.528   4.065  20.603  0.00  0.00    +0.000 A 
ATOM      5  S   UNL     1       2.579   2.569  21.485  0.00  0.00    +0.000 S 
ATOM      6  C   UNL     1       4.123   2.207  20.703  0.00  0.00    +0.000 A 
ATOM      7  C   UNL     1       4.513   3.163  19.843  0.00  0.00    +0.000 A 
ATOM      8  N   UNL     1       3.612   4.205  19.787  0.00  0.00    +0.000 N 
ENDROOT
BRANCH   2   9
ATOM      9  C   UNL     1       1.910   7.391  19.677  0.00  0.00    +0.000 A 
ATOM     10  C   UNL     1       1.332   8.019  20.795  0.00  0.00    +0.000 A 
ATOM     11  C   UNL     1       0.963   9.368  20.756  0.00  0.00    +0.000 A 
ATOM     12  C   UNL     1       1.163  10.111  19.595  0.00  0.00    +0.000 A 
ATOM     13  C   UNL     1       1.693   9.484  18.474  0.00  0.00    +0.000 A 
ATOM     14  C   UNL     1       2.045   8.135  18.501  0.00  0.00    +0.000 A 
BRANCH  13  15
ATOM     15  O   UNL     1       1.898  10.165  17.311  0.00  0.00    +0.000 OA
ATOM     16  H   UNL     1       2.062   9.523  16.601  0.00  0.00    +0.000 HD
ENDBRANCH  13  15
ENDBRANCH   2   9
BRANCH   1  17
ATOM     17  N   UNL     1       4.496   6.007  18.431  0.00  0.00    +0.000 N 
ATOM     18  H   UNL     1       4.771   6.957  18.669  0.00  0.00    +0.000 HD
BRANCH  17  25
ATOM     19  C   UNL     1       6.644   5.826  17.142  0.00  0.00    +0.000 A 
ATOM     20  C   UNL     1       7.304   5.269  16.022  0.00  0.00    +0.000 A 
ATOM     21  C   UNL     1       6.665   4.392  15.153  0.00  0.00    +0.000 A 
ATOM     22  C   UNL     1       5.352   4.027  15.397  0.00  0.00    +0.000 A 
ATOM     23  C   UNL     1       4.658   4.555  16.497  0.00  0.00    +0.000 A 
ATOM     24  C   UNL     1       3.235   4.093  16.705  0.00  0.00    +0.000 C 
ATOM     25  C   UNL     1       5.288   5.483  17.379  0.00  0.00    +0.000 A 
BRANCH  19  27
ATOM     26  C   UNL     1       7.844   8.028  17.696  0.00  0.00    +0.000 C 
ATOM     27  C   UNL     1       7.516   6.596  18.120  0.00  0.00    +0.000 C 
ENDBRANCH  19  27
ENDBRANCH  17  25
ENDBRANCH   1  17
TORSDOF 5
ENDMDL
MODEL 6
REMARK VINA RESULT:      -7.1      2.683      4.691
REMARK  Name = 
REMARK  7 active torsions:
REMARK  status: ('A' for Active; 'I' for Inactive)
REMARK    1  A    between atoms: C_1  and  C_2
REMARK    2  A    between atoms: C_2  and  C_3
REMARK    3  A    between atoms: C_7  and  C_8
REMARK    4  A    between atoms: C_9  and  N_10
REMARK    5  A    between atoms: N_10  and  C_11
REMARK    6  A    between atoms: C_12  and  C_13
REMARK    7  A    between atoms: C_17  and  O_18
REMARK                            x       y       z     vdW  Elec       q    Type
REMARK                         _______ _______ _______ _____ _____    ______ ____
ROOT
ATOM      1  C   UNL     1       3.496   5.364  19.409  0.00  0.00    +0.000 A 
ATOM      2  C   UNL     1       2.323   6.065  19.749  0.00  0.00    +0.000 A 
ATOM      3  N   UNL     1       1.462   5.277  20.507  0.00  0.00    +0.000 NA
ATOM      4  C   UNL     1       2.122   4.163  20.649  0.00  0.00    +0.000 A 
ATOM      5  S   UNL     1       1.859   2.726  21.589  0.00  0.00    +0.000 S 
ATOM      6  C   UNL     1       3.475   2.176  21.127  0.00  0.00    +0.000 A 
ATOM      7  C   UNL     1       4.110   3.037  20.315  0.00  0.00    +0.000 A 
ATOM      8  N   UNL     1       3.345   4.153  20.045  0.00  0.00    +0.000 N 
ENDROOT
BRANCH   2   9
ATOM      9  C   UNL     1       2.024   7.468  19.479  0.00  0.00    +0.000 A 
ATOM     10  C   UNL     1       2.251   7.980  18.189  0.00  0.00    +0.000 A 
ATOM     11  C   UNL     1       1.882   9.287  17.854  0.00  0.00    +0.000 A 
ATOM     12  C   UNL     1       1.280  10.106  18.807  0.00  0.00    +0.000 A 
ATOM     13  C   UNL     1       1.093   9.619  20.096  0.00  0.00    +0.000 A 
ATOM     14  C   UNL     1       1.476   8.324  20.440  0.00  0.00    +0.000 A 
BRANCH  13  15
ATOM     15  O   UNL     1       0.518  10.385  21.067  0.00  0.00    +0.000 OA
ATOM     16  H   UNL     1      -0.309   9.961  21.347  0.00  0.00    +0.000 HD
ENDBRANCH  13  15
ENDBRANCH   2   9
BRANCH   1  17
ATOM     17  N   UNL     1       4.641   5.779  18.801  0.00  0.00    +0.000 N 
ATOM     18  H   UNL     1       5.153   6.520  19.273  0.00  0.00    +0.000 HD
BRANCH  17  25
ATOM     19  C   UNL     1       6.687   5.613  17.356  0.00  0.00    +0.000 A 
ATOM     20  C   UNL     1       7.243   5.124  16.150  0.00  0.00    +0.000 A 
ATOM     21  C   UNL     1       6.505   4.353  15.259  0.00  0.00    +0.000 A 
ATOM     22  C   UNL     1       5.195   4.027  15.564  0.00  0.00    +0.000 A 
ATOM     23  C   UNL     1       4.602   4.490  16.749  0.00  0.00    +0.000 A 
ATOM     24  C   UNL     1       3.175   4.076  17.017  0.00  0.00    +0.000 C 
ATOM     25  C   UNL     1       5.334   5.311  17.658  0.00  0.00    +0.000 A 
BRANCH  19  27
ATOM     26  C   UNL     1       7.986   7.721  18.034  0.00  0.00    +0.000 C 
ATOM     27  C   UNL     1       7.659   6.257  18.329  0.00  0.00    +0.000 C 
ENDBRANCH  19  27
ENDBRANCH  17  25
ENDBRANCH   1  17
TORSDOF 5
ENDMDL
MODEL 7
REMARK VINA RESULT:      -7.0      3.352      6.506
REMARK  Name = 
REMARK  7 active torsions:
REMARK  status: ('A' for Active; 'I' for Inactive)
REMARK    1  A    between atoms: C_1  and  C_2
REMARK    2  A    between atoms: C_2  and  C_3
REMARK    3  A    between atoms: C_7  and  C_8
REMARK    4  A    between atoms: C_9  and  N_10
REMARK    5  A    between atoms: N_10  and  C_11
REMARK    6  A    between atoms: C_12  and  C_13
REMARK    7  A    between atoms: C_17  and  O_18
REMARK                            x       y       z     vdW  Elec       q    Type
REMARK                         _______ _______ _______ _____ _____    ______ ____
ROOT
ATOM      1  C   UNL     1       5.418   4.643  15.374  0.00  0.00    +0.000 A 
ATOM      2  C   UNL     1       6.756   4.974  15.662  0.00  0.00    +0.000 A 
ATOM      3  N   UNL     1       7.608   4.592  14.630  0.00  0.00    +0.000 NA
ATOM      4  C   UNL     1       6.797   4.090  13.743  0.00  0.00    +0.000 A 
ATOM      5  S   UNL     1       7.001   3.545  12.106  0.00  0.00    +0.000 S 
ATOM      6  C   UNL     1       5.244   3.391  11.979  0.00  0.00    +0.000 A 
ATOM      7  C   UNL     1       4.606   3.721  13.115  0.00  0.00    +0.000 A 
ATOM      8  N   UNL     1       5.483   4.110  14.106  0.00  0.00    +0.000 N 
ENDROOT
BRANCH   2   9
ATOM      9  C   UNL     1       7.251   5.723  16.814  0.00  0.00    +0.000 A 
ATOM     10  C   UNL     1       7.474   7.105  16.686  0.00  0.00    +0.000 A 
ATOM     11  C   UNL     1       7.846   7.883  17.788  0.00  0.00    +0.000 A 
ATOM     12  C   UNL     1       8.003   7.288  19.037  0.00  0.00    +0.000 A 
ATOM     13  C   UNL     1       7.826   5.914  19.160  0.00  0.00    +0.000 A 
ATOM     14  C   UNL     1       7.474   5.132  18.062  0.00  0.00    +0.000 A 
BRANCH  13  15
ATOM     15  O   UNL     1       7.979   5.284  20.359  0.00  0.00    +0.000 OA
ATOM     16  H   UNL     1       7.297   5.608  20.969  0.00  0.00    +0.000 HD
ENDBRANCH  13  15
ENDBRANCH   2   9
BRANCH   1  17
ATOM     17  N   UNL     1       4.262   4.941  16.027  0.00  0.00    +0.000 N 
ATOM     18  H   UNL     1       3.473   5.203  15.441  0.00  0.00    +0.000 HD
BRANCH  17  25
ATOM     19  C   UNL     1       3.678   3.666  18.110  0.00  0.00    +0.000 A 
ATOM     20  C   UNL     1       3.262   3.739  19.460  0.00  0.00    +0.000 A 
ATOM     21  C   UNL     1       3.069   4.955  20.105  0.00  0.00    +0.000 A 
ATOM     22  C   UNL     1       3.312   6.134  19.423  0.00  0.00    +0.000 A 
ATOM     23  C   UNL     1       3.726   6.110  18.082  0.00  0.00    +0.000 A 
ATOM     24  C   UNL     1       3.988   7.438  17.413  0.00  0.00    +0.000 C 
ATOM     25  C   UNL     1       3.896   4.871  17.394  0.00  0.00    +0.000 A 
BRANCH  19  27
ATOM     26  C   UNL     1       3.771   1.142  18.572  0.00  0.00    +0.000 C 
ATOM     27  C   UNL     1       4.052   2.286  17.597  0.00  0.00    +0.000 C 
ENDBRANCH  19  27
ENDBRANCH  17  25
ENDBRANCH   1  17
TORSDOF 5
ENDMDL
MODEL 8
REMARK VINA RESULT:      -7.0      0.771      2.429
REMARK  Name = 
REMARK  7 active torsions:
REMARK  status: ('A' for Active; 'I' for Inactive)
REMARK    1  A    between atoms: C_1  and  C_2
REMARK    2  A    between atoms: C_2  and  C_3
REMARK    3  A    between atoms: C_7  and  C_8
REMARK    4  A    between atoms: C_9  and  N_10
REMARK    5  A    between atoms: N_10  and  C_11
REMARK    6  A    between atoms: C_12  and  C_13
REMARK    7  A    between atoms: C_17  and  O_18
REMARK                            x       y       z     vdW  Elec       q    Type
REMARK                         _______ _______ _______ _____ _____    ______ ____
ROOT
ATOM      1  C   UNL     1       2.461   7.092  18.737  0.00  0.00    +0.000 A 
ATOM      2  C   UNL     1       2.134   6.498  19.971  0.00  0.00    +0.000 A 
ATOM      3  N   UNL     1       1.570   7.422  20.846  0.00  0.00    +0.000 NA
ATOM      4  C   UNL     1       1.523   8.514  20.139  0.00  0.00    +0.000 A 
ATOM      5  S   UNL     1       0.813  10.079  20.398  0.00  0.00    +0.000 S 
ATOM      6  C   UNL     1       1.200  10.488  18.721  0.00  0.00    +0.000 A 
ATOM      7  C   UNL     1       1.829   9.494  18.071  0.00  0.00    +0.000 A 
ATOM      8  N   UNL     1       2.011   8.386  18.872  0.00  0.00    +0.000 N 
ENDROOT
BRANCH   2   9
ATOM      9  C   UNL     1       2.236   5.085  20.325  0.00  0.00    +0.000 A 
ATOM     10  C   UNL     1       1.060   4.355  20.572  0.00  0.00    +0.000 A 
ATOM     11  C   UNL     1       1.101   2.977  20.810  0.00  0.00    +0.000 A 
ATOM     12  C   UNL     1       2.321   2.307  20.807  0.00  0.00    +0.000 A 
ATOM     13  C   UNL     1       3.491   3.031  20.606  0.00  0.00    +0.000 A 
ATOM     14  C   UNL     1       3.458   4.407  20.388  0.00  0.00    +0.000 A 
BRANCH  13  15
ATOM     15  O   UNL     1       4.711   2.422  20.605  0.00  0.00    +0.000 OA
ATOM     16  H   UNL     1       5.350   3.009  21.040  0.00  0.00    +0.000 HD
ENDBRANCH  13  15
ENDBRANCH   2   9
BRANCH   1  17
ATOM     17  N   UNL     1       2.902   6.547  17.572  0.00  0.00    +0.000 N 
ATOM     18  H   UNL     1       2.416   6.842  16.729  0.00  0.00    +0.000 HD
BRANCH  17  25
ATOM     19  C   UNL     1       3.898   4.288  17.109  0.00  0.00    +0.000 A 
ATOM     20  C   UNL     1       5.079   3.548  16.866  0.00  0.00    +0.000 A 
ATOM     21  C   UNL     1       6.325   4.157  16.779  0.00  0.00    +0.000 A 
ATOM     22  C   UNL     1       6.421   5.532  16.905  0.00  0.00    +0.000 A 
ATOM     23  C   UNL     1       5.276   6.308  17.146  0.00  0.00    +0.000 A 
ATOM     24  C   UNL     1       5.463   7.802  17.253  0.00  0.00    +0.000 C 
ATOM     25  C   UNL     1       3.994   5.695  17.273  0.00  0.00    +0.000 A 
BRANCH  19  27
ATOM     26  C   UNL     1       2.651   2.062  17.396  0.00  0.00    +0.000 C 
ATOM     27  C   UNL     1       2.590   3.530  16.971  0.00  0.00    +0.000 C 
ENDBRANCH  19  27
ENDBRANCH  17  25
ENDBRANCH   1  17
TORSDOF 5
ENDMDL
MODEL 9
REMARK VINA RESULT:      -6.9      3.598      6.606
REMARK  Name = 
REMARK  7 active torsions:
REMARK  status: ('A' for Active; 'I' for Inactive)
REMARK    1  A    between atoms: C_1  and  C_2
REMARK    2  A    between atoms: C_2  and  C_3
REMARK    3  A    between atoms: C_7  and  C_8
REMARK    4  A    between atoms: C_9  and  N_10
REMARK    5  A    between atoms: N_10  and  C_11
REMARK    6  A    between atoms: C_12  and  C_13
REMARK    7  A    between atoms: C_17  and  O_18
REMARK                            x       y       z     vdW  Elec       q    Type
REMARK                         _______ _______ _______ _____ _____    ______ ____
ROOT
ATOM      1  C   UNL     1       5.384   4.607  15.408  0.00  0.00    +0.000 A 
ATOM      2  C   UNL     1       6.702   4.985  15.730  0.00  0.00    +0.000 A 
ATOM      3  N   UNL     1       7.588   4.660  14.707  0.00  0.00    +0.000 NA
ATOM      4  C   UNL     1       6.815   4.148  13.793  0.00  0.00    +0.000 A 
ATOM      5  S   UNL     1       7.072   3.650  12.148  0.00  0.00    +0.000 S 
ATOM      6  C   UNL     1       5.325   3.430  11.983  0.00  0.00    +0.000 A 
ATOM      7  C   UNL     1       4.653   3.707  13.113  0.00  0.00    +0.000 A 
ATOM      8  N   UNL     1       5.494   4.108  14.130  0.00  0.00    +0.000 N 
ENDROOT
BRANCH   2   9
ATOM      9  C   UNL     1       7.145   5.725  16.908  0.00  0.00    +0.000 A 
ATOM     10  C   UNL     1       7.358   5.031  18.112  0.00  0.00    +0.000 A 
ATOM     11  C   UNL     1       7.882   5.677  19.237  0.00  0.00    +0.000 A 
ATOM     12  C   UNL     1       8.200   7.032  19.175  0.00  0.00    +0.000 A 
ATOM     13  C   UNL     1       7.951   7.733  18.001  0.00  0.00    +0.000 A 
ATOM     14  C   UNL     1       7.410   7.099  16.884  0.00  0.00    +0.000 A 
BRANCH  13  15
ATOM     15  O   UNL     1       8.234   9.062  17.895  0.00  0.00    +0.000 OA
ATOM     16  H   UNL     1       8.154   9.467  18.774  0.00  0.00    +0.000 HD
ENDBRANCH  13  15
ENDBRANCH   2   9
BRANCH   1  17
ATOM     17  N   UNL     1       4.206   4.845  16.045  0.00  0.00    +0.000 N 
ATOM     18  H   UNL     1       3.402   5.019  15.446  0.00  0.00    +0.000 HD
BRANCH  17  25
ATOM     19  C   UNL     1       3.633   3.619  18.160  0.00  0.00    +0.000 A 
ATOM     20  C   UNL     1       3.214   3.724  19.507  0.00  0.00    +0.000 A 
ATOM     21  C   UNL     1       3.005   4.954  20.119  0.00  0.00    +0.000 A 
ATOM     22  C   UNL     1       3.235   6.117  19.405  0.00  0.00    +0.000 A 
ATOM     23  C   UNL     1       3.652   6.062  18.066  0.00  0.00    +0.000 A 
ATOM     24  C   UNL     1       3.899   7.375  17.362  0.00  0.00    +0.000 C 
ATOM     25  C   UNL     1       3.838   4.807  17.413  0.00  0.00    +0.000 A 
BRANCH  19  27
ATOM     26  C   UNL     1       3.738   1.107  18.682  0.00  0.00    +0.000 C 
ATOM     27  C   UNL     1       4.025   2.230  17.686  0.00  0.00    +0.000 C 
ENDBRANCH  19  27
ENDBRANCH  17  25
ENDBRANCH   1  17
TORSDOF 5
ENDMDL
