MODEL 1
REMARK VINA RESULT:      -5.3      0.000      0.000
REMARK  Name = 
REMARK  3 active torsions:
REMARK  status: ('A' for Active; 'I' for Inactive)
REMARK    1  A    between atoms: C_1  and  C_2
REMARK    2  A    between atoms: C_4  and  C_5
REMARK    3  A    between atoms: C_12  and  C_13
REMARK                            x       y       z     vdW  Elec       q    Type
REMARK                         _______ _______ _______ _____ _____    ______ ____
ROOT
ATOM      1  C   UNL     1       6.948   4.862  14.059  0.00  0.00    +0.000 C 
ATOM      2  C   UNL     1       5.980   4.841  15.196  0.00  0.00    +0.000 A 
ATOM      3  C   UNL     1       5.082   6.459  15.688  0.00  0.00    +0.000 A 
ATOM      4  C   UNL     1       3.943   6.409  17.258  0.00  0.00    +0.000 A 
ATOM      5  C   UNL     1       3.642   7.666  17.998  0.00  0.00    +0.000 C 
ATOM      6  N   UNL     1       3.609   4.763  18.041  0.00  0.00    +0.000 N 
ATOM      7  C   UNL     1       2.891   4.805  19.237  0.00  0.00    +0.000 A 
ATOM      8  N   UNL     1       1.938   5.677  19.508  0.00  0.00    +0.000 NA
ATOM      9  C   UNL     1       1.421   5.311  20.723  0.00  0.00    +0.000 A 
ATOM     10  C   UNL     1       2.131   4.262  21.253  0.00  0.00    +0.000 A 
ATOM     11  N   UNL     1       3.083   3.976  20.314  0.00  0.00    +0.000 N 
ATOM     12  C   UNL     1       4.104   3.091  17.380  0.00  0.00    +0.000 A 
ATOM     13  C   UNL     1       3.684   1.804  17.981  0.00  0.00    +0.000 C 
ATOM     14  C   UNL     1       5.469   3.172  15.992  0.00  0.00    +0.000 A 
ATOM     15  H   UNL     1       3.834   3.307  20.395  0.00  0.00    +0.000 HD
ENDROOT
TORSDOF 0
ENDMDL
MODEL 2
REMARK VINA RESULT:      -5.0      7.651     10.550
REMARK  Name = 
REMARK  3 active torsions:
REMARK  status: ('A' for Active; 'I' for Inactive)
REMARK    1  A    between atoms: C_1  and  C_2
REMARK    2  A    between atoms: C_4  and  C_5
REMARK    3  A    between atoms: C_12  and  C_13
REMARK                            x       y       z     vdW  Elec       q    Type
REMARK                         _______ _______ _______ _____ _____    ______ ____
ROOT
ATOM      1  C   UNL     1      -1.348  13.014  23.233  0.00  0.00    +0.000 C 
ATOM      2  C   UNL     1      -1.693  12.469  21.886  0.00  0.00    +0.000 A 
ATOM      3  C   UNL     1      -0.529  11.185  21.073  0.00  0.00    +0.000 A 
ATOM      4  C   UNL     1      -0.949  10.615  19.265  0.00  0.00    +0.000 A 
ATOM      5  C   UNL     1       0.123  10.064  18.392  0.00  0.00    +0.000 C 
ATOM      6  N   UNL     1      -2.562  11.160  18.533  0.00  0.00    +0.000 N 
ATOM      7  C   UNL     1      -2.751  10.828  17.189  0.00  0.00    +0.000 A 
ATOM      8  N   UNL     1      -2.305   9.722  16.623  0.00  0.00    +0.000 NA
ATOM      9  C   UNL     1      -2.790   9.729  15.342  0.00  0.00    +0.000 A 
ATOM     10  C   UNL     1      -3.459  10.901  15.086  0.00  0.00    +0.000 A 
ATOM     11  N   UNL     1      -3.394  11.602  16.257  0.00  0.00    +0.000 N 
ATOM     12  C   UNL     1      -3.939  12.063  19.408  0.00  0.00    +0.000 A 
ATOM     13  C   UNL     1      -5.261  12.345  18.803  0.00  0.00    +0.000 C 
ATOM     14  C   UNL     1      -3.395  12.870  21.096  0.00  0.00    +0.000 A 
ATOM     15  H   UNL     1      -3.716  12.545  16.420  0.00  0.00    +0.000 HD
ENDROOT
TORSDOF 0
ENDMDL
MODEL 3
REMARK VINA RESULT:      -5.0      5.943      8.324
REMARK  Name = 
REMARK  3 active torsions:
REMARK  status: ('A' for Active; 'I' for Inactive)
REMARK    1  A    between atoms: C_1  and  C_2
REMARK    2  A    between atoms: C_4  and  C_5
REMARK    3  A    between atoms: C_12  and  C_13
REMARK                            x       y       z     vdW  Elec       q    Type
REMARK                         _______ _______ _______ _____ _____    ______ ____
ROOT
ATOM      1  C   UNL     1       2.456   7.186  18.207  0.00  0.00    +0.000 C 
ATOM      2  C   UNL     1       1.865   8.329  18.963  0.00  0.00    +0.000 A 
ATOM      3  C   UNL     1       1.468   8.111  20.824  0.00  0.00    +0.000 A 
ATOM      4  C   UNL     1       0.572   9.578  21.726  0.00  0.00    +0.000 A 
ATOM      5  C   UNL     1      -0.218   9.319  22.961  0.00  0.00    +0.000 C 
ATOM      6  N   UNL     1       0.371  11.174  20.805  0.00  0.00    +0.000 N 
ATOM      7  C   UNL     1      -0.392  12.147  21.455  0.00  0.00    +0.000 A 
ATOM      8  N   UNL     1      -0.413  12.330  22.762  0.00  0.00    +0.000 NA
ATOM      9  C   UNL     1      -1.191  13.437  22.978  0.00  0.00    +0.000 A 
ATOM     10  C   UNL     1      -1.735  13.881  21.799  0.00  0.00    +0.000 A 
ATOM     11  N   UNL     1      -1.248  13.030  20.847  0.00  0.00    +0.000 N 
ATOM     12  C   UNL     1       1.098  11.605  19.144  0.00  0.00    +0.000 A 
ATOM     13  C   UNL     1       1.016  12.949  18.526  0.00  0.00    +0.000 C 
ATOM     14  C   UNL     1       1.731  10.058  18.142  0.00  0.00    +0.000 A 
ATOM     15  H   UNL     1      -1.494  13.007  19.868  0.00  0.00    +0.000 HD
ENDROOT
TORSDOF 0
ENDMDL
MODEL 4
REMARK VINA RESULT:      -5.0      1.752      4.331
REMARK  Name = 
REMARK  3 active torsions:
REMARK  status: ('A' for Active; 'I' for Inactive)
REMARK    1  A    between atoms: C_1  and  C_2
REMARK    2  A    between atoms: C_4  and  C_5
REMARK    3  A    between atoms: C_12  and  C_13
REMARK                            x       y       z     vdW  Elec       q    Type
REMARK                         _______ _______ _______ _____ _____    ______ ____
ROOT
ATOM      1  C   UNL     1       4.059   1.059  18.262  0.00  0.00    +0.000 C 
ATOM      2  C   UNL     1       3.723   2.509  18.377  0.00  0.00    +0.000 A 
ATOM      3  C   UNL     1       2.694   3.114  19.873  0.00  0.00    +0.000 A 
ATOM      4  C   UNL     1       2.167   4.982  19.901  0.00  0.00    +0.000 A 
ATOM      5  C   UNL     1       0.982   5.408  20.697  0.00  0.00    +0.000 C 
ATOM      6  N   UNL     1       2.883   6.109  18.616  0.00  0.00    +0.000 N 
ATOM      7  C   UNL     1       2.370   7.407  18.607  0.00  0.00    +0.000 A 
ATOM      8  N   UNL     1       1.996   8.071  19.685  0.00  0.00    +0.000 NA
ATOM      9  C   UNL     1       1.661   9.329  19.260  0.00  0.00    +0.000 A 
ATOM     10  C   UNL     1       1.734   9.411  17.891  0.00  0.00    +0.000 A 
ATOM     11  N   UNL     1       2.151   8.172  17.490  0.00  0.00    +0.000 N 
ATOM     12  C   UNL     1       4.215   5.690  17.380  0.00  0.00    +0.000 A 
ATOM     13  C   UNL     1       4.843   6.677  16.472  0.00  0.00    +0.000 C 
ATOM     14  C   UNL     1       4.515   3.776  17.173  0.00  0.00    +0.000 A 
ATOM     15  H   UNL     1       2.246   7.841  16.541  0.00  0.00    +0.000 HD
ENDROOT
TORSDOF 0
ENDMDL
MODEL 5
REMARK VINA RESULT:      -4.9      6.218      8.266
REMARK  Name = 
REMARK  3 active torsions:
REMARK  status: ('A' for Active; 'I' for Inactive)
REMARK    1  A    between atoms: C_1  and  C_2
REMARK    2  A    between atoms: C_4  and  C_5
REMARK    3  A    between atoms: C_12  and  C_13
REMARK                            x       y       z     vdW  Elec       q    Type
REMARK                         _______ _______ _______ _____ _____    ______ ____
ROOT
ATOM      1  C   UNL     1       2.541   7.660  18.331  0.00  0.00    +0.000 C 
ATOM      2  C   UNL     1       1.630   8.599  19.050  0.00  0.00    +0.000 A 
ATOM      3  C   UNL     1       0.536   9.799  18.035  0.00  0.00    +0.000 A 
ATOM      4  C   UNL     1      -0.523  11.094  19.019  0.00  0.00    +0.000 A 
ATOM      5  C   UNL     1      -0.967  12.350  18.354  0.00  0.00    +0.000 C 
ATOM      6  N   UNL     1      -0.596  10.938  20.865  0.00  0.00    +0.000 N 
ATOM      7  C   UNL     1      -1.266  11.969  21.526  0.00  0.00    +0.000 A 
ATOM      8  N   UNL     1      -2.320  12.604  21.047  0.00  0.00    +0.000 NA
ATOM      9  C   UNL     1      -2.733  13.456  22.037  0.00  0.00    +0.000 A 
ATOM     10  C   UNL     1      -1.865  13.417  23.100  0.00  0.00    +0.000 A 
ATOM     11  N   UNL     1      -0.920  12.495  22.744  0.00  0.00    +0.000 N 
ATOM     12  C   UNL     1       0.099   9.550  21.897  0.00  0.00    +0.000 A 
ATOM     13  C   UNL     1      -0.115   9.414  23.356  0.00  0.00    +0.000 C 
ATOM     14  C   UNL     1       1.386   8.437  20.946  0.00  0.00    +0.000 A 
ATOM     15  H   UNL     1      -0.081  12.258  23.253  0.00  0.00    +0.000 HD
ENDROOT
TORSDOF 0
ENDMDL
MODEL 6
REMARK VINA RESULT:      -4.9      1.446      2.045
REMARK  Name = 
REMARK  3 active torsions:
REMARK  status: ('A' for Active; 'I' for Inactive)
REMARK    1  A    between atoms: C_1  and  C_2
REMARK    2  A    between atoms: C_4  and  C_5
REMARK    3  A    between atoms: C_12  and  C_13
REMARK                            x       y       z     vdW  Elec       q    Type
REMARK                         _______ _______ _______ _____ _____    ______ ____
ROOT
ATOM      1  C   UNL     1       5.388   7.010  15.362  0.00  0.00    +0.000 C 
ATOM      2  C   UNL     1       4.673   6.235  16.419  0.00  0.00    +0.000 A 
ATOM      3  C   UNL     1       3.454   7.147  17.580  0.00  0.00    +0.000 A 
ATOM      4  C   UNL     1       2.658   6.123  19.025  0.00  0.00    +0.000 A 
ATOM      5  C   UNL     1       2.146   6.822  20.236  0.00  0.00    +0.000 C 
ATOM      6  N   UNL     1       2.938   4.291  19.051  0.00  0.00    +0.000 N 
ATOM      7  C   UNL     1       2.451   3.629  20.180  0.00  0.00    +0.000 A 
ATOM      8  N   UNL     1       1.351   3.965  20.828  0.00  0.00    +0.000 NA
ATOM      9  C   UNL     1       1.172   3.010  21.794  0.00  0.00    +0.000 A 
ATOM     10  C   UNL     1       2.228   2.132  21.805  0.00  0.00    +0.000 A 
ATOM     11  N   UNL     1       3.048   2.560  20.799  0.00  0.00    +0.000 N 
ATOM     12  C   UNL     1       3.763   3.268  17.729  0.00  0.00    +0.000 A 
ATOM     13  C   UNL     1       3.830   1.788  17.747  0.00  0.00    +0.000 C 
ATOM     14  C   UNL     1       4.795   4.321  16.455  0.00  0.00    +0.000 A 
ATOM     15  H   UNL     1       3.959   2.196  20.562  0.00  0.00    +0.000 HD
ENDROOT
TORSDOF 0
ENDMDL
MODEL 7
REMARK VINA RESULT:      -4.9      2.487      3.644
REMARK  Name = 
REMARK  3 active torsions:
REMARK  status: ('A' for Active; 'I' for Inactive)
REMARK    1  A    between atoms: C_1  and  C_2
REMARK    2  A    between atoms: C_4  and  C_5
REMARK    3  A    between atoms: C_12  and  C_13
REMARK                            x       y       z     vdW  Elec       q    Type
REMARK                         _______ _______ _______ _____ _____    ______ ____
ROOT
ATOM      1  C   UNL     1       5.608   4.958  16.394  0.00  0.00    +0.000 C 
ATOM      2  C   UNL     1       4.629   5.664  17.273  0.00  0.00    +0.000 A 
ATOM      3  C   UNL     1       3.865   7.316  16.681  0.00  0.00    +0.000 A 
ATOM      4  C   UNL     1       2.708   8.262  17.920  0.00  0.00    +0.000 A 
ATOM      5  C   UNL     1       2.505   9.730  17.773  0.00  0.00    +0.000 C 
ATOM      6  N   UNL     1       2.227   7.405  19.491  0.00  0.00    +0.000 N 
ATOM      7  C   UNL     1       1.501   8.181  20.397  0.00  0.00    +0.000 A 
ATOM      8  N   UNL     1       0.622   9.104  20.055  0.00  0.00    +0.000 NA
ATOM      9  C   UNL     1       0.063   9.548  21.224  0.00  0.00    +0.000 A 
ATOM     10  C   UNL     1       0.676   8.963  22.305  0.00  0.00    +0.000 A 
ATOM     11  N   UNL     1       1.611   8.126  21.763  0.00  0.00    +0.000 N 
ATOM     12  C   UNL     1       2.587   5.635  19.953  0.00  0.00    +0.000 A 
ATOM     13  C   UNL     1       2.053   4.969  21.163  0.00  0.00    +0.000 C 
ATOM     14  C   UNL     1       3.970   4.807  18.858  0.00  0.00    +0.000 A 
ATOM     15  H   UNL     1       2.302   7.584  22.261  0.00  0.00    +0.000 HD
ENDROOT
TORSDOF 0
ENDMDL
MODEL 8
REMARK VINA RESULT:      -4.8     10.573     12.360
REMARK  Name = 
REMARK  3 active torsions:
REMARK  status: ('A' for Active; 'I' for Inactive)
REMARK    1  A    between atoms: C_1  and  C_2
REMARK    2  A    between atoms: C_4  and  C_5
REMARK    3  A    between atoms: C_12  and  C_13
REMARK                            x       y       z     vdW  Elec       q    Type
REMARK                         _______ _______ _______ _____ _____    ______ ____
ROOT
ATOM      1  C   UNL     1       8.767   9.445  18.744  0.00  0.00    +0.000 C 
ATOM      2  C   UNL     1       9.418  10.769  18.976  0.00  0.00    +0.000 A 
ATOM      3  C   UNL     1       9.363  11.543  20.726  0.00  0.00    +0.000 A 
ATOM      4  C   UNL     1      10.100  13.326  20.940  0.00  0.00    +0.000 A 
ATOM      5  C   UNL     1       9.650  14.185  22.071  0.00  0.00    +0.000 C 
ATOM      6  N   UNL     1      11.015  14.068  19.510  0.00  0.00    +0.000 N 
ATOM      7  C   UNL     1      11.409  15.397  19.678  0.00  0.00    +0.000 A 
ATOM      8  N   UNL     1      11.787  15.926  20.827  0.00  0.00    +0.000 NA
ATOM      9  C   UNL     1      12.191  17.204  20.543  0.00  0.00    +0.000 A 
ATOM     10  C   UNL     1      11.967  17.498  19.220  0.00  0.00    +0.000 A 
ATOM     11  N   UNL     1      11.437  16.353  18.694  0.00  0.00    +0.000 N 
ATOM     12  C   UNL     1      11.475  13.218  17.916  0.00  0.00    +0.000 A 
ATOM     13  C   UNL     1      12.330  13.824  16.869  0.00  0.00    +0.000 C 
ATOM     14  C   UNL     1      10.495  11.564  17.601  0.00  0.00    +0.000 A 
ATOM     15  H   UNL     1      11.080  16.223  17.759  0.00  0.00    +0.000 HD
ENDROOT
TORSDOF 0
ENDMDL
MODEL 9
REMARK VINA RESULT:      -4.8      9.718     11.397
REMARK  Name = 
REMARK  3 active torsions:
REMARK  status: ('A' for Active; 'I' for Inactive)
REMARK    1  A    between atoms: C_1  and  C_2
REMARK    2  A    between atoms: C_4  and  C_5
REMARK    3  A    between atoms: C_12  and  C_13
REMARK                            x       y       z     vdW  Elec       q    Type
REMARK                         _______ _______ _______ _____ _____    ______ ____
ROOT
ATOM      1  C   UNL     1      -2.798  10.517  15.478  0.00  0.00    +0.000 C 
ATOM      2  C   UNL     1      -3.184  11.101  16.797  0.00  0.00    +0.000 A 
ATOM      3  C   UNL     1      -1.815  11.753  17.966  0.00  0.00    +0.000 A 
ATOM      4  C   UNL     1      -2.358  12.373  19.723  0.00  0.00    +0.000 A 
ATOM      5  C   UNL     1      -1.373  12.394  20.841  0.00  0.00    +0.000 C 
ATOM      6  N   UNL     1      -4.172  12.517  20.074  0.00  0.00    +0.000 N 
ATOM      7  C   UNL     1      -4.502  12.843  21.391  0.00  0.00    +0.000 A 
ATOM      8  N   UNL     1      -3.789  13.640  22.165  0.00  0.00    +0.000 NA
ATOM      9  C   UNL     1      -4.505  13.783  23.325  0.00  0.00    +0.000 A 
ATOM     10  C   UNL     1      -5.622  12.985  23.304  0.00  0.00    +0.000 A 
ATOM     11  N   UNL     1      -5.586  12.368  22.085  0.00  0.00    +0.000 N 
ATOM     12  C   UNL     1      -5.566  12.302  18.855  0.00  0.00    +0.000 A 
ATOM     13  C   UNL     1      -6.989  12.569  19.167  0.00  0.00    +0.000 C 
ATOM     14  C   UNL     1      -5.032  11.411  17.206  0.00  0.00    +0.000 A 
ATOM     15  H   UNL     1      -6.212  11.651  21.748  0.00  0.00    +0.000 HD
ENDROOT
TORSDOF 0
ENDMDL
