MODEL 1
REMARK VINA RESULT:      -5.4      0.000      0.000
REMARK  Name = 
REMARK  10 active torsions:
REMARK  status: ('A' for Active; 'I' for Inactive)
REMARK    1  A    between atoms: C_1  and  C_2
REMARK    2  A    between atoms: C_2  and  O_3
REMARK    3  A    between atoms: O_3  and  C_4
REMARK    4  A    between atoms: C_4  and  C_6
REMARK    5  A    between atoms: C_6  and  N_7
REMARK    6  A    between atoms: N_13  and  C_14
REMARK    7  A    between atoms: C_14  and  C_15
REMARK    8  A    between atoms: C_15  and  O_17
REMARK    9  A    between atoms: O_17  and  C_18
REMARK   10  A    between atoms: C_18  and  C_19
REMARK                            x       y       z     vdW  Elec       q    Type
REMARK                         _______ _______ _______ _____ _____    ______ ____
ROOT
ATOM      1  N   UNL     1       6.141   6.601  16.827  0.00  0.00    +0.000 NA
ATOM      2  C   UNL     1       5.181   7.628  16.364  0.00  0.00    +0.000 C 
ATOM      3  C   UNL     1       3.733   7.282  16.797  0.00  0.00    +0.000 C 
ATOM      4  N   UNL     1       3.507   7.669  18.196  0.00  0.00    +0.000 NA
ATOM      5  C   UNL     1       2.389   6.956  18.818  0.00  0.00    +0.000 C 
ATOM      6  C   UNL     1       2.804   5.573  19.382  0.00  0.00    +0.000 C 
ATOM      7  N   UNL     1       2.822   4.470  18.396  0.00  0.00    +0.000 NA
ATOM      8  C   UNL     1       3.721   3.383  18.828  0.00  0.00    +0.000 C 
ATOM      9  C   UNL     1       5.186   3.680  18.421  0.00  0.00    +0.000 C 
ATOM     10  N   UNL     1       5.388   3.387  16.993  0.00  0.00    +0.000 NA
ATOM     11  C   UNL     1       6.547   4.103  16.442  0.00  0.00    +0.000 C 
ATOM     12  C   UNL     1       6.186   5.487  15.847  0.00  0.00    +0.000 C 
ATOM     13  H   UNL     1       3.350   8.674  18.235  0.00  0.00    +0.000 HD
ATOM     14  H   UNL     1       4.544   3.689  16.505  0.00  0.00    +0.000 HD
ENDROOT
BRANCH   1  15
ATOM     15  C   UNL     1       7.506   7.141  17.015  0.00  0.00    +0.000 C 
BRANCH  15  16
ATOM     16  C   UNL     1       8.053   7.053  18.441  0.00  0.00    +0.000 C 
ATOM     17  O   UNL     1       7.842   6.110  19.196  0.00  0.00    +0.000 OA
BRANCH  16  18
ATOM     18  O   UNL     1       8.656   8.223  18.806  0.00  0.00    +0.000 OA
BRANCH  18  20
ATOM     19  C   UNL     1       9.187  10.566  18.330  0.00  0.00    +0.000 C 
ATOM     20  C   UNL     1       8.291   9.380  18.038  0.00  0.00    +0.000 C 
ENDBRANCH  18  20
ENDBRANCH  16  18
ENDBRANCH  15  16
ENDBRANCH   1  15
BRANCH   7  21
ATOM     21  C   UNL     1       1.468   3.991  18.061  0.00  0.00    +0.000 C 
BRANCH  21  22
ATOM     22  C   UNL     1       0.917   2.904  18.972  0.00  0.00    +0.000 C 
ATOM     23  O   UNL     1       0.659   1.755  18.632  0.00  0.00    +0.000 OA
BRANCH  22  24
ATOM     24  O   UNL     1       0.659   3.425  20.204  0.00  0.00    +0.000 OA
BRANCH  24  25
ATOM     25  C   UNL     1       1.117   2.644  21.315  0.00  0.00    +0.000 C 
ATOM     26  C   UNL     1       2.286   3.376  21.948  0.00  0.00    +0.000 C 
ENDBRANCH  24  25
ENDBRANCH  22  24
ENDBRANCH  21  22
ENDBRANCH   7  21
TORSDOF 8
ENDMDL
MODEL 2
REMARK VINA RESULT:      -5.1      1.311      1.640
REMARK  Name = 
REMARK  10 active torsions:
REMARK  status: ('A' for Active; 'I' for Inactive)
REMARK    1  A    between atoms: C_1  and  C_2
REMARK    2  A    between atoms: C_2  and  O_3
REMARK    3  A    between atoms: O_3  and  C_4
REMARK    4  A    between atoms: C_4  and  C_6
REMARK    5  A    between atoms: C_6  and  N_7
REMARK    6  A    between atoms: N_13  and  C_14
REMARK    7  A    between atoms: C_14  and  C_15
REMARK    8  A    between atoms: C_15  and  O_17
REMARK    9  A    between atoms: O_17  and  C_18
REMARK   10  A    between atoms: C_18  and  C_19
REMARK                            x       y       z     vdW  Elec       q    Type
REMARK                         _______ _______ _______ _____ _____    ______ ____
ROOT
ATOM      1  N   UNL     1       6.058   6.655  16.822  0.00  0.00    +0.000 NA
ATOM      2  C   UNL     1       4.971   7.251  16.012  0.00  0.00    +0.000 C 
ATOM      3  C   UNL     1       3.584   6.994  16.654  0.00  0.00    +0.000 C 
ATOM      4  N   UNL     1       3.332   7.952  17.739  0.00  0.00    +0.000 NA
ATOM      5  C   UNL     1       2.320   7.491  18.692  0.00  0.00    +0.000 C 
ATOM      6  C   UNL     1       2.911   6.570  19.791  0.00  0.00    +0.000 C 
ATOM      7  N   UNL     1       3.051   5.147  19.411  0.00  0.00    +0.000 NA
ATOM      8  C   UNL     1       4.083   4.477  20.225  0.00  0.00    +0.000 C 
ATOM      9  C   UNL     1       5.494   4.705  19.626  0.00  0.00    +0.000 C 
ATOM     10  N   UNL     1       5.711   3.814  18.475  0.00  0.00    +0.000 NA
ATOM     11  C   UNL     1       6.764   4.315  17.581  0.00  0.00    +0.000 C 
ATOM     12  C   UNL     1       6.225   5.228  16.451  0.00  0.00    +0.000 C 
ATOM     13  H   UNL     1       3.051   8.841  17.330  0.00  0.00    +0.000 HD
ATOM     14  H   UNL     1       4.829   3.771  17.963  0.00  0.00    +0.000 HD
ENDROOT
BRANCH   1  15
ATOM     15  C   UNL     1       7.348   7.359  16.650  0.00  0.00    +0.000 C 
BRANCH  15  16
ATOM     16  C   UNL     1       7.987   7.875  17.941  0.00  0.00    +0.000 C 
ATOM     17  O   UNL     1       8.329   7.153  18.870  0.00  0.00    +0.000 OA
BRANCH  16  18
ATOM     18  O   UNL     1       7.969   9.241  17.982  0.00  0.00    +0.000 OA
BRANCH  18  20
ATOM     19  C   UNL     1       9.591  11.066  18.175  0.00  0.00    +0.000 C 
ATOM     20  C   UNL     1       8.956   9.854  18.826  0.00  0.00    +0.000 C 
ENDBRANCH  18  20
ENDBRANCH  16  18
ENDBRANCH  15  16
ENDBRANCH   1  15
BRANCH   7  21
ATOM     21  C   UNL     1       1.762   4.431  19.424  0.00  0.00    +0.000 C 
BRANCH  21  22
ATOM     22  C   UNL     1       1.350   3.805  18.100  0.00  0.00    +0.000 C 
ATOM     23  O   UNL     1       1.155   4.417  17.056  0.00  0.00    +0.000 OA
BRANCH  22  24
ATOM     24  O   UNL     1       1.134   2.471  18.270  0.00  0.00    +0.000 OA
BRANCH  24  25
ATOM     25  C   UNL     1       2.104   1.784  19.070  0.00  0.00    +0.000 C 
ATOM     26  C   UNL     1       3.302   1.478  18.188  0.00  0.00    +0.000 C 
ENDBRANCH  24  25
ENDBRANCH  22  24
ENDBRANCH  21  22
ENDBRANCH   7  21
TORSDOF 8
ENDMDL
MODEL 3
REMARK VINA RESULT:      -5.1      2.432      4.240
REMARK  Name = 
REMARK  10 active torsions:
REMARK  status: ('A' for Active; 'I' for Inactive)
REMARK    1  A    between atoms: C_1  and  C_2
REMARK    2  A    between atoms: C_2  and  O_3
REMARK    3  A    between atoms: O_3  and  C_4
REMARK    4  A    between atoms: C_4  and  C_6
REMARK    5  A    between atoms: C_6  and  N_7
REMARK    6  A    between atoms: N_13  and  C_14
REMARK    7  A    between atoms: C_14  and  C_15
REMARK    8  A    between atoms: C_15  and  O_17
REMARK    9  A    between atoms: O_17  and  C_18
REMARK   10  A    between atoms: C_18  and  C_19
REMARK                            x       y       z     vdW  Elec       q    Type
REMARK                         _______ _______ _______ _____ _____    ______ ____
ROOT
ATOM      1  N   UNL     1       5.269   5.611  17.971  0.00  0.00    +0.000 NA
ATOM      2  C   UNL     1       5.972   5.152  19.191  0.00  0.00    +0.000 C 
ATOM      3  C   UNL     1       5.191   4.012  19.895  0.00  0.00    +0.000 C 
ATOM      4  N   UNL     1       5.449   2.726  19.235  0.00  0.00    +0.000 NA
ATOM      5  C   UNL     1       4.413   1.724  19.497  0.00  0.00    +0.000 C 
ATOM      6  C   UNL     1       3.203   1.851  18.536  0.00  0.00    +0.000 C 
ATOM      7  N   UNL     1       2.188   2.853  18.930  0.00  0.00    +0.000 NA
ATOM      8  C   UNL     1       1.410   3.311  17.763  0.00  0.00    +0.000 C 
ATOM      9  C   UNL     1       2.149   4.453  17.019  0.00  0.00    +0.000 C 
ATOM     10  N   UNL     1       1.974   5.726  17.735  0.00  0.00    +0.000 NA
ATOM     11  C   UNL     1       3.024   6.697  17.397  0.00  0.00    +0.000 C 
ATOM     12  C   UNL     1       4.251   6.627  18.340  0.00  0.00    +0.000 C 
ATOM     13  H   UNL     1       6.358   2.380  19.537  0.00  0.00    +0.000 HD
ATOM     14  H   UNL     1       2.022   5.515  18.733  0.00  0.00    +0.000 HD
ENDROOT
BRANCH   1  15
ATOM     15  C   UNL     1       6.190   6.185  16.966  0.00  0.00    +0.000 C 
BRANCH  15  16
ATOM     16  C   UNL     1       6.744   5.190  15.944  0.00  0.00    +0.000 C 
ATOM     17  O   UNL     1       7.840   4.648  16.043  0.00  0.00    +0.000 OA
BRANCH  16  18
ATOM     18  O   UNL     1       5.936   5.119  14.845  0.00  0.00    +0.000 OA
BRANCH  18  20
ATOM     19  C   UNL     1       6.532   4.003  12.748  0.00  0.00    +0.000 C 
ATOM     20  C   UNL     1       5.949   3.868  14.139  0.00  0.00    +0.000 C 
ENDBRANCH  18  20
ENDBRANCH  16  18
ENDBRANCH  15  16
ENDBRANCH   1  15
BRANCH   7  21
ATOM     21  C   UNL     1       1.332   2.384  20.036  0.00  0.00    +0.000 C 
BRANCH  21  22
ATOM     22  C   UNL     1       1.336   3.260  21.280  0.00  0.00    +0.000 C 
ATOM     23  O   UNL     1       1.522   2.865  22.425  0.00  0.00    +0.000 OA
BRANCH  22  24
ATOM     24  O   UNL     1       1.004   4.537  20.943  0.00  0.00    +0.000 OA
BRANCH  24  25
ATOM     25  C   UNL     1       2.060   5.500  21.054  0.00  0.00    +0.000 C 
ATOM     26  C   UNL     1       1.449   6.880  20.893  0.00  0.00    +0.000 C 
ENDBRANCH  24  25
ENDBRANCH  22  24
ENDBRANCH  21  22
ENDBRANCH   7  21
TORSDOF 8
ENDMDL
MODEL 4
REMARK VINA RESULT:      -4.8      2.771      4.632
REMARK  Name = 
REMARK  10 active torsions:
REMARK  status: ('A' for Active; 'I' for Inactive)
REMARK    1  A    between atoms: C_1  and  C_2
REMARK    2  A    between atoms: C_2  and  O_3
REMARK    3  A    between atoms: O_3  and  C_4
REMARK    4  A    between atoms: C_4  and  C_6
REMARK    5  A    between atoms: C_6  and  N_7
REMARK    6  A    between atoms: N_13  and  C_14
REMARK    7  A    between atoms: C_14  and  C_15
REMARK    8  A    between atoms: C_15  and  O_17
REMARK    9  A    between atoms: O_17  and  C_18
REMARK   10  A    between atoms: C_18  and  C_19
REMARK                            x       y       z     vdW  Elec       q    Type
REMARK                         _______ _______ _______ _____ _____    ______ ____
ROOT
ATOM      1  N   UNL     1       4.835   5.399  16.968  0.00  0.00    +0.000 NA
ATOM      2  C   UNL     1       5.842   4.610  17.714  0.00  0.00    +0.000 C 
ATOM      3  C   UNL     1       5.171   3.495  18.558  0.00  0.00    +0.000 C 
ATOM      4  N   UNL     1       4.852   2.334  17.717  0.00  0.00    +0.000 NA
ATOM      5  C   UNL     1       3.809   1.478  18.288  0.00  0.00    +0.000 C 
ATOM      6  C   UNL     1       2.379   1.976  17.955  0.00  0.00    +0.000 C 
ATOM      7  N   UNL     1       1.855   3.032  18.849  0.00  0.00    +0.000 NA
ATOM      8  C   UNL     1       0.802   3.822  18.181  0.00  0.00    +0.000 C 
ATOM      9  C   UNL     1       1.420   4.952  17.321  0.00  0.00    +0.000 C 
ATOM     10  N   UNL     1       1.834   6.077  18.175  0.00  0.00    +0.000 NA
ATOM     11  C   UNL     1       2.851   6.916  17.527  0.00  0.00    +0.000 C 
ATOM     12  C   UNL     1       4.302   6.474  17.842  0.00  0.00    +0.000 C 
ATOM     13  H   UNL     1       5.703   1.798  17.564  0.00  0.00    +0.000 HD
ATOM     14  H   UNL     1       2.225   5.674  19.028  0.00  0.00    +0.000 HD
ENDROOT
BRANCH   1  15
ATOM     15  C   UNL     1       5.386   6.001  15.734  0.00  0.00    +0.000 C 
BRANCH  15  16
ATOM     16  C   UNL     1       6.305   5.090  14.917  0.00  0.00    +0.000 C 
ATOM     17  O   UNL     1       7.518   5.246  14.829  0.00  0.00    +0.000 OA
BRANCH  16  18
ATOM     18  O   UNL     1       5.578   4.198  14.181  0.00  0.00    +0.000 OA
BRANCH  18  20
ATOM     19  C   UNL     1       5.232   3.166  11.987  0.00  0.00    +0.000 C 
ATOM     20  C   UNL     1       6.226   3.682  13.007  0.00  0.00    +0.000 C 
ENDBRANCH  18  20
ENDBRANCH  16  18
ENDBRANCH  15  16
ENDBRANCH   1  15
BRANCH   7  21
ATOM     21  C   UNL     1       1.427   2.502  20.156  0.00  0.00    +0.000 C 
BRANCH  21  22
ATOM     22  C   UNL     1       2.297   2.902  21.339  0.00  0.00    +0.000 C 
ATOM     23  O   UNL     1       3.154   2.199  21.860  0.00  0.00    +0.000 OA
BRANCH  22  24
ATOM     24  O   UNL     1       1.912   4.126  21.798  0.00  0.00    +0.000 OA
BRANCH  24  25
ATOM     25  C   UNL     1       2.509   5.250  21.140  0.00  0.00    +0.000 C 
ATOM     26  C   UNL     1       1.463   6.345  21.046  0.00  0.00    +0.000 C 
ENDBRANCH  24  25
ENDBRANCH  22  24
ENDBRANCH  21  22
ENDBRANCH   7  21
TORSDOF 8
ENDMDL
MODEL 5
REMARK VINA RESULT:      -4.8      3.423      6.806
REMARK  Name = 
REMARK  10 active torsions:
REMARK  status: ('A' for Active; 'I' for Inactive)
REMARK    1  A    between atoms: C_1  and  C_2
REMARK    2  A    between atoms: C_2  and  O_3
REMARK    3  A    between atoms: O_3  and  C_4
REMARK    4  A    between atoms: C_4  and  C_6
REMARK    5  A    between atoms: C_6  and  N_7
REMARK    6  A    between atoms: N_13  and  C_14
REMARK    7  A    between atoms: C_14  and  C_15
REMARK    8  A    between atoms: C_15  and  O_17
REMARK    9  A    between atoms: O_17  and  C_18
REMARK   10  A    between atoms: C_18  and  C_19
REMARK                            x       y       z     vdW  Elec       q    Type
REMARK                         _______ _______ _______ _____ _____    ______ ____
ROOT
ATOM      1  N   UNL     1       2.081   7.182  19.863  0.00  0.00    +0.000 NA
ATOM      2  C   UNL     1       1.422   5.899  20.195  0.00  0.00    +0.000 C 
ATOM      3  C   UNL     1       2.143   4.704  19.519  0.00  0.00    +0.000 C 
ATOM      4  N   UNL     1       3.333   4.318  20.290  0.00  0.00    +0.000 NA
ATOM      5  C   UNL     1       4.314   3.570  19.501  0.00  0.00    +0.000 C 
ATOM      6  C   UNL     1       5.267   4.495  18.700  0.00  0.00    +0.000 C 
ATOM      7  N   UNL     1       4.740   4.970  17.402  0.00  0.00    +0.000 NA
ATOM      8  C   UNL     1       5.400   6.222  16.985  0.00  0.00    +0.000 C 
ATOM      9  C   UNL     1       4.717   7.452  17.635  0.00  0.00    +0.000 C 
ATOM     10  N   UNL     1       3.471   7.779  16.924  0.00  0.00    +0.000 NA
ATOM     11  C   UNL     1       2.549   8.562  17.759  0.00  0.00    +0.000 C 
ATOM     12  C   UNL     1       1.560   7.686  18.568  0.00  0.00    +0.000 C 
ATOM     13  H   UNL     1       3.036   3.770  21.095  0.00  0.00    +0.000 HD
ATOM     14  H   UNL     1       3.028   6.892  16.677  0.00  0.00    +0.000 HD
ENDROOT
BRANCH   1  15
ATOM     15  C   UNL     1       1.877   8.212  20.906  0.00  0.00    +0.000 C 
BRANCH  15  16
ATOM     16  C   UNL     1       0.559   8.984  20.812  0.00  0.00    +0.000 C 
ATOM     17  O   UNL     1       0.369   9.920  20.044  0.00  0.00    +0.000 OA
BRANCH  16  18
ATOM     18  O   UNL     1      -0.303   8.600  21.800  0.00  0.00    +0.000 OA
BRANCH  18  20
ATOM     19  C   UNL     1      -0.988  10.581  23.065  0.00  0.00    +0.000 C 
ATOM     20  C   UNL     1      -0.177   9.302  23.046  0.00  0.00    +0.000 C 
ENDBRANCH  18  20
ENDBRANCH  16  18
ENDBRANCH  15  16
ENDBRANCH   1  15
BRANCH   7  21
ATOM     21  C   UNL     1       4.785   3.928  16.360  0.00  0.00    +0.000 C 
BRANCH  21  22
ATOM     22  C   UNL     1       5.915   4.063  15.351  0.00  0.00    +0.000 C 
ATOM     23  O   UNL     1       7.109   4.107  15.624  0.00  0.00    +0.000 OA
BRANCH  22  24
ATOM     24  O   UNL     1       5.398   4.227  14.102  0.00  0.00    +0.000 OA
BRANCH  24  25
ATOM     25  C   UNL     1       6.132   3.604  13.041  0.00  0.00    +0.000 C 
ATOM     26  C   UNL     1       5.155   3.284  11.924  0.00  0.00    +0.000 C 
ENDBRANCH  24  25
ENDBRANCH  22  24
ENDBRANCH  21  22
ENDBRANCH   7  21
TORSDOF 8
ENDMDL
MODEL 6
REMARK VINA RESULT:      -4.8      8.370     12.038
REMARK  Name = 
REMARK  10 active torsions:
REMARK  status: ('A' for Active; 'I' for Inactive)
REMARK    1  A    between atoms: C_1  and  C_2
REMARK    2  A    between atoms: C_2  and  O_3
REMARK    3  A    between atoms: O_3  and  C_4
REMARK    4  A    between atoms: C_4  and  C_6
REMARK    5  A    between atoms: C_6  and  N_7
REMARK    6  A    between atoms: N_13  and  C_14
REMARK    7  A    between atoms: C_14  and  C_15
REMARK    8  A    between atoms: C_15  and  O_17
REMARK    9  A    between atoms: O_17  and  C_18
REMARK   10  A    between atoms: C_18  and  C_19
REMARK                            x       y       z     vdW  Elec       q    Type
REMARK                         _______ _______ _______ _____ _____    ______ ____
ROOT
ATOM      1  N   UNL     1      -2.324  13.123  22.129  0.00  0.00    +0.000 NA
ATOM      2  C   UNL     1      -2.117  14.588  22.065  0.00  0.00    +0.000 C 
ATOM      3  C   UNL     1      -0.939  14.950  21.124  0.00  0.00    +0.000 C 
ATOM      4  N   UNL     1      -1.375  14.927  19.721  0.00  0.00    +0.000 NA
ATOM      5  C   UNL     1      -0.267  14.765  18.776  0.00  0.00    +0.000 C 
ATOM      6  C   UNL     1       0.124  13.280  18.564  0.00  0.00    +0.000 C 
ATOM      7  N   UNL     1       1.045  12.720  19.578  0.00  0.00    +0.000 NA
ATOM      8  C   UNL     1       0.928  11.251  19.651  0.00  0.00    +0.000 C 
ATOM      9  C   UNL     1      -0.239  10.834  20.581  0.00  0.00    +0.000 C 
ATOM     10  N   UNL     1       0.164  10.952  21.991  0.00  0.00    +0.000 NA
ATOM     11  C   UNL     1      -0.994  11.072  22.887  0.00  0.00    +0.000 C 
ATOM     12  C   UNL     1      -1.417  12.540  23.149  0.00  0.00    +0.000 C 
ATOM     13  H   UNL     1      -1.883  15.787  19.524  0.00  0.00    +0.000 HD
ATOM     14  H   UNL     1       0.736  11.794  22.068  0.00  0.00    +0.000 HD
ENDROOT
BRANCH   1  15
ATOM     15  C   UNL     1      -3.722  12.760  22.453  0.00  0.00    +0.000 C 
BRANCH  15  16
ATOM     16  C   UNL     1      -4.623  12.493  21.245  0.00  0.00    +0.000 C 
ATOM     17  O   UNL     1      -4.286  12.694  20.084  0.00  0.00    +0.000 OA
BRANCH  16  18
ATOM     18  O   UNL     1      -5.888  12.164  21.644  0.00  0.00    +0.000 OA
BRANCH  18  20
ATOM     19  C   UNL     1      -7.290  10.659  20.316  0.00  0.00    +0.000 C 
ATOM     20  C   UNL     1      -6.871  12.087  20.601  0.00  0.00    +0.000 C 
ENDBRANCH  18  20
ENDBRANCH  16  18
ENDBRANCH  15  16
ENDBRANCH   1  15
BRANCH   7  21
ATOM     21  C   UNL     1       2.435  13.172  19.387  0.00  0.00    +0.000 C 
BRANCH  21  22
ATOM     22  C   UNL     1       3.008  14.016  20.516  0.00  0.00    +0.000 C 
ATOM     23  O   UNL     1       2.722  13.902  21.702  0.00  0.00    +0.000 OA
BRANCH  22  24
ATOM     24  O   UNL     1       3.814  14.985  20.001  0.00  0.00    +0.000 OA
BRANCH  24  25
ATOM     25  C   UNL     1       3.147  16.173  19.556  0.00  0.00    +0.000 C 
ATOM     26  C   UNL     1       3.669  17.336  20.381  0.00  0.00    +0.000 C 
ENDBRANCH  24  25
ENDBRANCH  22  24
ENDBRANCH  21  22
ENDBRANCH   7  21
TORSDOF 8
ENDMDL
MODEL 7
REMARK VINA RESULT:      -4.7      1.475      1.881
REMARK  Name = 
REMARK  10 active torsions:
REMARK  status: ('A' for Active; 'I' for Inactive)
REMARK    1  A    between atoms: C_1  and  C_2
REMARK    2  A    between atoms: C_2  and  O_3
REMARK    3  A    between atoms: O_3  and  C_4
REMARK    4  A    between atoms: C_4  and  C_6
REMARK    5  A    between atoms: C_6  and  N_7
REMARK    6  A    between atoms: N_13  and  C_14
REMARK    7  A    between atoms: C_14  and  C_15
REMARK    8  A    between atoms: C_15  and  O_17
REMARK    9  A    between atoms: O_17  and  C_18
REMARK   10  A    between atoms: C_18  and  C_19
REMARK                            x       y       z     vdW  Elec       q    Type
REMARK                         _______ _______ _______ _____ _____    ______ ____
ROOT
ATOM      1  N   UNL     1       5.832   6.659  16.873  0.00  0.00    +0.000 NA
ATOM      2  C   UNL     1       4.894   7.320  17.809  0.00  0.00    +0.000 C 
ATOM      3  C   UNL     1       3.977   6.286  18.512  0.00  0.00    +0.000 C 
ATOM      4  N   UNL     1       4.683   5.650  19.633  0.00  0.00    +0.000 NA
ATOM      5  C   UNL     1       4.106   4.360  20.020  0.00  0.00    +0.000 C 
ATOM      6  C   UNL     1       4.638   3.185  19.160  0.00  0.00    +0.000 C 
ATOM      7  N   UNL     1       3.947   2.987  17.867  0.00  0.00    +0.000 NA
ATOM      8  C   UNL     1       4.812   2.279  16.904  0.00  0.00    +0.000 C 
ATOM      9  C   UNL     1       5.753   3.270  16.172  0.00  0.00    +0.000 C 
ATOM     10  N   UNL     1       5.020   3.982  15.112  0.00  0.00    +0.000 NA
ATOM     11  C   UNL     1       5.673   5.246  14.745  0.00  0.00    +0.000 C 
ATOM     12  C   UNL     1       5.164   6.460  15.562  0.00  0.00    +0.000 C 
ATOM     13  H   UNL     1       4.681   6.289  20.425  0.00  0.00    +0.000 HD
ATOM     14  H   UNL     1       4.087   4.180  15.478  0.00  0.00    +0.000 HD
ENDROOT
BRANCH   1  15
ATOM     15  C   UNL     1       7.077   7.433  16.674  0.00  0.00    +0.000 C 
BRANCH  15  16
ATOM     16  C   UNL     1       7.857   7.753  17.951  0.00  0.00    +0.000 C 
ATOM     17  O   UNL     1       8.140   6.920  18.805  0.00  0.00    +0.000 OA
BRANCH  16  18
ATOM     18  O   UNL     1       8.045   9.100  18.084  0.00  0.00    +0.000 OA
BRANCH  18  20
ATOM     19  C   UNL     1       9.459  10.945  18.854  0.00  0.00    +0.000 C 
ATOM     20  C   UNL     1       9.040   9.501  19.039  0.00  0.00    +0.000 C 
ENDBRANCH  18  20
ENDBRANCH  16  18
ENDBRANCH  15  16
ENDBRANCH   1  15
BRANCH   7  21
ATOM     21  C   UNL     1       2.628   2.348  18.025  0.00  0.00    +0.000 C 
BRANCH  21  22
ATOM     22  C   UNL     1       1.447   3.304  18.112  0.00  0.00    +0.000 C 
ATOM     23  O   UNL     1       1.270   4.282  17.396  0.00  0.00    +0.000 OA
BRANCH  22  24
ATOM     24  O   UNL     1       0.662   2.966  19.173  0.00  0.00    +0.000 OA
BRANCH  24  25
ATOM     25  C   UNL     1       0.864   3.740  20.363  0.00  0.00    +0.000 C 
ATOM     26  C   UNL     1       1.267   2.788  21.474  0.00  0.00    +0.000 C 
ENDBRANCH  24  25
ENDBRANCH  22  24
ENDBRANCH  21  22
ENDBRANCH   7  21
TORSDOF 8
ENDMDL
MODEL 8
REMARK VINA RESULT:      -4.7      2.581      6.954
REMARK  Name = 
REMARK  10 active torsions:
REMARK  status: ('A' for Active; 'I' for Inactive)
REMARK    1  A    between atoms: C_1  and  C_2
REMARK    2  A    between atoms: C_2  and  O_3
REMARK    3  A    between atoms: O_3  and  C_4
REMARK    4  A    between atoms: C_4  and  C_6
REMARK    5  A    between atoms: C_6  and  N_7
REMARK    6  A    between atoms: N_13  and  C_14
REMARK    7  A    between atoms: C_14  and  C_15
REMARK    8  A    between atoms: C_15  and  O_17
REMARK    9  A    between atoms: O_17  and  C_18
REMARK   10  A    between atoms: C_18  and  C_19
REMARK                            x       y       z     vdW  Elec       q    Type
REMARK                         _______ _______ _______ _____ _____    ______ ____
ROOT
ATOM      1  N   UNL     1       2.367   4.759  19.116  0.00  0.00    +0.000 NA
ATOM      2  C   UNL     1       1.897   3.591  18.338  0.00  0.00    +0.000 C 
ATOM      3  C   UNL     1       2.778   3.358  17.084  0.00  0.00    +0.000 C 
ATOM      4  N   UNL     1       4.012   2.648  17.446  0.00  0.00    +0.000 NA
ATOM      5  C   UNL     1       5.087   2.824  16.467  0.00  0.00    +0.000 C 
ATOM      6  C   UNL     1       5.898   4.126  16.697  0.00  0.00    +0.000 C 
ATOM      7  N   UNL     1       5.306   5.348  16.111  0.00  0.00    +0.000 NA
ATOM      8  C   UNL     1       5.781   6.558  16.809  0.00  0.00    +0.000 C 
ATOM      9  C   UNL     1       4.932   6.837  18.075  0.00  0.00    +0.000 C 
ATOM     10  N   UNL     1       3.651   7.458  17.704  0.00  0.00    +0.000 NA
ATOM     11  C   UNL     1       2.630   7.278  18.746  0.00  0.00    +0.000 C 
ATOM     12  C   UNL     1       1.776   5.999  18.554  0.00  0.00    +0.000 C 
ATOM     13  H   UNL     1       3.798   1.660  17.561  0.00  0.00    +0.000 HD
ATOM     14  H   UNL     1       3.337   7.003  16.846  0.00  0.00    +0.000 HD
ENDROOT
BRANCH   1  15
ATOM     15  C   UNL     1       2.022   4.662  20.552  0.00  0.00    +0.000 C 
BRANCH  15  16
ATOM     16  C   UNL     1       1.934   3.238  21.107  0.00  0.00    +0.000 C 
ATOM     17  O   UNL     1       0.890   2.600  21.187  0.00  0.00    +0.000 OA
BRANCH  16  18
ATOM     18  O   UNL     1       3.128   2.850  21.646  0.00  0.00    +0.000 OA
BRANCH  18  20
ATOM     19  C   UNL     1       4.842   1.326  20.788  0.00  0.00    +0.000 C 
ATOM     20  C   UNL     1       4.214   2.702  20.717  0.00  0.00    +0.000 C 
ENDBRANCH  18  20
ENDBRANCH  16  18
ENDBRANCH  15  16
ENDBRANCH   1  15
BRANCH   7  21
ATOM     21  C   UNL     1       5.495   5.422  14.650  0.00  0.00    +0.000 C 
BRANCH  21  22
ATOM     22  C   UNL     1       6.793   4.824  14.130  0.00  0.00    +0.000 C 
ATOM     23  O   UNL     1       7.883   5.385  14.126  0.00  0.00    +0.000 OA
BRANCH  22  24
ATOM     24  O   UNL     1       6.547   3.604  13.576  0.00  0.00    +0.000 OA
BRANCH  24  25
ATOM     25  C   UNL     1       6.408   3.589  12.149  0.00  0.00    +0.000 C 
ATOM     26  C   UNL     1       4.972   3.219  11.825  0.00  0.00    +0.000 C 
ENDBRANCH  24  25
ENDBRANCH  22  24
ENDBRANCH  21  22
ENDBRANCH   7  21
TORSDOF 8
ENDMDL
MODEL 9
REMARK VINA RESULT:      -4.7      7.399      9.183
REMARK  Name = 
REMARK  10 active torsions:
REMARK  status: ('A' for Active; 'I' for Inactive)
REMARK    1  A    between atoms: C_1  and  C_2
REMARK    2  A    between atoms: C_2  and  O_3
REMARK    3  A    between atoms: O_3  and  C_4
REMARK    4  A    between atoms: C_4  and  C_6
REMARK    5  A    between atoms: C_6  and  N_7
REMARK    6  A    between atoms: N_13  and  C_14
REMARK    7  A    between atoms: C_14  and  C_15
REMARK    8  A    between atoms: C_15  and  O_17
REMARK    9  A    between atoms: O_17  and  C_18
REMARK   10  A    between atoms: C_18  and  C_19
REMARK                            x       y       z     vdW  Elec       q    Type
REMARK                         _______ _______ _______ _____ _____    ______ ____
ROOT
ATOM      1  N   UNL     1       1.207  14.532  21.224  0.00  0.00    +0.000 NA
ATOM      2  C   UNL     1       0.010  14.432  22.090  0.00  0.00    +0.000 C 
ATOM      3  C   UNL     1      -0.751  13.104  21.846  0.00  0.00    +0.000 C 
ATOM      4  N   UNL     1      -0.107  12.000  22.570  0.00  0.00    +0.000 NA
ATOM      5  C   UNL     1      -0.435  10.681  22.023  0.00  0.00    +0.000 C 
ATOM      6  C   UNL     1       0.474  10.286  20.830  0.00  0.00    +0.000 C 
ATOM      7  N   UNL     1       0.056  10.820  19.516  0.00  0.00    +0.000 NA
ATOM      8  C   UNL     1       1.198  10.893  18.583  0.00  0.00    +0.000 C 
ATOM      9  C   UNL     1       1.996  12.205  18.786  0.00  0.00    +0.000 C 
ATOM     10  N   UNL     1       1.300  13.332  18.146  0.00  0.00    +0.000 NA
ATOM     11  C   UNL     1       1.704  14.625  18.715  0.00  0.00    +0.000 C 
ATOM     12  C   UNL     1       0.815  15.078  19.900  0.00  0.00    +0.000 C 
ATOM     13  H   UNL     1      -0.376  12.051  23.551  0.00  0.00    +0.000 HD
ATOM     14  H   UNL     1       0.301  13.193  18.306  0.00  0.00    +0.000 HD
ENDROOT
BRANCH   1  15
ATOM     15  C   UNL     1       2.264  15.386  21.811  0.00  0.00    +0.000 C 
BRANCH  15  16
ATOM     16  C   UNL     1       3.657  14.756  21.865  0.00  0.00    +0.000 C 
ATOM     17  O   UNL     1       4.298  14.430  20.872  0.00  0.00    +0.000 OA
BRANCH  16  18
ATOM     18  O   UNL     1       4.008  14.459  23.151  0.00  0.00    +0.000 OA
BRANCH  18  20
ATOM     19  C   UNL     1       5.706  16.138  23.692  0.00  0.00    +0.000 C 
ATOM     20  C   UNL     1       5.388  14.671  23.487  0.00  0.00    +0.000 C 
ENDBRANCH  18  20
ENDBRANCH  16  18
ENDBRANCH  15  16
ENDBRANCH   1  15
BRANCH   7  21
ATOM     21  C   UNL     1      -1.095  10.093  18.951  0.00  0.00    +0.000 C 
BRANCH  21  22
ATOM     22  C   UNL     1      -1.773  10.764  17.766  0.00  0.00    +0.000 C 
ATOM     23  O   UNL     1      -1.788  11.970  17.546  0.00  0.00    +0.000 OA
BRANCH  22  24
ATOM     24  O   UNL     1      -2.447   9.833  17.036  0.00  0.00    +0.000 OA
BRANCH  24  25
ATOM     25  C   UNL     1      -3.457  10.347  16.158  0.00  0.00    +0.000 C 
ATOM     26  C   UNL     1      -2.999  10.107  14.731  0.00  0.00    +0.000 C 
ENDBRANCH  24  25
ENDBRANCH  22  24
ENDBRANCH  21  22
ENDBRANCH   7  21
TORSDOF 8
ENDMDL
