MODEL 1
REMARK VINA RESULT:      -8.9      0.000      0.000
REMARK  Name = 
REMARK  8 active torsions:
REMARK  status: ('A' for Active; 'I' for Inactive)
REMARK    1  A    between atoms: C_1  and  C_2
REMARK    2  A    between atoms: C_2  and  C_3
REMARK    3  A    between atoms: C_3  and  C_4
REMARK    4  A    between atoms: C_4  and  C_5
REMARK    5  A    between atoms: C_5  and  C_6
REMARK    6  A    between atoms: C_6  and  O_7
REMARK    7  A    between atoms: O_7  and  C_8
REMARK    8  A    between atoms: C_11  and  C_12
REMARK                            x       y       z     vdW  Elec       q    Type
REMARK                         _______ _______ _______ _____ _____    ______ ____
ROOT
ATOM      1  C   UNL     1       4.066   5.252  19.262  0.00  0.00    +0.000 C 
ATOM      2  C   UNL     1       3.126   4.068  19.102  0.00  0.00    +0.000 C 
ATOM      3  C   UNL     1       1.860   4.276  18.677  0.00  0.00    +0.000 C 
ATOM      4  C   UNL     1       0.838   3.174  18.730  0.00  0.00    +0.000 C 
ATOM      5  C   UNL     1       1.475   1.808  18.491  0.00  0.00    +0.000 C 
ATOM      6  C   UNL     1       2.660   1.571  19.418  0.00  0.00    +0.000 C 
ATOM      7  C   UNL     1       3.658   2.697  19.320  0.00  0.00    +0.000 C 
ATOM      8  O   UNL     1       4.864   2.488  19.430  0.00  0.00    +0.000 OA
ATOM      9  N   UNL     1       1.482   5.541  18.171  0.00  0.00    +0.000 N 
ATOM     10  C   UNL     1       2.352   6.646  18.322  0.00  0.00    +0.000 C 
ATOM     11  C   UNL     1       3.231   6.532  19.332  0.00  0.00    +0.000 C 
ATOM     12  C   UNL     1       2.286   7.145  20.396  0.00  0.00    +0.000 C 
ATOM     13  O   UNL     1       1.999   6.689  21.518  0.00  0.00    +0.000 OA
ATOM     14  C   UNL     1       1.585   8.280  19.709  0.00  0.00    +0.000 A 
ATOM     15  C   UNL     1       0.959   9.477  20.038  0.00  0.00    +0.000 A 
ATOM     16  C   UNL     1       0.932  10.480  19.044  0.00  0.00    +0.000 A 
ATOM     17  C   UNL     1       1.559  10.277  17.801  0.00  0.00    +0.000 A 
ATOM     18  C   UNL     1       2.016   9.010  17.465  0.00  0.00    +0.000 A 
ATOM     19  C   UNL     1       1.867   8.001  18.395  0.00  0.00    +0.000 A 
ATOM     20  H   UNL     1       0.504   5.768  18.350  0.00  0.00    +0.000 HD
ENDROOT
BRANCH   1  24
ATOM     21  C   UNL     1       6.895   5.223  15.833  0.00  0.00    +0.000 A 
ATOM     22  C   UNL     1       7.271   4.813  17.100  0.00  0.00    +0.000 A 
ATOM     23  C   UNL     1       6.390   4.835  18.177  0.00  0.00    +0.000 A 
ATOM     24  C   UNL     1       5.065   5.298  18.042  0.00  0.00    +0.000 A 
ATOM     25  C   UNL     1       4.681   5.709  16.755  0.00  0.00    +0.000 A 
ATOM     26  C   UNL     1       5.578   5.673  15.654  0.00  0.00    +0.000 A 
BRANCH  21  27
ATOM     27  O   UNL     1       7.769   5.146  14.762  0.00  0.00    +0.000 OA
BRANCH  27  28
ATOM     28  C   UNL     1       7.107   4.971  13.475  0.00  0.00    +0.000 C 
BRANCH  28  29
ATOM     29  C   UNL     1       6.348   3.653  13.432  0.00  0.00    +0.000 C 
BRANCH  29  30
ATOM     30  C   UNL     1       5.801   3.361  12.030  0.00  0.00    +0.000 C 
BRANCH  30  31
ATOM     31  C   UNL     1       4.272   3.426  11.988  0.00  0.00    +0.000 C 
BRANCH  31  33
ATOM     32  C   UNL     1       3.075   4.206   9.906  0.00  0.00    +0.000 C 
ATOM     33  C   UNL     1       3.730   3.028  10.612  0.00  0.00    +0.000 C 
ENDBRANCH  31  33
ENDBRANCH  30  31
ENDBRANCH  29  30
ENDBRANCH  28  29
ENDBRANCH  27  28
ENDBRANCH  21  27
ENDBRANCH   1  24
TORSDOF 7
ENDMDL
MODEL 2
REMARK VINA RESULT:      -8.7      0.906      1.350
REMARK  Name = 
REMARK  8 active torsions:
REMARK  status: ('A' for Active; 'I' for Inactive)
REMARK    1  A    between atoms: C_1  and  C_2
REMARK    2  A    between atoms: C_2  and  C_3
REMARK    3  A    between atoms: C_3  and  C_4
REMARK    4  A    between atoms: C_4  and  C_5
REMARK    5  A    between atoms: C_5  and  C_6
REMARK    6  A    between atoms: C_6  and  O_7
REMARK    7  A    between atoms: O_7  and  C_8
REMARK    8  A    between atoms: C_11  and  C_12
REMARK                            x       y       z     vdW  Elec       q    Type
REMARK                         _______ _______ _______ _____ _____    ______ ____
ROOT
ATOM      1  C   UNL     1       3.978   5.342  19.408  0.00  0.00    +0.000 C 
ATOM      2  C   UNL     1       3.052   4.159  19.186  0.00  0.00    +0.000 C 
ATOM      3  C   UNL     1       1.813   4.368  18.685  0.00  0.00    +0.000 C 
ATOM      4  C   UNL     1       0.791   3.265  18.670  0.00  0.00    +0.000 C 
ATOM      5  C   UNL     1       1.442   1.901  18.464  0.00  0.00    +0.000 C 
ATOM      6  C   UNL     1       2.569   1.660  19.460  0.00  0.00    +0.000 C 
ATOM      7  C   UNL     1       3.570   2.787  19.430  0.00  0.00    +0.000 C 
ATOM      8  O   UNL     1       4.767   2.578  19.612  0.00  0.00    +0.000 OA
ATOM      9  N   UNL     1       1.466   5.635  18.163  0.00  0.00    +0.000 N 
ATOM     10  C   UNL     1       2.323   6.740  18.372  0.00  0.00    +0.000 C 
ATOM     11  C   UNL     1       3.139   6.622  19.433  0.00  0.00    +0.000 C 
ATOM     12  C   UNL     1       2.131   7.229  20.441  0.00  0.00    +0.000 C 
ATOM     13  O   UNL     1       1.776   6.767  21.541  0.00  0.00    +0.000 OA
ATOM     14  C   UNL     1       1.472   8.367  19.718  0.00  0.00    +0.000 A 
ATOM     15  C   UNL     1       0.826   9.561  20.014  0.00  0.00    +0.000 A 
ATOM     16  C   UNL     1       0.859  10.569  19.025  0.00  0.00    +0.000 A 
ATOM     17  C   UNL     1       1.561  10.373  17.822  0.00  0.00    +0.000 A 
ATOM     18  C   UNL     1       2.038   9.108  17.508  0.00  0.00    +0.000 A 
ATOM     19  C   UNL     1       1.834   8.094  18.422  0.00  0.00    +0.000 A 
ATOM     20  H   UNL     1       0.478   5.861  18.283  0.00  0.00    +0.000 HD
ENDROOT
BRANCH   1  24
ATOM     21  C   UNL     1       6.904   5.589  16.071  0.00  0.00    +0.000 A 
ATOM     22  C   UNL     1       5.642   5.047  15.903  0.00  0.00    +0.000 A 
ATOM     23  C   UNL     1       4.730   4.956  16.950  0.00  0.00    +0.000 A 
ATOM     24  C   UNL     1       5.051   5.395  18.252  0.00  0.00    +0.000 A 
ATOM     25  C   UNL     1       6.329   5.950  18.422  0.00  0.00    +0.000 A 
ATOM     26  C   UNL     1       7.253   6.054  17.348  0.00  0.00    +0.000 A 
BRANCH  21  27
ATOM     27  O   UNL     1       7.779   5.718  15.005  0.00  0.00    +0.000 OA
BRANCH  27  28
ATOM     28  C   UNL     1       7.680   4.638  14.031  0.00  0.00    +0.000 C 
BRANCH  28  29
ATOM     29  C   UNL     1       7.693   5.187  12.612  0.00  0.00    +0.000 C 
BRANCH  29  30
ATOM     30  C   UNL     1       6.958   4.258  11.639  0.00  0.00    +0.000 C 
BRANCH  30  31
ATOM     31  C   UNL     1       6.002   3.309  12.368  0.00  0.00    +0.000 C 
BRANCH  31  33
ATOM     32  C   UNL     1       6.456   1.151  11.140  0.00  0.00    +0.000 C 
ATOM     33  C   UNL     1       5.437   2.245  11.423  0.00  0.00    +0.000 C 
ENDBRANCH  31  33
ENDBRANCH  30  31
ENDBRANCH  29  30
ENDBRANCH  28  29
ENDBRANCH  27  28
ENDBRANCH  21  27
ENDBRANCH   1  24
TORSDOF 7
ENDMDL
MODEL 3
REMARK VINA RESULT:      -8.1      2.375      4.617
REMARK  Name = 
REMARK  8 active torsions:
REMARK  status: ('A' for Active; 'I' for Inactive)
REMARK    1  A    between atoms: C_1  and  C_2
REMARK    2  A    between atoms: C_2  and  C_3
REMARK    3  A    between atoms: C_3  and  C_4
REMARK    4  A    between atoms: C_4  and  C_5
REMARK    5  A    between atoms: C_5  and  C_6
REMARK    6  A    between atoms: C_6  and  O_7
REMARK    7  A    between atoms: O_7  and  C_8
REMARK    8  A    between atoms: C_11  and  C_12
REMARK                            x       y       z     vdW  Elec       q    Type
REMARK                         _______ _______ _______ _____ _____    ______ ____
ROOT
ATOM      1  C   UNL     1       4.949   6.034  17.216  0.00  0.00    +0.000 C 
ATOM      2  C   UNL     1       6.151   6.068  18.143  0.00  0.00    +0.000 C 
ATOM      3  C   UNL     1       6.204   5.221  19.196  0.00  0.00    +0.000 C 
ATOM      4  C   UNL     1       7.253   5.379  20.262  0.00  0.00    +0.000 C 
ATOM      5  C   UNL     1       8.561   5.911  19.685  0.00  0.00    +0.000 C 
ATOM      6  C   UNL     1       8.341   7.177  18.867  0.00  0.00    +0.000 C 
ATOM      7  C   UNL     1       7.290   6.963  17.809  0.00  0.00    +0.000 C 
ATOM      8  O   UNL     1       7.367   7.520  16.715  0.00  0.00    +0.000 OA
ATOM      9  N   UNL     1       5.268   4.167  19.304  0.00  0.00    +0.000 N 
ATOM     10  C   UNL     1       4.144   4.135  18.445  0.00  0.00    +0.000 C 
ATOM     11  C   UNL     1       3.797   5.328  17.935  0.00  0.00    +0.000 C 
ATOM     12  C   UNL     1       2.869   5.710  19.116  0.00  0.00    +0.000 C 
ATOM     13  O   UNL     1       2.859   6.768  19.770  0.00  0.00    +0.000 OA
ATOM     14  C   UNL     1       2.143   4.449  19.483  0.00  0.00    +0.000 A 
ATOM     15  C   UNL     1       0.953   4.065  20.090  0.00  0.00    +0.000 A 
ATOM     16  C   UNL     1       0.429   2.803  19.732  0.00  0.00    +0.000 A 
ATOM     17  C   UNL     1       1.071   2.006  18.767  0.00  0.00    +0.000 A 
ATOM     18  C   UNL     1       2.338   2.358  18.323  0.00  0.00    +0.000 A 
ATOM     19  C   UNL     1       2.903   3.513  18.828  0.00  0.00    +0.000 A 
ATOM     20  H   UNL     1       5.046   3.925  20.270  0.00  0.00    +0.000 HD
ENDROOT
BRANCH   1  24
ATOM     21  C   UNL     1       6.167   3.973  13.471  0.00  0.00    +0.000 A 
ATOM     22  C   UNL     1       6.012   5.346  13.536  0.00  0.00    +0.000 A 
ATOM     23  C   UNL     1       5.617   5.992  14.705  0.00  0.00    +0.000 A 
ATOM     24  C   UNL     1       5.331   5.276  15.886  0.00  0.00    +0.000 A 
ATOM     25  C   UNL     1       5.493   3.883  15.821  0.00  0.00    +0.000 A 
ATOM     26  C   UNL     1       5.909   3.228  14.631  0.00  0.00    +0.000 A 
BRANCH  21  27
ATOM     27  O   UNL     1       6.610   3.354  12.314  0.00  0.00    +0.000 OA
BRANCH  27  28
ATOM     28  C   UNL     1       5.605   2.510  11.678  0.00  0.00    +0.000 C 
BRANCH  28  29
ATOM     29  C   UNL     1       4.349   3.308  11.363  0.00  0.00    +0.000 C 
BRANCH  29  30
ATOM     30  C   UNL     1       3.320   2.466  10.601  0.00  0.00    +0.000 C 
BRANCH  30  31
ATOM     31  C   UNL     1       2.312   3.338   9.847  0.00  0.00    +0.000 C 
BRANCH  31  33
ATOM     32  C   UNL     1       1.988   5.460   8.517  0.00  0.00    +0.000 C 
ATOM     33  C   UNL     1       3.001   4.507   9.137  0.00  0.00    +0.000 C 
ENDBRANCH  31  33
ENDBRANCH  30  31
ENDBRANCH  29  30
ENDBRANCH  28  29
ENDBRANCH  27  28
ENDBRANCH  21  27
ENDBRANCH   1  24
TORSDOF 7
ENDMDL
MODEL 4
REMARK VINA RESULT:      -7.9      2.562      7.003
REMARK  Name = 
REMARK  8 active torsions:
REMARK  status: ('A' for Active; 'I' for Inactive)
REMARK    1  A    between atoms: C_1  and  C_2
REMARK    2  A    between atoms: C_2  and  C_3
REMARK    3  A    between atoms: C_3  and  C_4
REMARK    4  A    between atoms: C_4  and  C_5
REMARK    5  A    between atoms: C_5  and  C_6
REMARK    6  A    between atoms: C_6  and  O_7
REMARK    7  A    between atoms: O_7  and  C_8
REMARK    8  A    between atoms: C_11  and  C_12
REMARK                            x       y       z     vdW  Elec       q    Type
REMARK                         _______ _______ _______ _____ _____    ______ ____
ROOT
ATOM      1  C   UNL     1       2.218   5.128  18.407  0.00  0.00    +0.000 C 
ATOM      2  C   UNL     1       2.309   4.150  19.566  0.00  0.00    +0.000 C 
ATOM      3  C   UNL     1       3.518   3.676  19.943  0.00  0.00    +0.000 C 
ATOM      4  C   UNL     1       3.629   2.539  20.922  0.00  0.00    +0.000 C 
ATOM      5  C   UNL     1       2.503   2.574  21.951  0.00  0.00    +0.000 C 
ATOM      6  C   UNL     1       1.136   2.661  21.286  0.00  0.00    +0.000 C 
ATOM      7  C   UNL     1       1.074   3.820  20.324  0.00  0.00    +0.000 C 
ATOM      8  O   UNL     1       0.034   4.457  20.165  0.00  0.00    +0.000 OA
ATOM      9  N   UNL     1       4.698   4.251  19.420  0.00  0.00    +0.000 N 
ATOM     10  C   UNL     1       4.618   5.158  18.337  0.00  0.00    +0.000 C 
ATOM     11  C   UNL     1       3.508   5.038  17.589  0.00  0.00    +0.000 C 
ATOM     12  C   UNL     1       4.108   3.973  16.637  0.00  0.00    +0.000 C 
ATOM     13  O   UNL     1       3.613   2.882  16.300  0.00  0.00    +0.000 OA
ATOM     14  C   UNL     1       5.525   4.402  16.391  0.00  0.00    +0.000 A 
ATOM     15  C   UNL     1       6.512   4.249  15.425  0.00  0.00    +0.000 A 
ATOM     16  C   UNL     1       7.488   5.266  15.340  0.00  0.00    +0.000 A 
ATOM     17  C   UNL     1       7.419   6.400  16.171  0.00  0.00    +0.000 A 
ATOM     18  C   UNL     1       6.519   6.419  17.228  0.00  0.00    +0.000 A 
ATOM     19  C   UNL     1       5.693   5.324  17.393  0.00  0.00    +0.000 A 
ATOM     20  H   UNL     1       5.465   3.583  19.332  0.00  0.00    +0.000 HD
ENDROOT
BRANCH   1  24
ATOM     21  C   UNL     1       1.487   9.252  19.897  0.00  0.00    +0.000 A 
ATOM     22  C   UNL     1       1.718   8.984  18.559  0.00  0.00    +0.000 A 
ATOM     23  C   UNL     1       1.961   7.695  18.093  0.00  0.00    +0.000 A 
ATOM     24  C   UNL     1       2.006   6.588  18.966  0.00  0.00    +0.000 A 
ATOM     25  C   UNL     1       1.766   6.858  20.323  0.00  0.00    +0.000 A 
ATOM     26  C   UNL     1       1.505   8.173  20.794  0.00  0.00    +0.000 A 
BRANCH  21  27
ATOM     27  O   UNL     1       1.197  10.533  20.334  0.00  0.00    +0.000 OA
BRANCH  27  28
ATOM     28  C   UNL     1       0.355  11.290  19.414  0.00  0.00    +0.000 C 
BRANCH  28  29
ATOM     29  C   UNL     1      -1.089  10.818  19.489  0.00  0.00    +0.000 C 
BRANCH  29  30
ATOM     30  C   UNL     1      -1.833  11.063  18.172  0.00  0.00    +0.000 C 
BRANCH  30  31
ATOM     31  C   UNL     1      -1.731   9.863  17.226  0.00  0.00    +0.000 C 
BRANCH  31  33
ATOM     32  C   UNL     1      -3.037  10.819  15.288  0.00  0.00    +0.000 C 
ATOM     33  C   UNL     1      -2.980   9.730  16.350  0.00  0.00    +0.000 C 
ENDBRANCH  31  33
ENDBRANCH  30  31
ENDBRANCH  29  30
ENDBRANCH  28  29
ENDBRANCH  27  28
ENDBRANCH  21  27
ENDBRANCH   1  24
TORSDOF 7
ENDMDL
MODEL 5
REMARK VINA RESULT:      -7.6      7.978     12.629
REMARK  Name = 
REMARK  8 active torsions:
REMARK  status: ('A' for Active; 'I' for Inactive)
REMARK    1  A    between atoms: C_1  and  C_2
REMARK    2  A    between atoms: C_2  and  C_3
REMARK    3  A    between atoms: C_3  and  C_4
REMARK    4  A    between atoms: C_4  and  C_5
REMARK    5  A    between atoms: C_5  and  C_6
REMARK    6  A    between atoms: C_6  and  O_7
REMARK    7  A    between atoms: O_7  and  C_8
REMARK    8  A    between atoms: C_11  and  C_12
REMARK                            x       y       z     vdW  Elec       q    Type
REMARK                         _______ _______ _______ _____ _____    ______ ____
ROOT
ATOM      1  C   UNL     1      -1.004  12.589  21.226  0.00  0.00    +0.000 C 
ATOM      2  C   UNL     1      -0.125  13.750  20.794  0.00  0.00    +0.000 C 
ATOM      3  C   UNL     1      -0.139  14.151  19.503  0.00  0.00    +0.000 C 
ATOM      4  C   UNL     1       0.878  15.132  18.989  0.00  0.00    +0.000 C 
ATOM      5  C   UNL     1       1.278  16.139  20.064  0.00  0.00    +0.000 C 
ATOM      6  C   UNL     1       1.708  15.447  21.350  0.00  0.00    +0.000 C 
ATOM      7  C   UNL     1       0.652  14.483  21.827  0.00  0.00    +0.000 C 
ATOM      8  O   UNL     1       0.453  14.303  23.027  0.00  0.00    +0.000 OA
ATOM      9  N   UNL     1      -1.121  13.652  18.617  0.00  0.00    +0.000 N 
ATOM     10  C   UNL     1      -1.939  12.567  19.014  0.00  0.00    +0.000 C 
ATOM     11  C   UNL     1      -1.414  11.797  19.982  0.00  0.00    +0.000 C 
ATOM     12  C   UNL     1      -0.661  10.857  19.007  0.00  0.00    +0.000 C 
ATOM     13  O   UNL     1       0.534  10.511  19.047  0.00  0.00    +0.000 OA
ATOM     14  C   UNL     1      -1.594  10.640  17.852  0.00  0.00    +0.000 A 
ATOM     15  C   UNL     1      -1.832   9.693  16.862  0.00  0.00    +0.000 A 
ATOM     16  C   UNL     1      -3.143   9.628  16.342  0.00  0.00    +0.000 A 
ATOM     17  C   UNL     1      -4.161  10.456  16.848  0.00  0.00    +0.000 A 
ATOM     18  C   UNL     1      -3.831  11.495  17.709  0.00  0.00    +0.000 A 
ATOM     19  C   UNL     1      -2.505  11.645  18.064  0.00  0.00    +0.000 A 
ATOM     20  H   UNL     1      -0.793  13.580  17.654  0.00  0.00    +0.000 HD
ENDROOT
BRANCH   1  24
ATOM     21  C   UNL     1      -4.651  14.166  23.220  0.00  0.00    +0.000 A 
ATOM     22  C   UNL     1      -3.896  14.937  22.353  0.00  0.00    +0.000 A 
ATOM     23  C   UNL     1      -2.746  14.449  21.739  0.00  0.00    +0.000 A 
ATOM     24  C   UNL     1      -2.273  13.143  21.983  0.00  0.00    +0.000 A 
ATOM     25  C   UNL     1      -3.042  12.359  22.858  0.00  0.00    +0.000 A 
ATOM     26  C   UNL     1      -4.223  12.854  23.473  0.00  0.00    +0.000 A 
BRANCH  21  27
ATOM     27  O   UNL     1      -5.820  14.652  23.781  0.00  0.00    +0.000 OA
BRANCH  27  28
ATOM     28  C   UNL     1      -6.996  14.467  22.939  0.00  0.00    +0.000 C 
BRANCH  28  29
ATOM     29  C   UNL     1      -7.912  13.398  23.517  0.00  0.00    +0.000 C 
BRANCH  29  30
ATOM     30  C   UNL     1      -7.696  12.041  22.839  0.00  0.00    +0.000 C 
BRANCH  30  31
ATOM     31  C   UNL     1      -7.782  12.143  21.313  0.00  0.00    +0.000 C 
BRANCH  31  33
ATOM     32  C   UNL     1      -5.824  12.898  19.910  0.00  0.00    +0.000 C 
ATOM     33  C   UNL     1      -6.467  11.731  20.646  0.00  0.00    +0.000 C 
ENDBRANCH  31  33
ENDBRANCH  30  31
ENDBRANCH  29  30
ENDBRANCH  28  29
ENDBRANCH  27  28
ENDBRANCH  21  27
ENDBRANCH   1  24
TORSDOF 7
ENDMDL
MODEL 6
REMARK VINA RESULT:      -7.4      2.535      7.776
REMARK  Name = 
REMARK  8 active torsions:
REMARK  status: ('A' for Active; 'I' for Inactive)
REMARK    1  A    between atoms: C_1  and  C_2
REMARK    2  A    between atoms: C_2  and  C_3
REMARK    3  A    between atoms: C_3  and  C_4
REMARK    4  A    between atoms: C_4  and  C_5
REMARK    5  A    between atoms: C_5  and  C_6
REMARK    6  A    between atoms: C_6  and  O_7
REMARK    7  A    between atoms: O_7  and  C_8
REMARK    8  A    between atoms: C_11  and  C_12
REMARK                            x       y       z     vdW  Elec       q    Type
REMARK                         _______ _______ _______ _____ _____    ______ ____
ROOT
ATOM      1  C   UNL     1       2.219   5.109  18.381  0.00  0.00    +0.000 C 
ATOM      2  C   UNL     1       2.320   4.143  19.549  0.00  0.00    +0.000 C 
ATOM      3  C   UNL     1       3.530   3.665  19.915  0.00  0.00    +0.000 C 
ATOM      4  C   UNL     1       3.648   2.538  20.904  0.00  0.00    +0.000 C 
ATOM      5  C   UNL     1       2.536   2.591  21.948  0.00  0.00    +0.000 C 
ATOM      6  C   UNL     1       1.161   2.680  21.301  0.00  0.00    +0.000 C 
ATOM      7  C   UNL     1       1.093   3.829  20.327  0.00  0.00    +0.000 C 
ATOM      8  O   UNL     1       0.056   4.471  20.175  0.00  0.00    +0.000 OA
ATOM      9  N   UNL     1       4.707   4.227  19.370  0.00  0.00    +0.000 N 
ATOM     10  C   UNL     1       4.618   5.123  18.279  0.00  0.00    +0.000 C 
ATOM     11  C   UNL     1       3.498   5.002  17.547  0.00  0.00    +0.000 C 
ATOM     12  C   UNL     1       4.078   3.923  16.598  0.00  0.00    +0.000 C 
ATOM     13  O   UNL     1       3.571   2.832  16.280  0.00  0.00    +0.000 OA
ATOM     14  C   UNL     1       5.494   4.340  16.329  0.00  0.00    +0.000 A 
ATOM     15  C   UNL     1       6.467   4.170  15.351  0.00  0.00    +0.000 A 
ATOM     16  C   UNL     1       7.448   5.180  15.243  0.00  0.00    +0.000 A 
ATOM     17  C   UNL     1       7.397   6.323  16.062  0.00  0.00    +0.000 A 
ATOM     18  C   UNL     1       6.512   6.359  17.130  0.00  0.00    +0.000 A 
ATOM     19  C   UNL     1       5.681   5.272  17.319  0.00  0.00    +0.000 A 
ATOM     20  H   UNL     1       5.468   3.553  19.279  0.00  0.00    +0.000 HD
ENDROOT
BRANCH   1  24
ATOM     21  C   UNL     1       1.535   9.253  19.836  0.00  0.00    +0.000 A 
ATOM     22  C   UNL     1       1.748   8.970  18.499  0.00  0.00    +0.000 A 
ATOM     23  C   UNL     1       1.976   7.674  18.044  0.00  0.00    +0.000 A 
ATOM     24  C   UNL     1       2.024   6.577  18.927  0.00  0.00    +0.000 A 
ATOM     25  C   UNL     1       1.804   6.863  20.284  0.00  0.00    +0.000 A 
ATOM     26  C   UNL     1       1.557   8.184  20.744  0.00  0.00    +0.000 A 
BRANCH  21  27
ATOM     27  O   UNL     1       1.259  10.541  20.263  0.00  0.00    +0.000 OA
BRANCH  27  28
ATOM     28  C   UNL     1       1.001  11.477  19.176  0.00  0.00    +0.000 C 
BRANCH  28  29
ATOM     29  C   UNL     1      -0.401  12.060  19.285  0.00  0.00    +0.000 C 
BRANCH  29  30
ATOM     30  C   UNL     1      -1.247  11.308  20.319  0.00  0.00    +0.000 C 
BRANCH  30  31
ATOM     31  C   UNL     1      -1.696  12.222  21.463  0.00  0.00    +0.000 C 
BRANCH  31  33
ATOM     32  C   UNL     1      -0.904  10.422  23.047  0.00  0.00    +0.000 C 
ATOM     33  C   UNL     1      -0.937  11.916  22.757  0.00  0.00    +0.000 C 
ENDBRANCH  31  33
ENDBRANCH  30  31
ENDBRANCH  29  30
ENDBRANCH  28  29
ENDBRANCH  27  28
ENDBRANCH  21  27
ENDBRANCH   1  24
TORSDOF 7
ENDMDL
MODEL 7
REMARK VINA RESULT:      -7.4      7.961     12.674
REMARK  Name = 
REMARK  8 active torsions:
REMARK  status: ('A' for Active; 'I' for Inactive)
REMARK    1  A    between atoms: C_1  and  C_2
REMARK    2  A    between atoms: C_2  and  C_3
REMARK    3  A    between atoms: C_3  and  C_4
REMARK    4  A    between atoms: C_4  and  C_5
REMARK    5  A    between atoms: C_5  and  C_6
REMARK    6  A    between atoms: C_6  and  O_7
REMARK    7  A    between atoms: O_7  and  C_8
REMARK    8  A    between atoms: C_11  and  C_12
REMARK                            x       y       z     vdW  Elec       q    Type
REMARK                         _______ _______ _______ _____ _____    ______ ____
ROOT
ATOM      1  C   UNL     1      -0.010  13.052  21.253  0.00  0.00    +0.000 C 
ATOM      2  C   UNL     1       0.765  14.171  20.579  0.00  0.00    +0.000 C 
ATOM      3  C   UNL     1       0.505  14.477  19.287  0.00  0.00    +0.000 C 
ATOM      4  C   UNL     1       1.401  15.409  18.520  0.00  0.00    +0.000 C 
ATOM      5  C   UNL     1       1.990  16.489  19.423  0.00  0.00    +0.000 C 
ATOM      6  C   UNL     1       2.660  15.890  20.653  0.00  0.00    +0.000 C 
ATOM      7  C   UNL     1       1.719  14.972  21.390  0.00  0.00    +0.000 C 
ATOM      8  O   UNL     1       1.750  14.882  22.616  0.00  0.00    +0.000 OA
ATOM      9  N   UNL     1      -0.623  13.921  18.642  0.00  0.00    +0.000 N 
ATOM     10  C   UNL     1      -1.345  12.876  19.264  0.00  0.00    +0.000 C 
ATOM     11  C   UNL     1      -0.642  12.174  20.170  0.00  0.00    +0.000 C 
ATOM     12  C   UNL     1      -0.081  11.160  19.143  0.00  0.00    +0.000 C 
ATOM     13  O   UNL     1       1.102  10.808  18.982  0.00  0.00    +0.000 OA
ATOM     14  C   UNL     1      -1.214  10.865  18.204  0.00  0.00    +0.000 A 
ATOM     15  C   UNL     1      -1.629   9.851  17.349  0.00  0.00    +0.000 A 
ATOM     16  C   UNL     1      -3.014   9.758  17.091  0.00  0.00    +0.000 A 
ATOM     17  C   UNL     1      -3.923  10.629  17.718  0.00  0.00    +0.000 A 
ATOM     18  C   UNL     1      -3.443  11.725  18.422  0.00  0.00    +0.000 A 
ATOM     19  C   UNL     1      -2.075  11.890  18.509  0.00  0.00    +0.000 A 
ATOM     20  H   UNL     1      -0.482  13.776  17.642  0.00  0.00    +0.000 HD
ENDROOT
BRANCH   1  24
ATOM     21  C   UNL     1      -3.224  14.802  23.777  0.00  0.00    +0.000 A 
ATOM     22  C   UNL     1      -2.640  15.506  22.738  0.00  0.00    +0.000 A 
ATOM     23  C   UNL     1      -1.624  14.964  21.956  0.00  0.00    +0.000 A 
ATOM     24  C   UNL     1      -1.116  13.670  22.193  0.00  0.00    +0.000 A 
ATOM     25  C   UNL     1      -1.712  12.954  23.244  0.00  0.00    +0.000 A 
ATOM     26  C   UNL     1      -2.758  13.503  24.032  0.00  0.00    +0.000 A 
BRANCH  21  27
ATOM     27  O   UNL     1      -4.268  15.338  24.511  0.00  0.00    +0.000 OA
BRANCH  27  28
ATOM     28  C   UNL     1      -5.232  16.079  23.705  0.00  0.00    +0.000 C 
BRANCH  28  29
ATOM     29  C   UNL     1      -6.583  15.378  23.698  0.00  0.00    +0.000 C 
BRANCH  29  30
ATOM     30  C   UNL     1      -6.803  14.589  22.403  0.00  0.00    +0.000 C 
BRANCH  30  31
ATOM     31  C   UNL     1      -5.883  15.070  21.276  0.00  0.00    +0.000 C 
BRANCH  31  33
ATOM     32  C   UNL     1      -5.134  12.661  21.401  0.00  0.00    +0.000 C 
ATOM     33  C   UNL     1      -5.262  13.894  20.517  0.00  0.00    +0.000 C 
ENDBRANCH  31  33
ENDBRANCH  30  31
ENDBRANCH  29  30
ENDBRANCH  28  29
ENDBRANCH  27  28
ENDBRANCH  21  27
ENDBRANCH   1  24
TORSDOF 7
ENDMDL
MODEL 8
REMARK VINA RESULT:      -7.3      7.956     12.595
REMARK  Name = 
REMARK  8 active torsions:
REMARK  status: ('A' for Active; 'I' for Inactive)
REMARK    1  A    between atoms: C_1  and  C_2
REMARK    2  A    between atoms: C_2  and  C_3
REMARK    3  A    between atoms: C_3  and  C_4
REMARK    4  A    between atoms: C_4  and  C_5
REMARK    5  A    between atoms: C_5  and  C_6
REMARK    6  A    between atoms: C_6  and  O_7
REMARK    7  A    between atoms: O_7  and  C_8
REMARK    8  A    between atoms: C_11  and  C_12
REMARK                            x       y       z     vdW  Elec       q    Type
REMARK                         _______ _______ _______ _____ _____    ______ ____
ROOT
ATOM      1  C   UNL     1      -0.424  13.002  21.232  0.00  0.00    +0.000 C 
ATOM      2  C   UNL     1       0.440  14.095  20.625  0.00  0.00    +0.000 C 
ATOM      3  C   UNL     1       0.325  14.381  19.309  0.00  0.00    +0.000 C 
ATOM      4  C   UNL     1       1.316  15.283  18.626  0.00  0.00    +0.000 C 
ATOM      5  C   UNL     1       1.825  16.370  19.569  0.00  0.00    +0.000 C 
ATOM      6  C   UNL     1       2.349  15.782  20.873  0.00  0.00    +0.000 C 
ATOM      7  C   UNL     1       1.317  14.895  21.520  0.00  0.00    +0.000 C 
ATOM      8  O   UNL     1       1.216  14.828  22.744  0.00  0.00    +0.000 OA
ATOM      9  N   UNL     1      -0.738  13.832  18.556  0.00  0.00    +0.000 N 
ATOM     10  C   UNL     1      -1.541  12.811  19.115  0.00  0.00    +0.000 C 
ATOM     11  C   UNL     1      -0.953  12.115  20.103  0.00  0.00    +0.000 C 
ATOM     12  C   UNL     1      -0.304  11.072  19.158  0.00  0.00    +0.000 C 
ATOM     13  O   UNL     1       0.882  10.697  19.132  0.00  0.00    +0.000 OA
ATOM     14  C   UNL     1      -1.336  10.779  18.109  0.00  0.00    +0.000 A 
ATOM     15  C   UNL     1      -1.676   9.756  17.232  0.00  0.00    +0.000 A 
ATOM     16  C   UNL     1      -3.028   9.681  16.829  0.00  0.00    +0.000 A 
ATOM     17  C   UNL     1      -3.981  10.580  17.340  0.00  0.00    +0.000 A 
ATOM     18  C   UNL     1      -3.559  11.681  18.073  0.00  0.00    +0.000 A 
ATOM     19  C   UNL     1      -2.205  11.824  18.302  0.00  0.00    +0.000 A 
ATOM     20  H   UNL     1      -0.494  13.666  17.579  0.00  0.00    +0.000 HD
ENDROOT
BRANCH   1  24
ATOM     21  C   UNL     1      -3.674  14.864  23.626  0.00  0.00    +0.000 A 
ATOM     22  C   UNL     1      -3.095  13.660  23.984  0.00  0.00    +0.000 A 
ATOM     23  C   UNL     1      -2.087  13.069  23.228  0.00  0.00    +0.000 A 
ATOM     24  C   UNL     1      -1.612  13.657  22.038  0.00  0.00    +0.000 A 
ATOM     25  C   UNL     1      -2.196  14.882  21.676  0.00  0.00    +0.000 A 
ATOM     26  C   UNL     1      -3.215  15.490  22.457  0.00  0.00    +0.000 A 
BRANCH  21  27
ATOM     27  O   UNL     1      -4.639  15.462  24.418  0.00  0.00    +0.000 OA
BRANCH  27  28
ATOM     28  C   UNL     1      -5.931  15.611  23.758  0.00  0.00    +0.000 C 
BRANCH  28  29
ATOM     29  C   UNL     1      -6.574  14.253  23.515  0.00  0.00    +0.000 C 
BRANCH  29  30
ATOM     30  C   UNL     1      -6.940  14.056  22.040  0.00  0.00    +0.000 C 
BRANCH  30  31
ATOM     31  C   UNL     1      -5.907  13.199  21.304  0.00  0.00    +0.000 C 
BRANCH  31  33
ATOM     32  C   UNL     1      -7.131  12.074  19.403  0.00  0.00    +0.000 C 
ATOM     33  C   UNL     1      -6.523  11.895  20.787  0.00  0.00    +0.000 C 
ENDBRANCH  31  33
ENDBRANCH  30  31
ENDBRANCH  29  30
ENDBRANCH  28  29
ENDBRANCH  27  28
ENDBRANCH  21  27
ENDBRANCH   1  24
TORSDOF 7
ENDMDL
MODEL 9
REMARK VINA RESULT:      -7.3      2.711      8.293
REMARK  Name = 
REMARK  8 active torsions:
REMARK  status: ('A' for Active; 'I' for Inactive)
REMARK    1  A    between atoms: C_1  and  C_2
REMARK    2  A    between atoms: C_2  and  C_3
REMARK    3  A    between atoms: C_3  and  C_4
REMARK    4  A    between atoms: C_4  and  C_5
REMARK    5  A    between atoms: C_5  and  C_6
REMARK    6  A    between atoms: C_6  and  O_7
REMARK    7  A    between atoms: O_7  and  C_8
REMARK    8  A    between atoms: C_11  and  C_12
REMARK                            x       y       z     vdW  Elec       q    Type
REMARK                         _______ _______ _______ _____ _____    ______ ____
ROOT
ATOM      1  C   UNL     1       2.260   5.261  18.450  0.00  0.00    +0.000 C 
ATOM      2  C   UNL     1       2.343   4.230  19.563  0.00  0.00    +0.000 C 
ATOM      3  C   UNL     1       3.553   3.771  19.956  0.00  0.00    +0.000 C 
ATOM      4  C   UNL     1       3.666   2.592  20.882  0.00  0.00    +0.000 C 
ATOM      5  C   UNL     1       2.508   2.545  21.874  0.00  0.00    +0.000 C 
ATOM      6  C   UNL     1       1.160   2.626  21.169  0.00  0.00    +0.000 C 
ATOM      7  C   UNL     1       1.095   3.829  20.263  0.00  0.00    +0.000 C 
ATOM      8  O   UNL     1       0.043   4.445  20.101  0.00  0.00    +0.000 OA
ATOM      9  N   UNL     1       4.732   4.404  19.501  0.00  0.00    +0.000 N 
ATOM     10  C   UNL     1       4.659   5.361  18.461  0.00  0.00    +0.000 C 
ATOM     11  C   UNL     1       3.577   5.248  17.672  0.00  0.00    +0.000 C 
ATOM     12  C   UNL     1       4.237   4.248  16.690  0.00  0.00    +0.000 C 
ATOM     13  O   UNL     1       3.785   3.161  16.284  0.00  0.00    +0.000 OA
ATOM     14  C   UNL     1       5.648   4.727  16.512  0.00  0.00    +0.000 A 
ATOM     15  C   UNL     1       6.670   4.650  15.572  0.00  0.00    +0.000 A 
ATOM     16  C   UNL     1       7.617   5.696  15.569  0.00  0.00    +0.000 A 
ATOM     17  C   UNL     1       7.489   6.785  16.451  0.00  0.00    +0.000 A 
ATOM     18  C   UNL     1       6.556   6.727  17.477  0.00  0.00    +0.000 A 
ATOM     19  C   UNL     1       5.758   5.603  17.562  0.00  0.00    +0.000 A 
ATOM     20  H   UNL     1       5.520   3.763  19.406  0.00  0.00    +0.000 HD
ENDROOT
BRANCH   1  24
ATOM     21  C   UNL     1       1.355   9.278  20.125  0.00  0.00    +0.000 A 
ATOM     22  C   UNL     1       1.527   9.070  18.768  0.00  0.00    +0.000 A 
ATOM     23  C   UNL     1       1.824   7.815  18.244  0.00  0.00    +0.000 A 
ATOM     24  C   UNL     1       1.988   6.686  19.072  0.00  0.00    +0.000 A 
ATOM     25  C   UNL     1       1.809   6.896  20.449  0.00  0.00    +0.000 A 
ATOM     26  C   UNL     1       1.492   8.175  20.981  0.00  0.00    +0.000 A 
BRANCH  21  27
ATOM     27  O   UNL     1       1.010  10.523  20.624  0.00  0.00    +0.000 OA
BRANCH  27  28
ATOM     28  C   UNL     1      -0.381  10.618  21.052  0.00  0.00    +0.000 C 
BRANCH  28  29
ATOM     29  C   UNL     1      -0.483  10.586  22.570  0.00  0.00    +0.000 C 
BRANCH  29  30
ATOM     30  C   UNL     1      -1.430  11.670  23.096  0.00  0.00    +0.000 C 
BRANCH  30  31
ATOM     31  C   UNL     1      -2.263  12.295  21.973  0.00  0.00    +0.000 C 
BRANCH  31  33
ATOM     32  C   UNL     1      -3.790  12.511  23.971  0.00  0.00    +0.000 C 
ATOM     33  C   UNL     1      -3.640  12.739  22.474  0.00  0.00    +0.000 C 
ENDBRANCH  31  33
ENDBRANCH  30  31
ENDBRANCH  29  30
ENDBRANCH  28  29
ENDBRANCH  27  28
ENDBRANCH  21  27
ENDBRANCH   1  24
TORSDOF 7
ENDMDL
