MODEL 1
REMARK VINA RESULT:      -7.1      0.000      0.000
REMARK  Name = 
REMARK  7 active torsions:
REMARK  status: ('A' for Active; 'I' for Inactive)
REMARK    1  A    between atoms: C_1  and  C_2
REMARK    2  A    between atoms: C_2  and  C_3
REMARK    3  A    between atoms: C_5  and  C_6
REMARK    4  A    between atoms: C_6  and  N_7
REMARK    5  A    between atoms: N_7  and  C_8
REMARK    6  A    between atoms: C_10  and  C_11
REMARK    7  A    between atoms: C_21  and  C_22
REMARK                            x       y       z     vdW  Elec       q    Type
REMARK                         _______ _______ _______ _____ _____    ______ ____
ROOT
ATOM      1  C   UNL     1       2.195   7.609  19.042  0.00  0.00    +0.000 A 
ATOM      2  C   UNL     1       2.835   6.730  18.157  0.00  0.00    +0.000 A 
ATOM      3  C   UNL     1       3.025   5.374  18.476  0.00  0.00    +0.000 A 
ATOM      4  C   UNL     1       2.562   4.889  19.696  0.00  0.00    +0.000 A 
ATOM      5  C   UNL     1       1.998   5.758  20.621  0.00  0.00    +0.000 A 
ATOM      6  C   UNL     1       1.805   7.115  20.305  0.00  0.00    +0.000 A 
ATOM      7  C   UNL     1       1.115   7.985  21.322  0.00  0.00    +0.000 C 
ENDROOT
BRANCH   3   8
ATOM      8  C   UNL     1       3.674   4.506  17.455  0.00  0.00    +0.000 C 
ATOM      9  O   UNL     1       2.936   3.769  16.804  0.00  0.00    +0.000 OA
ATOM     10  N   UNL     1       5.048   4.569  17.256  0.00  0.00    +0.000 N 
ATOM     11  C   UNL     1       6.007   5.465  17.900  0.00  0.00    +0.000 C 
ATOM     12  C   UNL     1       6.962   6.109  16.890  0.00  0.00    +0.000 C 
ATOM     13  O   UNL     1       7.577   5.131  16.042  0.00  0.00    +0.000 OA
ATOM     14  C   UNL     1       6.576   4.378  15.337  0.00  0.00    +0.000 C 
ATOM     15  C   UNL     1       5.667   3.630  16.314  0.00  0.00    +0.000 C 
ENDBRANCH   3   8
BRANCH   1  16
ATOM     16  N   UNL     1       2.070   8.972  18.739  0.00  0.00    +0.000 N 
ATOM     17  H   UNL     1       1.941   9.554  19.572  0.00  0.00    +0.000 HD
BRANCH  16  18
ATOM     18  C   UNL     1       1.067   9.367  17.743  0.00  0.00    +0.000 C 
BRANCH  18  21
ATOM     19  C   UNL     1      -2.152  10.930  18.265  0.00  0.00    +0.000 A 
ATOM     20  N   UNL     1      -1.294  10.143  17.654  0.00  0.00    +0.000 NA
ATOM     21  C   UNL     1      -0.061  10.190  18.299  0.00  0.00    +0.000 A 
ATOM     22  C   UNL     1      -0.015  11.027  19.396  0.00  0.00    +0.000 A 
ATOM     23  S   UNL     1      -1.541  11.762  19.641  0.00  0.00    +0.000 S 
BRANCH  19  25
ATOM     24  C   UNL     1      -3.713  10.931  16.321  0.00  0.00    +0.000 C 
ATOM     25  C   UNL     1      -3.568  11.117  17.824  0.00  0.00    +0.000 C 
ENDBRANCH  19  25
ENDBRANCH  18  21
ENDBRANCH  16  18
ENDBRANCH   1  16
TORSDOF 5
ENDMDL
MODEL 2
REMARK VINA RESULT:      -7.0      2.176      3.107
REMARK  Name = 
REMARK  7 active torsions:
REMARK  status: ('A' for Active; 'I' for Inactive)
REMARK    1  A    between atoms: C_1  and  C_2
REMARK    2  A    between atoms: C_2  and  C_3
REMARK    3  A    between atoms: C_5  and  C_6
REMARK    4  A    between atoms: C_6  and  N_7
REMARK    5  A    between atoms: N_7  and  C_8
REMARK    6  A    between atoms: C_10  and  C_11
REMARK    7  A    between atoms: C_21  and  C_22
REMARK                            x       y       z     vdW  Elec       q    Type
REMARK                         _______ _______ _______ _____ _____    ______ ____
ROOT
ATOM      1  C   UNL     1       2.708   5.140  20.227  0.00  0.00    +0.000 A 
ATOM      2  C   UNL     1       3.912   5.460  19.581  0.00  0.00    +0.000 A 
ATOM      3  C   UNL     1       4.831   4.465  19.205  0.00  0.00    +0.000 A 
ATOM      4  C   UNL     1       4.539   3.130  19.472  0.00  0.00    +0.000 A 
ATOM      5  C   UNL     1       3.392   2.798  20.182  0.00  0.00    +0.000 A 
ATOM      6  C   UNL     1       2.470   3.790  20.559  0.00  0.00    +0.000 A 
ATOM      7  C   UNL     1       1.208   3.353  21.255  0.00  0.00    +0.000 C 
ENDROOT
BRANCH   3   8
ATOM      8  C   UNL     1       6.060   4.895  18.484  0.00  0.00    +0.000 C 
ATOM      9  O   UNL     1       7.094   4.972  19.147  0.00  0.00    +0.000 OA
ATOM     10  N   UNL     1       6.013   5.165  17.121  0.00  0.00    +0.000 N 
ATOM     11  C   UNL     1       4.872   5.021  16.218  0.00  0.00    +0.000 C 
ATOM     12  C   UNL     1       5.252   4.298  14.921  0.00  0.00    +0.000 C 
ATOM     13  O   UNL     1       6.400   4.891  14.300  0.00  0.00    +0.000 OA
ATOM     14  C   UNL     1       7.521   4.876  15.198  0.00  0.00    +0.000 C 
ATOM     15  C   UNL     1       7.218   5.682  16.463  0.00  0.00    +0.000 C 
ENDBRANCH   3   8
BRANCH   1  16
ATOM     16  N   UNL     1       1.832   6.146  20.655  0.00  0.00    +0.000 N 
ATOM     17  H   UNL     1       0.847   5.902  20.517  0.00  0.00    +0.000 HD
BRANCH  16  18
ATOM     18  C   UNL     1       2.042   7.507  20.144  0.00  0.00    +0.000 C 
BRANCH  18  21
ATOM     19  C   UNL     1      -0.257  10.247  20.673  0.00  0.00    +0.000 A 
ATOM     20  N   UNL     1       0.441   9.399  19.949  0.00  0.00    +0.000 NA
ATOM     21  C   UNL     1       1.163   8.547  20.780  0.00  0.00    +0.000 A 
ATOM     22  C   UNL     1       0.995   8.776  22.131  0.00  0.00    +0.000 A 
ATOM     23  S   UNL     1      -0.097  10.072  22.376  0.00  0.00    +0.000 S 
BRANCH  19  25
ATOM     24  C   UNL     1      -0.598  11.814  18.765  0.00  0.00    +0.000 C 
ATOM     25  C   UNL     1      -1.139  11.305  20.092  0.00  0.00    +0.000 C 
ENDBRANCH  19  25
ENDBRANCH  18  21
ENDBRANCH  16  18
ENDBRANCH   1  16
TORSDOF 5
ENDMDL
MODEL 3
REMARK VINA RESULT:      -6.9      3.558      8.053
REMARK  Name = 
REMARK  7 active torsions:
REMARK  status: ('A' for Active; 'I' for Inactive)
REMARK    1  A    between atoms: C_1  and  C_2
REMARK    2  A    between atoms: C_2  and  C_3
REMARK    3  A    between atoms: C_5  and  C_6
REMARK    4  A    between atoms: C_6  and  N_7
REMARK    5  A    between atoms: N_7  and  C_8
REMARK    6  A    between atoms: C_10  and  C_11
REMARK    7  A    between atoms: C_21  and  C_22
REMARK                            x       y       z     vdW  Elec       q    Type
REMARK                         _______ _______ _______ _____ _____    ______ ____
ROOT
ATOM      1  C   UNL     1       4.653   5.305  18.947  0.00  0.00    +0.000 A 
ATOM      2  C   UNL     1       4.049   6.545  18.696  0.00  0.00    +0.000 A 
ATOM      3  C   UNL     1       2.653   6.704  18.736  0.00  0.00    +0.000 A 
ATOM      4  C   UNL     1       1.849   5.609  19.037  0.00  0.00    +0.000 A 
ATOM      5  C   UNL     1       2.420   4.354  19.210  0.00  0.00    +0.000 A 
ATOM      6  C   UNL     1       3.817   4.191  19.172  0.00  0.00    +0.000 A 
ATOM      7  C   UNL     1       4.374   2.819  19.446  0.00  0.00    +0.000 C 
ENDROOT
BRANCH   3   8
ATOM      8  C   UNL     1       2.105   8.069  18.501  0.00  0.00    +0.000 C 
ATOM      9  O   UNL     1       2.165   8.500  17.351  0.00  0.00    +0.000 OA
ATOM     10  N   UNL     1       1.537   8.783  19.549  0.00  0.00    +0.000 N 
ATOM     11  C   UNL     1       1.328   8.341  20.927  0.00  0.00    +0.000 C 
ATOM     12  C   UNL     1      -0.085   8.659  21.426  0.00  0.00    +0.000 C 
ATOM     13  O   UNL     1      -0.427  10.034  21.213  0.00  0.00    +0.000 OA
ATOM     14  C   UNL     1      -0.331  10.364  19.817  0.00  0.00    +0.000 C 
ATOM     15  C   UNL     1       1.098  10.162  19.305  0.00  0.00    +0.000 C 
ENDBRANCH   3   8
BRANCH   1  16
ATOM     16  N   UNL     1       6.041   5.145  18.840  0.00  0.00    +0.000 N 
ATOM     17  H   UNL     1       6.532   5.327  19.721  0.00  0.00    +0.000 HD
BRANCH  16  18
ATOM     18  C   UNL     1       6.737   5.869  17.769  0.00  0.00    +0.000 C 
BRANCH  18  21
ATOM     19  C   UNL     1       7.206   5.027  14.284  0.00  0.00    +0.000 A 
ATOM     20  N   UNL     1       7.440   5.699  15.390  0.00  0.00    +0.000 NA
ATOM     21  C   UNL     1       6.632   5.219  16.418  0.00  0.00    +0.000 A 
ATOM     22  C   UNL     1       5.793   4.184  16.059  0.00  0.00    +0.000 A 
ATOM     23  S   UNL     1       6.020   3.787  14.409  0.00  0.00    +0.000 S 
BRANCH  19  25
ATOM     24  C   UNL     1       7.304   4.468  11.857  0.00  0.00    +0.000 C 
ATOM     25  C   UNL     1       7.901   5.293  12.987  0.00  0.00    +0.000 C 
ENDBRANCH  19  25
ENDBRANCH  18  21
ENDBRANCH  16  18
ENDBRANCH   1  16
TORSDOF 5
ENDMDL
MODEL 4
REMARK VINA RESULT:      -6.9      1.129      2.007
REMARK  Name = 
REMARK  7 active torsions:
REMARK  status: ('A' for Active; 'I' for Inactive)
REMARK    1  A    between atoms: C_1  and  C_2
REMARK    2  A    between atoms: C_2  and  C_3
REMARK    3  A    between atoms: C_5  and  C_6
REMARK    4  A    between atoms: C_6  and  N_7
REMARK    5  A    between atoms: N_7  and  C_8
REMARK    6  A    between atoms: C_10  and  C_11
REMARK    7  A    between atoms: C_21  and  C_22
REMARK                            x       y       z     vdW  Elec       q    Type
REMARK                         _______ _______ _______ _____ _____    ______ ____
ROOT
ATOM      1  C   UNL     1       2.280   7.543  19.036  0.00  0.00    +0.000 A 
ATOM      2  C   UNL     1       2.913   6.665  18.145  0.00  0.00    +0.000 A 
ATOM      3  C   UNL     1       3.050   5.296  18.434  0.00  0.00    +0.000 A 
ATOM      4  C   UNL     1       2.541   4.797  19.630  0.00  0.00    +0.000 A 
ATOM      5  C   UNL     1       1.982   5.662  20.563  0.00  0.00    +0.000 A 
ATOM      6  C   UNL     1       1.842   7.032  20.276  0.00  0.00    +0.000 A 
ATOM      7  C   UNL     1       1.156   7.899  21.297  0.00  0.00    +0.000 C 
ENDROOT
BRANCH   3   8
ATOM      8  C   UNL     1       3.696   4.432  17.408  0.00  0.00    +0.000 C 
ATOM      9  O   UNL     1       2.958   3.685  16.768  0.00  0.00    +0.000 OA
ATOM     10  N   UNL     1       5.067   4.509  17.193  0.00  0.00    +0.000 N 
ATOM     11  C   UNL     1       6.024   5.416  17.822  0.00  0.00    +0.000 C 
ATOM     12  C   UNL     1       6.960   6.068  16.799  0.00  0.00    +0.000 C 
ATOM     13  O   UNL     1       7.576   5.094  15.947  0.00  0.00    +0.000 OA
ATOM     14  C   UNL     1       6.574   4.328  15.256  0.00  0.00    +0.000 C 
ATOM     15  C   UNL     1       5.685   3.573  16.246  0.00  0.00    +0.000 C 
ENDBRANCH   3   8
BRANCH   1  16
ATOM     16  N   UNL     1       2.208   8.916  18.764  0.00  0.00    +0.000 N 
ATOM     17  H   UNL     1       2.265   9.492  19.609  0.00  0.00    +0.000 HD
BRANCH  16  18
ATOM     18  C   UNL     1       1.083   9.400  17.955  0.00  0.00    +0.000 C 
BRANCH  18  21
ATOM     19  C   UNL     1      -0.280  11.775  20.317  0.00  0.00    +0.000 A 
ATOM     20  N   UNL     1       0.651  10.995  19.814  0.00  0.00    +0.000 NA
ATOM     21  C   UNL     1       0.171  10.354  18.675  0.00  0.00    +0.000 A 
ATOM     22  C   UNL     1      -1.132  10.666  18.342  0.00  0.00    +0.000 A 
ATOM     23  S   UNL     1      -1.772  11.792  19.461  0.00  0.00    +0.000 S 
BRANCH  19  25
ATOM     24  C   UNL     1      -1.139  12.273  22.604  0.00  0.00    +0.000 C 
ATOM     25  C   UNL     1      -0.094  12.603  21.547  0.00  0.00    +0.000 C 
ENDBRANCH  19  25
ENDBRANCH  18  21
ENDBRANCH  16  18
ENDBRANCH   1  16
TORSDOF 5
ENDMDL
MODEL 5
REMARK VINA RESULT:      -6.9      2.220      3.327
REMARK  Name = 
REMARK  7 active torsions:
REMARK  status: ('A' for Active; 'I' for Inactive)
REMARK    1  A    between atoms: C_1  and  C_2
REMARK    2  A    between atoms: C_2  and  C_3
REMARK    3  A    between atoms: C_5  and  C_6
REMARK    4  A    between atoms: C_6  and  N_7
REMARK    5  A    between atoms: N_7  and  C_8
REMARK    6  A    between atoms: C_10  and  C_11
REMARK    7  A    between atoms: C_21  and  C_22
REMARK                            x       y       z     vdW  Elec       q    Type
REMARK                         _______ _______ _______ _____ _____    ______ ____
ROOT
ATOM      1  C   UNL     1       2.504   4.826  20.228  0.00  0.00    +0.000 A 
ATOM      2  C   UNL     1       3.696   5.255  19.627  0.00  0.00    +0.000 A 
ATOM      3  C   UNL     1       4.730   4.356  19.320  0.00  0.00    +0.000 A 
ATOM      4  C   UNL     1       4.569   3.004  19.612  0.00  0.00    +0.000 A 
ATOM      5  C   UNL     1       3.432   2.569  20.281  0.00  0.00    +0.000 A 
ATOM      6  C   UNL     1       2.393   3.466  20.589  0.00  0.00    +0.000 A 
ATOM      7  C   UNL     1       1.154   2.914  21.242  0.00  0.00    +0.000 C 
ENDROOT
BRANCH   3   8
ATOM      8  C   UNL     1       5.940   4.896  18.640  0.00  0.00    +0.000 C 
ATOM      9  O   UNL     1       6.936   5.074  19.340  0.00  0.00    +0.000 OA
ATOM     10  N   UNL     1       5.918   5.154  17.274  0.00  0.00    +0.000 N 
ATOM     11  C   UNL     1       4.831   4.897  16.331  0.00  0.00    +0.000 C 
ATOM     12  C   UNL     1       5.326   4.208  15.056  0.00  0.00    +0.000 C 
ATOM     13  O   UNL     1       6.434   4.903  14.471  0.00  0.00    +0.000 OA
ATOM     14  C   UNL     1       7.518   4.999  15.411  0.00  0.00    +0.000 C 
ATOM     15  C   UNL     1       7.093   5.779  16.657  0.00  0.00    +0.000 C 
ENDBRANCH   3   8
BRANCH   1  16
ATOM     16  N   UNL     1       1.508   5.743  20.589  0.00  0.00    +0.000 N 
ATOM     17  H   UNL     1       0.783   5.845  19.873  0.00  0.00    +0.000 HD
BRANCH  16  18
ATOM     18  C   UNL     1       1.928   7.085  21.011  0.00  0.00    +0.000 C 
BRANCH  18  21
ATOM     19  C   UNL     1       0.523  10.030  19.451  0.00  0.00    +0.000 A 
ATOM     20  N   UNL     1       0.714   9.178  20.434  0.00  0.00    +0.000 NA
ATOM     21  C   UNL     1       1.589   8.173  20.031  0.00  0.00    +0.000 A 
ATOM     22  C   UNL     1       2.044   8.289  18.732  0.00  0.00    +0.000 A 
ATOM     23  S   UNL     1       1.379   9.686  17.999  0.00  0.00    +0.000 S 
BRANCH  19  25
ATOM     24  C   UNL     1       0.326  12.480  19.041  0.00  0.00    +0.000 C 
ATOM     25  C   UNL     1      -0.368  11.226  19.549  0.00  0.00    +0.000 C 
ENDBRANCH  19  25
ENDBRANCH  18  21
ENDBRANCH  16  18
ENDBRANCH   1  16
TORSDOF 5
ENDMDL
MODEL 6
REMARK VINA RESULT:      -6.8      2.735      4.267
REMARK  Name = 
REMARK  7 active torsions:
REMARK  status: ('A' for Active; 'I' for Inactive)
REMARK    1  A    between atoms: C_1  and  C_2
REMARK    2  A    between atoms: C_2  and  C_3
REMARK    3  A    between atoms: C_5  and  C_6
REMARK    4  A    between atoms: C_6  and  N_7
REMARK    5  A    between atoms: N_7  and  C_8
REMARK    6  A    between atoms: C_10  and  C_11
REMARK    7  A    between atoms: C_21  and  C_22
REMARK                            x       y       z     vdW  Elec       q    Type
REMARK                         _______ _______ _______ _____ _____    ______ ____
ROOT
ATOM      1  C   UNL     1       1.457   8.238  19.936  0.00  0.00    +0.000 A 
ATOM      2  C   UNL     1       2.227   7.067  19.910  0.00  0.00    +0.000 A 
ATOM      3  C   UNL     1       3.055   6.755  18.819  0.00  0.00    +0.000 A 
ATOM      4  C   UNL     1       3.119   7.631  17.738  0.00  0.00    +0.000 A 
ATOM      5  C   UNL     1       2.304   8.756  17.707  0.00  0.00    +0.000 A 
ATOM      6  C   UNL     1       1.475   9.072  18.799  0.00  0.00    +0.000 A 
ATOM      7  C   UNL     1       0.678  10.348  18.733  0.00  0.00    +0.000 C 
ENDROOT
BRANCH   3   8
ATOM      8  C   UNL     1       3.871   5.512  18.900  0.00  0.00    +0.000 C 
ATOM      9  O   UNL     1       4.972   5.606  19.441  0.00  0.00    +0.000 OA
ATOM     10  N   UNL     1       3.372   4.315  18.400  0.00  0.00    +0.000 N 
ATOM     11  C   UNL     1       2.053   4.065  17.823  0.00  0.00    +0.000 C 
ATOM     12  C   UNL     1       1.406   2.799  18.394  0.00  0.00    +0.000 C 
ATOM     13  O   UNL     1       2.285   1.670  18.313  0.00  0.00    +0.000 OA
ATOM     14  C   UNL     1       3.509   1.937  19.018  0.00  0.00    +0.000 C 
ATOM     15  C   UNL     1       4.242   3.133  18.406  0.00  0.00    +0.000 C 
ENDBRANCH   3   8
BRANCH   1  16
ATOM     16  N   UNL     1       0.586   8.504  21.002  0.00  0.00    +0.000 N 
ATOM     17  H   UNL     1      -0.339   8.817  20.691  0.00  0.00    +0.000 HD
BRANCH  16  18
ATOM     18  C   UNL     1       1.047   9.414  22.057  0.00  0.00    +0.000 C 
BRANCH  18  21
ATOM     19  C   UNL     1      -0.473  12.694  22.162  0.00  0.00    +0.000 A 
ATOM     20  N   UNL     1       0.439  11.813  21.814  0.00  0.00    +0.000 NA
ATOM     21  C   UNL     1       0.116  10.562  22.332  0.00  0.00    +0.000 A 
ATOM     22  C   UNL     1      -1.048  10.526  23.073  0.00  0.00    +0.000 A 
ATOM     23  S   UNL     1      -1.766  12.080  23.117  0.00  0.00    +0.000 S 
BRANCH  19  25
ATOM     24  C   UNL     1      -0.824  15.037  22.936  0.00  0.00    +0.000 C 
ATOM     25  C   UNL     1      -0.426  14.137  21.776  0.00  0.00    +0.000 C 
ENDBRANCH  19  25
ENDBRANCH  18  21
ENDBRANCH  16  18
ENDBRANCH   1  16
TORSDOF 5
ENDMDL
MODEL 7
REMARK VINA RESULT:      -6.8      3.310      7.652
REMARK  Name = 
REMARK  7 active torsions:
REMARK  status: ('A' for Active; 'I' for Inactive)
REMARK    1  A    between atoms: C_1  and  C_2
REMARK    2  A    between atoms: C_2  and  C_3
REMARK    3  A    between atoms: C_5  and  C_6
REMARK    4  A    between atoms: C_6  and  N_7
REMARK    5  A    between atoms: N_7  and  C_8
REMARK    6  A    between atoms: C_10  and  C_11
REMARK    7  A    between atoms: C_21  and  C_22
REMARK                            x       y       z     vdW  Elec       q    Type
REMARK                         _______ _______ _______ _____ _____    ______ ____
ROOT
ATOM      1  C   UNL     1       2.382   4.598  18.537  0.00  0.00    +0.000 A 
ATOM      2  C   UNL     1       2.321   5.927  18.092  0.00  0.00    +0.000 A 
ATOM      3  C   UNL     1       2.070   6.988  18.978  0.00  0.00    +0.000 A 
ATOM      4  C   UNL     1       1.884   6.719  20.331  0.00  0.00    +0.000 A 
ATOM      5  C   UNL     1       1.860   5.404  20.781  0.00  0.00    +0.000 A 
ATOM      6  C   UNL     1       2.111   4.339  19.897  0.00  0.00    +0.000 A 
ATOM      7  C   UNL     1       2.150   2.946  20.465  0.00  0.00    +0.000 C 
ENDROOT
BRANCH   3   8
ATOM      8  C   UNL     1       2.069   8.370  18.422  0.00  0.00    +0.000 C 
ATOM      9  O   UNL     1       2.576   8.521  17.312  0.00  0.00    +0.000 OA
ATOM     10  N   UNL     1       1.492   9.411  19.140  0.00  0.00    +0.000 N 
ATOM     11  C   UNL     1       0.784   9.336  20.416  0.00  0.00    +0.000 C 
ATOM     12  C   UNL     1      -0.535  10.115  20.390  0.00  0.00    +0.000 C 
ATOM     13  O   UNL     1      -0.351  11.456  19.919  0.00  0.00    +0.000 OA
ATOM     14  C   UNL     1       0.224  11.450  18.602  0.00  0.00    +0.000 C 
ATOM     15  C   UNL     1       1.597  10.775  18.609  0.00  0.00    +0.000 C 
ENDBRANCH   3   8
BRANCH   1  16
ATOM     16  N   UNL     1       2.567   3.544  17.633  0.00  0.00    +0.000 N 
ATOM     17  H   UNL     1       1.873   2.799  17.743  0.00  0.00    +0.000 HD
BRANCH  16  18
ATOM     18  C   UNL     1       3.896   2.924  17.561  0.00  0.00    +0.000 C 
BRANCH  18  21
ATOM     19  C   UNL     1       6.645   5.275  17.577  0.00  0.00    +0.000 A 
ATOM     20  N   UNL     1       5.750   4.483  18.126  0.00  0.00    +0.000 NA
ATOM     21  C   UNL     1       4.991   3.863  17.137  0.00  0.00    +0.000 A 
ATOM     22  C   UNL     1       5.333   4.208  15.845  0.00  0.00    +0.000 A 
ATOM     23  S   UNL     1       6.636   5.318  15.858  0.00  0.00    +0.000 S 
BRANCH  19  25
ATOM     24  C   UNL     1       7.759   7.495  17.778  0.00  0.00    +0.000 C 
ATOM     25  C   UNL     1       7.619   6.096  18.358  0.00  0.00    +0.000 C 
ENDBRANCH  19  25
ENDBRANCH  18  21
ENDBRANCH  16  18
ENDBRANCH   1  16
TORSDOF 5
ENDMDL
MODEL 8
REMARK VINA RESULT:      -6.8      2.965      4.212
REMARK  Name = 
REMARK  7 active torsions:
REMARK  status: ('A' for Active; 'I' for Inactive)
REMARK    1  A    between atoms: C_1  and  C_2
REMARK    2  A    between atoms: C_2  and  C_3
REMARK    3  A    between atoms: C_5  and  C_6
REMARK    4  A    between atoms: C_6  and  N_7
REMARK    5  A    between atoms: N_7  and  C_8
REMARK    6  A    between atoms: C_10  and  C_11
REMARK    7  A    between atoms: C_21  and  C_22
REMARK                            x       y       z     vdW  Elec       q    Type
REMARK                         _______ _______ _______ _____ _____    ______ ____
ROOT
ATOM      1  C   UNL     1       1.541   9.233  18.704  0.00  0.00    +0.000 A 
ATOM      2  C   UNL     1       2.356   8.230  18.162  0.00  0.00    +0.000 A 
ATOM      3  C   UNL     1       2.668   7.065  18.884  0.00  0.00    +0.000 A 
ATOM      4  C   UNL     1       2.152   6.898  20.166  0.00  0.00    +0.000 A 
ATOM      5  C   UNL     1       1.410   7.915  20.754  0.00  0.00    +0.000 A 
ATOM      6  C   UNL     1       1.095   9.081  20.034  0.00  0.00    +0.000 A 
ATOM      7  C   UNL     1       0.220  10.108  20.703  0.00  0.00    +0.000 C 
ENDROOT
BRANCH   3   8
ATOM      8  C   UNL     1       3.502   6.033  18.208  0.00  0.00    +0.000 C 
ATOM      9  O   UNL     1       4.708   6.264  18.123  0.00  0.00    +0.000 OA
ATOM     10  N   UNL     1       2.919   4.866  17.729  0.00  0.00    +0.000 N 
ATOM     11  C   UNL     1       1.525   4.444  17.854  0.00  0.00    +0.000 C 
ATOM     12  C   UNL     1       1.403   2.987  18.311  0.00  0.00    +0.000 C 
ATOM     13  O   UNL     1       2.193   2.108  17.501  0.00  0.00    +0.000 OA
ATOM     14  C   UNL     1       3.575   2.502  17.535  0.00  0.00    +0.000 C 
ATOM     15  C   UNL     1       3.752   3.918  16.981  0.00  0.00    +0.000 C 
ENDBRANCH   3   8
BRANCH   1  16
ATOM     16  N   UNL     1       1.292  10.419  17.999  0.00  0.00    +0.000 N 
ATOM     17  H   UNL     1       1.029  10.253  17.024  0.00  0.00    +0.000 HD
BRANCH  16  18
ATOM     18  C   UNL     1       2.321  11.465  18.025  0.00  0.00    +0.000 C 
BRANCH  18  21
ATOM     19  C   UNL     1       2.056  15.025  18.606  0.00  0.00    +0.000 A 
ATOM     20  N   UNL     1       2.681  13.912  18.287  0.00  0.00    +0.000 NA
ATOM     21  C   UNL     1       1.797  12.838  18.342  0.00  0.00    +0.000 A 
ATOM     22  C   UNL     1       0.507  13.168  18.710  0.00  0.00    +0.000 A 
ATOM     23  S   UNL     1       0.386  14.854  18.980  0.00  0.00    +0.000 S 
BRANCH  19  25
ATOM     24  C   UNL     1       2.989  16.899  17.253  0.00  0.00    +0.000 C 
ATOM     25  C   UNL     1       2.717  16.364  18.651  0.00  0.00    +0.000 C 
ENDBRANCH  19  25
ENDBRANCH  18  21
ENDBRANCH  16  18
ENDBRANCH   1  16
TORSDOF 5
ENDMDL
MODEL 9
REMARK VINA RESULT:      -6.8      2.423      3.303
REMARK  Name = 
REMARK  7 active torsions:
REMARK  status: ('A' for Active; 'I' for Inactive)
REMARK    1  A    between atoms: C_1  and  C_2
REMARK    2  A    between atoms: C_2  and  C_3
REMARK    3  A    between atoms: C_5  and  C_6
REMARK    4  A    between atoms: C_6  and  N_7
REMARK    5  A    between atoms: N_7  and  C_8
REMARK    6  A    between atoms: C_10  and  C_11
REMARK    7  A    between atoms: C_21  and  C_22
REMARK                            x       y       z     vdW  Elec       q    Type
REMARK                         _______ _______ _______ _____ _____    ______ ____
ROOT
ATOM      1  C   UNL     1       2.613   4.761  19.945  0.00  0.00    +0.000 A 
ATOM      2  C   UNL     1       3.172   4.741  18.659  0.00  0.00    +0.000 A 
ATOM      3  C   UNL     1       3.660   3.553  18.088  0.00  0.00    +0.000 A 
ATOM      4  C   UNL     1       3.582   2.365  18.811  0.00  0.00    +0.000 A 
ATOM      5  C   UNL     1       3.107   2.377  20.117  0.00  0.00    +0.000 A 
ATOM      6  C   UNL     1       2.616   3.564  20.691  0.00  0.00    +0.000 A 
ATOM      7  C   UNL     1       2.042   3.490  22.081  0.00  0.00    +0.000 C 
ENDROOT
BRANCH   3   8
ATOM      8  C   UNL     1       4.194   3.619  16.700  0.00  0.00    +0.000 C 
ATOM      9  O   UNL     1       3.428   3.292  15.795  0.00  0.00    +0.000 OA
ATOM     10  N   UNL     1       5.493   4.057  16.471  0.00  0.00    +0.000 N 
ATOM     11  C   UNL     1       6.457   4.554  17.451  0.00  0.00    +0.000 C 
ATOM     12  C   UNL     1       7.135   5.847  16.988  0.00  0.00    +0.000 C 
ATOM     13  O   UNL     1       7.680   5.718  15.669  0.00  0.00    +0.000 OA
ATOM     14  C   UNL     1       6.649   5.360  14.733  0.00  0.00    +0.000 C 
ATOM     15  C   UNL     1       6.020   4.015  15.103  0.00  0.00    +0.000 C 
ENDBRANCH   3   8
BRANCH   1  16
ATOM     16  N   UNL     1       2.191   5.964  20.528  0.00  0.00    +0.000 N 
ATOM     17  H   UNL     1       1.238   5.912  20.899  0.00  0.00    +0.000 HD
BRANCH  16  18
ATOM     18  C   UNL     1       2.307   7.192  19.732  0.00  0.00    +0.000 C 
BRANCH  18  21
ATOM     19  C   UNL     1       0.291   9.359  21.810  0.00  0.00    +0.000 A 
ATOM     20  N   UNL     1       1.019   8.295  21.552  0.00  0.00    +0.000 NA
ATOM     21  C   UNL     1       1.466   8.333  20.233  0.00  0.00    +0.000 A 
ATOM     22  C   UNL     1       1.055   9.438  19.515  0.00  0.00    +0.000 A 
ATOM     23  S   UNL     1       0.104  10.461  20.504  0.00  0.00    +0.000 S 
BRANCH  19  25
ATOM     24  C   UNL     1      -1.158  10.914  23.112  0.00  0.00    +0.000 C 
ATOM     25  C   UNL     1      -0.348   9.627  23.135  0.00  0.00    +0.000 C 
ENDBRANCH  19  25
ENDBRANCH  18  21
ENDBRANCH  16  18
ENDBRANCH   1  16
TORSDOF 5
ENDMDL
