MODEL 1
REMARK VINA RESULT:      -6.6      0.000      0.000
REMARK  Name = 
REMARK  12 active torsions:
REMARK  status: ('A' for Active; 'I' for Inactive)
REMARK    1  A    between atoms: C_1  and  C_2
REMARK    2  A    between atoms: C_2  and  C_3
REMARK    3  A    between atoms: C_3  and  C_4
REMARK    4  A    between atoms: C_4  and  C_5
REMARK    5  A    between atoms: C_6  and  C_7
REMARK    6  A    between atoms: C_8  and  C_9
REMARK    7  A    between atoms: C_20  and  N_21
REMARK    8  A    between atoms: N_21  and  C_22
REMARK    9  A    between atoms: C_22  and  C_23
REMARK   10  A    between atoms: C_23  and  N_24
REMARK   11  A    between atoms: N_24  and  C_25
REMARK   12  A    between atoms: N_24  and  C_26
REMARK                            x       y       z     vdW  Elec       q    Type
REMARK                         _______ _______ _______ _____ _____    ______ ____
ROOT
ATOM      1  C   UNL     1       4.170   4.498  18.169  0.00  0.00    +0.000 A 
ATOM      2  C   UNL     1       3.593   3.672  19.258  0.00  0.00    +0.000 A 
ATOM      3  C   UNL     1       3.930   2.197  19.378  0.00  0.00    +0.000 C 
ATOM      4  C   UNL     1       2.740   4.226  20.157  0.00  0.00    +0.000 A 
ATOM      5  C   UNL     1       2.340   5.579  20.045  0.00  0.00    +0.000 A 
ATOM      6  N   UNL     1       1.544   6.281  20.817  0.00  0.00    +0.000 NA
ATOM      7  C   UNL     1       1.483   7.517  20.253  0.00  0.00    +0.000 A 
ATOM      8  C   UNL     1       0.769   8.637  20.707  0.00  0.00    +0.000 A 
ATOM      9  C   UNL     1       0.844   9.829  19.988  0.00  0.00    +0.000 A 
ATOM     10  C   UNL     1       1.612   9.902  18.831  0.00  0.00    +0.000 A 
ATOM     11  C   UNL     1       2.325   8.792  18.356  0.00  0.00    +0.000 A 
ATOM     12  C   UNL     1       2.256   7.594  19.092  0.00  0.00    +0.000 A 
ATOM     13  N   UNL     1       2.822   6.321  18.964  0.00  0.00    +0.000 N 
ATOM     14  C   UNL     1       3.734   5.780  17.998  0.00  0.00    +0.000 A 
ENDROOT
BRANCH   4  15
ATOM     15  C   UNL     1       2.240   3.378  21.316  0.00  0.00    +0.000 C 
ATOM     16  N   UNL     1       1.826   2.673  22.276  0.00  0.00    +0.000 NA
ENDBRANCH   4  15
BRANCH  14  17
ATOM     17  N   UNL     1       4.195   6.577  16.940  0.00  0.00    +0.000 N 
ATOM     18  H   UNL     1       4.360   6.010  16.111  0.00  0.00    +0.000 HD
BRANCH  17  19
ATOM     19  C   UNL     1       5.335   7.488  17.191  0.00  0.00    +0.000 C 
BRANCH  19  20
ATOM     20  C   UNL     1       6.650   7.002  16.531  0.00  0.00    +0.000 C 
BRANCH  20  21
ATOM     21  N   UNL     1       7.845   7.235  17.373  0.00  0.00    +0.000 NA
ATOM     22  C   UNL     1       7.994   8.643  17.751  0.00  0.00    +0.000 C 
ATOM     23  C   UNL     1       7.810   6.407  18.582  0.00  0.00    +0.000 C 
ENDBRANCH  20  21
ENDBRANCH  19  20
ENDBRANCH  17  19
ENDBRANCH  14  17
BRANCH   1  24
ATOM     24  C   UNL     1       5.315   3.937  17.329  0.00  0.00    +0.000 C 
BRANCH  24  25
ATOM     25  C   UNL     1       4.991   3.739  15.838  0.00  0.00    +0.000 C 
BRANCH  25  27
ATOM     26  C   UNL     1       5.827   3.796  13.463  0.00  0.00    +0.000 C 
ATOM     27  C   UNL     1       6.211   3.909  14.929  0.00  0.00    +0.000 C 
ENDBRANCH  25  27
ENDBRANCH  24  25
ENDBRANCH   1  24
TORSDOF 8
ENDMDL
MODEL 2
REMARK VINA RESULT:      -6.0      6.464     10.299
REMARK  Name = 
REMARK  12 active torsions:
REMARK  status: ('A' for Active; 'I' for Inactive)
REMARK    1  A    between atoms: C_1  and  C_2
REMARK    2  A    between atoms: C_2  and  C_3
REMARK    3  A    between atoms: C_3  and  C_4
REMARK    4  A    between atoms: C_4  and  C_5
REMARK    5  A    between atoms: C_6  and  C_7
REMARK    6  A    between atoms: C_8  and  C_9
REMARK    7  A    between atoms: C_20  and  N_21
REMARK    8  A    between atoms: N_21  and  C_22
REMARK    9  A    between atoms: C_22  and  C_23
REMARK   10  A    between atoms: C_23  and  N_24
REMARK   11  A    between atoms: N_24  and  C_25
REMARK   12  A    between atoms: N_24  and  C_26
REMARK                            x       y       z     vdW  Elec       q    Type
REMARK                         _______ _______ _______ _____ _____    ______ ____
ROOT
ATOM      1  C   UNL     1      -1.858  11.326  18.822  0.00  0.00    +0.000 A 
ATOM      2  C   UNL     1      -0.761  10.714  19.614  0.00  0.00    +0.000 A 
ATOM      3  C   UNL     1       0.264   9.810  18.954  0.00  0.00    +0.000 C 
ATOM      4  C   UNL     1      -0.670  10.947  20.948  0.00  0.00    +0.000 A 
ATOM      5  C   UNL     1      -1.643  11.725  21.620  0.00  0.00    +0.000 A 
ATOM      6  N   UNL     1      -1.712  12.062  22.887  0.00  0.00    +0.000 NA
ATOM      7  C   UNL     1      -2.850  12.798  23.008  0.00  0.00    +0.000 A 
ATOM      8  C   UNL     1      -3.365  13.401  24.166  0.00  0.00    +0.000 A 
ATOM      9  C   UNL     1      -4.552  14.130  24.083  0.00  0.00    +0.000 A 
ATOM     10  C   UNL     1      -5.217  14.249  22.866  0.00  0.00    +0.000 A 
ATOM     11  C   UNL     1      -4.722  13.645  21.701  0.00  0.00    +0.000 A 
ATOM     12  C   UNL     1      -3.518  12.921  21.788  0.00  0.00    +0.000 A 
ATOM     13  N   UNL     1      -2.718  12.222  20.878  0.00  0.00    +0.000 N 
ATOM     14  C   UNL     1      -2.847  12.011  19.466  0.00  0.00    +0.000 A 
ENDROOT
BRANCH   4  15
ATOM     15  C   UNL     1       0.517  10.384  21.713  0.00  0.00    +0.000 C 
ATOM     16  N   UNL     1       1.501   9.916  22.348  0.00  0.00    +0.000 NA
ENDBRANCH   4  15
BRANCH  14  17
ATOM     17  N   UNL     1      -3.941  12.544  18.771  0.00  0.00    +0.000 N 
ATOM     18  H   UNL     1      -4.184  13.463  19.137  0.00  0.00    +0.000 HD
BRANCH  17  19
ATOM     19  C   UNL     1      -5.151  11.705  18.610  0.00  0.00    +0.000 C 
BRANCH  19  20
ATOM     20  C   UNL     1      -6.146  12.277  17.570  0.00  0.00    +0.000 C 
BRANCH  20  21
ATOM     21  N   UNL     1      -7.486  12.550  18.134  0.00  0.00    +0.000 NA
ATOM     22  C   UNL     1      -7.539  12.323  19.581  0.00  0.00    +0.000 C 
ATOM     23  C   UNL     1      -7.914  13.921  17.842  0.00  0.00    +0.000 C 
ENDBRANCH  20  21
ENDBRANCH  19  20
ENDBRANCH  17  19
ENDBRANCH  14  17
BRANCH   1  24
ATOM     24  C   UNL     1      -1.802  11.270  17.297  0.00  0.00    +0.000 C 
BRANCH  24  25
ATOM     25  C   UNL     1      -2.484  10.043  16.666  0.00  0.00    +0.000 C 
BRANCH  25  27
ATOM     26  C   UNL     1      -3.003  10.011  14.202  0.00  0.00    +0.000 C 
ATOM     27  C   UNL     1      -3.500  10.409  15.582  0.00  0.00    +0.000 C 
ENDBRANCH  25  27
ENDBRANCH  24  25
ENDBRANCH   1  24
TORSDOF 8
ENDMDL
MODEL 3
REMARK VINA RESULT:      -5.8      1.297      2.619
REMARK  Name = 
REMARK  12 active torsions:
REMARK  status: ('A' for Active; 'I' for Inactive)
REMARK    1  A    between atoms: C_1  and  C_2
REMARK    2  A    between atoms: C_2  and  C_3
REMARK    3  A    between atoms: C_3  and  C_4
REMARK    4  A    between atoms: C_4  and  C_5
REMARK    5  A    between atoms: C_6  and  C_7
REMARK    6  A    between atoms: C_8  and  C_9
REMARK    7  A    between atoms: C_20  and  N_21
REMARK    8  A    between atoms: N_21  and  C_22
REMARK    9  A    between atoms: C_22  and  C_23
REMARK   10  A    between atoms: C_23  and  N_24
REMARK   11  A    between atoms: N_24  and  C_25
REMARK   12  A    between atoms: N_24  and  C_26
REMARK                            x       y       z     vdW  Elec       q    Type
REMARK                         _______ _______ _______ _____ _____    ______ ____
ROOT
ATOM      1  C   UNL     1       4.773   4.699  18.186  0.00  0.00    +0.000 A 
ATOM      2  C   UNL     1       4.122   3.958  19.295  0.00  0.00    +0.000 A 
ATOM      3  C   UNL     1       4.516   2.526  19.610  0.00  0.00    +0.000 C 
ATOM      4  C   UNL     1       3.150   4.550  20.035  0.00  0.00    +0.000 A 
ATOM      5  C   UNL     1       2.699   5.857  19.734  0.00  0.00    +0.000 A 
ATOM      6  N   UNL     1       1.790   6.586  20.339  0.00  0.00    +0.000 NA
ATOM      7  C   UNL     1       1.731   7.751  19.638  0.00  0.00    +0.000 A 
ATOM      8  C   UNL     1       0.918   8.867  19.892  0.00  0.00    +0.000 A 
ATOM      9  C   UNL     1       1.011   9.980  19.057  0.00  0.00    +0.000 A 
ATOM     10  C   UNL     1       1.896   9.978  17.983  0.00  0.00    +0.000 A 
ATOM     11  C   UNL     1       2.710   8.869  17.709  0.00  0.00    +0.000 A 
ATOM     12  C   UNL     1       2.620   7.753  18.561  0.00  0.00    +0.000 A 
ATOM     13  N   UNL     1       3.259   6.510  18.633  0.00  0.00    +0.000 N 
ATOM     14  C   UNL     1       4.295   5.928  17.831  0.00  0.00    +0.000 A 
ENDROOT
BRANCH   4  15
ATOM     15  C   UNL     1       2.570   3.798  21.223  0.00  0.00    +0.000 C 
ATOM     16  N   UNL     1       2.089   3.175  22.208  0.00  0.00    +0.000 NA
ENDBRANCH   4  15
BRANCH  14  17
ATOM     17  N   UNL     1       4.829   6.636  16.746  0.00  0.00    +0.000 N 
ATOM     18  H   UNL     1       4.284   7.477  16.564  0.00  0.00    +0.000 HD
BRANCH  17  19
ATOM     19  C   UNL     1       5.097   5.901  15.489  0.00  0.00    +0.000 C 
BRANCH  19  20
ATOM     20  C   UNL     1       6.553   6.073  14.990  0.00  0.00    +0.000 C 
BRANCH  20  21
ATOM     21  N   UNL     1       7.056   4.899  14.241  0.00  0.00    +0.000 NA
ATOM     22  C   UNL     1       5.979   3.987  13.847  0.00  0.00    +0.000 C 
ATOM     23  C   UNL     1       7.803   5.313  13.050  0.00  0.00    +0.000 C 
ENDBRANCH  20  21
ENDBRANCH  19  20
ENDBRANCH  17  19
ENDBRANCH  14  17
BRANCH   1  24
ATOM     24  C   UNL     1       6.028   4.124  17.536  0.00  0.00    +0.000 C 
BRANCH  24  25
ATOM     25  C   UNL     1       7.351   4.506  18.224  0.00  0.00    +0.000 C 
BRANCH  25  27
ATOM     26  C   UNL     1       7.941   6.948  18.400  0.00  0.00    +0.000 C 
ATOM     27  C   UNL     1       7.244   5.777  19.071  0.00  0.00    +0.000 C 
ENDBRANCH  25  27
ENDBRANCH  24  25
ENDBRANCH   1  24
TORSDOF 8
ENDMDL
MODEL 4
REMARK VINA RESULT:      -5.8      6.732     10.417
REMARK  Name = 
REMARK  12 active torsions:
REMARK  status: ('A' for Active; 'I' for Inactive)
REMARK    1  A    between atoms: C_1  and  C_2
REMARK    2  A    between atoms: C_2  and  C_3
REMARK    3  A    between atoms: C_3  and  C_4
REMARK    4  A    between atoms: C_4  and  C_5
REMARK    5  A    between atoms: C_6  and  C_7
REMARK    6  A    between atoms: C_8  and  C_9
REMARK    7  A    between atoms: C_20  and  N_21
REMARK    8  A    between atoms: N_21  and  C_22
REMARK    9  A    between atoms: C_22  and  C_23
REMARK   10  A    between atoms: C_23  and  N_24
REMARK   11  A    between atoms: N_24  and  C_25
REMARK   12  A    between atoms: N_24  and  C_26
REMARK                            x       y       z     vdW  Elec       q    Type
REMARK                         _______ _______ _______ _____ _____    ______ ____
ROOT
ATOM      1  C   UNL     1      -2.250  11.513  18.718  0.00  0.00    +0.000 A 
ATOM      2  C   UNL     1      -1.083  10.929  19.426  0.00  0.00    +0.000 A 
ATOM      3  C   UNL     1      -0.085  10.054  18.690  0.00  0.00    +0.000 C 
ATOM      4  C   UNL     1      -0.902  11.161  20.751  0.00  0.00    +0.000 A 
ATOM      5  C   UNL     1      -1.843  11.912  21.495  0.00  0.00    +0.000 A 
ATOM      6  N   UNL     1      -1.829  12.245  22.765  0.00  0.00    +0.000 NA
ATOM      7  C   UNL     1      -2.974  12.950  22.971  0.00  0.00    +0.000 A 
ATOM      8  C   UNL     1      -3.420  13.536  24.166  0.00  0.00    +0.000 A 
ATOM      9  C   UNL     1      -4.628  14.233  24.172  0.00  0.00    +0.000 A 
ATOM     10  C   UNL     1      -5.383  14.337  23.007  0.00  0.00    +0.000 A 
ATOM     11  C   UNL     1      -4.958  13.749  21.807  0.00  0.00    +0.000 A 
ATOM     12  C   UNL     1      -3.732  13.057  21.803  0.00  0.00    +0.000 A 
ATOM     13  N   UNL     1      -2.982  12.381  20.835  0.00  0.00    +0.000 N 
ATOM     14  C   UNL     1      -3.208  12.170  19.435  0.00  0.00    +0.000 A 
ENDROOT
BRANCH   4  15
ATOM     15  C   UNL     1       0.352  10.629  21.425  0.00  0.00    +0.000 C 
ATOM     16  N   UNL     1       1.392  10.187  21.986  0.00  0.00    +0.000 NA
ENDBRANCH   4  15
BRANCH  14  17
ATOM     17  N   UNL     1      -4.364  12.676  18.823  0.00  0.00    +0.000 N 
ATOM     18  H   UNL     1      -4.689  13.510  19.307  0.00  0.00    +0.000 HD
BRANCH  17  19
ATOM     19  C   UNL     1      -5.487  11.747  18.564  0.00  0.00    +0.000 C 
BRANCH  19  20
ATOM     20  C   UNL     1      -6.837  12.266  19.118  0.00  0.00    +0.000 C 
BRANCH  20  21
ATOM     21  N   UNL     1      -7.603  11.232  19.850  0.00  0.00    +0.000 NA
ATOM     22  C   UNL     1      -7.062   9.886  19.641  0.00  0.00    +0.000 C 
ATOM     23  C   UNL     1      -7.643  11.523  21.286  0.00  0.00    +0.000 C 
ENDBRANCH  20  21
ENDBRANCH  19  20
ENDBRANCH  17  19
ENDBRANCH  14  17
BRANCH   1  24
ATOM     24  C   UNL     1      -2.304  11.462  17.193  0.00  0.00    +0.000 C 
BRANCH  24  25
ATOM     25  C   UNL     1      -3.090  10.273  16.610  0.00  0.00    +0.000 C 
BRANCH  25  27
ATOM     26  C   UNL     1      -3.813   9.990  14.215  0.00  0.00    +0.000 C 
ATOM     27  C   UNL     1      -2.653   9.900  15.191  0.00  0.00    +0.000 C 
ENDBRANCH  25  27
ENDBRANCH  24  25
ENDBRANCH   1  24
TORSDOF 8
ENDMDL
MODEL 5
REMARK VINA RESULT:      -5.8      7.482     11.526
REMARK  Name = 
REMARK  12 active torsions:
REMARK  status: ('A' for Active; 'I' for Inactive)
REMARK    1  A    between atoms: C_1  and  C_2
REMARK    2  A    between atoms: C_2  and  C_3
REMARK    3  A    between atoms: C_3  and  C_4
REMARK    4  A    between atoms: C_4  and  C_5
REMARK    5  A    between atoms: C_6  and  C_7
REMARK    6  A    between atoms: C_8  and  C_9
REMARK    7  A    between atoms: C_20  and  N_21
REMARK    8  A    between atoms: N_21  and  C_22
REMARK    9  A    between atoms: C_22  and  C_23
REMARK   10  A    between atoms: C_23  and  N_24
REMARK   11  A    between atoms: N_24  and  C_25
REMARK   12  A    between atoms: N_24  and  C_26
REMARK                            x       y       z     vdW  Elec       q    Type
REMARK                         _______ _______ _______ _____ _____    ______ ____
ROOT
ATOM      1  C   UNL     1      -3.077  13.179  21.345  0.00  0.00    +0.000 A 
ATOM      2  C   UNL     1      -1.776  12.609  21.776  0.00  0.00    +0.000 A 
ATOM      3  C   UNL     1      -1.135  13.035  23.084  0.00  0.00    +0.000 C 
ATOM      4  C   UNL     1      -1.134  11.705  20.994  0.00  0.00    +0.000 A 
ATOM      5  C   UNL     1      -1.657  11.330  19.733  0.00  0.00    +0.000 A 
ATOM      6  N   UNL     1      -1.187  10.473  18.856  0.00  0.00    +0.000 NA
ATOM      7  C   UNL     1      -2.060  10.502  17.813  0.00  0.00    +0.000 A 
ATOM      8  C   UNL     1      -2.008   9.755  16.626  0.00  0.00    +0.000 A 
ATOM      9  C   UNL     1      -3.013   9.921  15.673  0.00  0.00    +0.000 A 
ATOM     10  C   UNL     1      -4.048  10.823  15.896  0.00  0.00    +0.000 A 
ATOM     11  C   UNL     1      -4.111  11.586  17.072  0.00  0.00    +0.000 A 
ATOM     12  C   UNL     1      -3.102  11.406  18.036  0.00  0.00    +0.000 A 
ATOM     13  N   UNL     1      -2.837  11.941  19.301  0.00  0.00    +0.000 N 
ATOM     14  C   UNL     1      -3.554  12.891  20.100  0.00  0.00    +0.000 A 
ENDROOT
BRANCH   4  15
ATOM     15  C   UNL     1       0.149  11.069  21.506  0.00  0.00    +0.000 C 
ATOM     16  N   UNL     1       1.212  10.540  21.930  0.00  0.00    +0.000 NA
ENDBRANCH   4  15
BRANCH  14  17
ATOM     17  N   UNL     1      -4.741  13.462  19.619  0.00  0.00    +0.000 N 
ATOM     18  H   UNL     1      -4.664  14.477  19.590  0.00  0.00    +0.000 HD
BRANCH  17  19
ATOM     19  C   UNL     1      -6.022  13.049  20.238  0.00  0.00    +0.000 C 
BRANCH  19  20
ATOM     20  C   UNL     1      -6.711  11.889  19.477  0.00  0.00    +0.000 C 
BRANCH  20  21
ATOM     21  N   UNL     1      -6.798  10.642  20.269  0.00  0.00    +0.000 NA
ATOM     22  C   UNL     1      -7.915  10.663  21.218  0.00  0.00    +0.000 C 
ATOM     23  C   UNL     1      -6.921   9.470  19.399  0.00  0.00    +0.000 C 
ENDBRANCH  20  21
ENDBRANCH  19  20
ENDBRANCH  17  19
ENDBRANCH  14  17
BRANCH   1  24
ATOM     24  C   UNL     1      -3.906  13.988  22.339  0.00  0.00    +0.000 C 
BRANCH  24  25
ATOM     25  C   UNL     1      -3.756  15.515  22.221  0.00  0.00    +0.000 C 
BRANCH  25  27
ATOM     26  C   UNL     1      -3.570  15.469  24.732  0.00  0.00    +0.000 C 
ATOM     27  C   UNL     1      -3.115  16.155  23.455  0.00  0.00    +0.000 C 
ENDBRANCH  25  27
ENDBRANCH  24  25
ENDBRANCH   1  24
TORSDOF 8
ENDMDL
MODEL 6
REMARK VINA RESULT:      -5.6      1.996      6.401
REMARK  Name = 
REMARK  12 active torsions:
REMARK  status: ('A' for Active; 'I' for Inactive)
REMARK    1  A    between atoms: C_1  and  C_2
REMARK    2  A    between atoms: C_2  and  C_3
REMARK    3  A    between atoms: C_3  and  C_4
REMARK    4  A    between atoms: C_4  and  C_5
REMARK    5  A    between atoms: C_6  and  C_7
REMARK    6  A    between atoms: C_8  and  C_9
REMARK    7  A    between atoms: C_20  and  N_21
REMARK    8  A    between atoms: N_21  and  C_22
REMARK    9  A    between atoms: C_22  and  C_23
REMARK   10  A    between atoms: C_23  and  N_24
REMARK   11  A    between atoms: N_24  and  C_25
REMARK   12  A    between atoms: N_24  and  C_26
REMARK                            x       y       z     vdW  Elec       q    Type
REMARK                         _______ _______ _______ _____ _____    ______ ____
ROOT
ATOM      1  C   UNL     1       3.176   7.191  17.941  0.00  0.00    +0.000 A 
ATOM      2  C   UNL     1       4.274   6.594  17.140  0.00  0.00    +0.000 A 
ATOM      3  C   UNL     1       4.869   7.339  15.959  0.00  0.00    +0.000 C 
ATOM      4  C   UNL     1       4.753   5.362  17.448  0.00  0.00    +0.000 A 
ATOM      5  C   UNL     1       4.183   4.600  18.496  0.00  0.00    +0.000 A 
ATOM      6  N   UNL     1       4.517   3.411  18.940  0.00  0.00    +0.000 NA
ATOM      7  C   UNL     1       3.641   3.136  19.944  0.00  0.00    +0.000 A 
ATOM      8  C   UNL     1       3.586   1.986  20.748  0.00  0.00    +0.000 A 
ATOM      9  C   UNL     1       2.610   1.896  21.741  0.00  0.00    +0.000 A 
ATOM     10  C   UNL     1       1.700   2.932  21.925  0.00  0.00    +0.000 A 
ATOM     11  C   UNL     1       1.734   4.084  21.125  0.00  0.00    +0.000 A 
ATOM     12  C   UNL     1       2.727   4.176  20.132  0.00  0.00    +0.000 A 
ATOM     13  N   UNL     1       3.092   5.138  19.185  0.00  0.00    +0.000 N 
ATOM     14  C   UNL     1       2.563   6.440  18.901  0.00  0.00    +0.000 A 
ENDROOT
BRANCH   4  15
ATOM     15  C   UNL     1       5.940   4.818  16.669  0.00  0.00    +0.000 C 
ATOM     16  N   UNL     1       6.924   4.367  16.024  0.00  0.00    +0.000 NA
ENDBRANCH   4  15
BRANCH  14  17
ATOM     17  N   UNL     1       1.474   6.933  19.634  0.00  0.00    +0.000 N 
ATOM     18  H   UNL     1       0.835   7.443  19.027  0.00  0.00    +0.000 HD
BRANCH  17  19
ATOM     19  C   UNL     1       1.748   7.699  20.871  0.00  0.00    +0.000 C 
BRANCH  19  20
ATOM     20  C   UNL     1       0.491   8.413  21.428  0.00  0.00    +0.000 C 
BRANCH  20  21
ATOM     21  N   UNL     1       0.812   9.582  22.277  0.00  0.00    +0.000 NA
ATOM     22  C   UNL     1       0.776  10.841  21.529  0.00  0.00    +0.000 C 
ATOM     23  C   UNL     1      -0.099   9.669  23.422  0.00  0.00    +0.000 C 
ENDBRANCH  20  21
ENDBRANCH  19  20
ENDBRANCH  17  19
ENDBRANCH  14  17
BRANCH   1  24
ATOM     24  C   UNL     1       2.827   8.665  17.752  0.00  0.00    +0.000 C 
BRANCH  24  25
ATOM     25  C   UNL     1       1.347   8.947  17.436  0.00  0.00    +0.000 C 
BRANCH  25  27
ATOM     26  C   UNL     1      -0.723  10.198  18.138  0.00  0.00    +0.000 C 
ATOM     27  C   UNL     1       0.796  10.170  18.173  0.00  0.00    +0.000 C 
ENDBRANCH  25  27
ENDBRANCH  24  25
ENDBRANCH   1  24
TORSDOF 8
ENDMDL
MODEL 7
REMARK VINA RESULT:      -5.6      8.169     11.411
REMARK  Name = 
REMARK  12 active torsions:
REMARK  status: ('A' for Active; 'I' for Inactive)
REMARK    1  A    between atoms: C_1  and  C_2
REMARK    2  A    between atoms: C_2  and  C_3
REMARK    3  A    between atoms: C_3  and  C_4
REMARK    4  A    between atoms: C_4  and  C_5
REMARK    5  A    between atoms: C_6  and  C_7
REMARK    6  A    between atoms: C_8  and  C_9
REMARK    7  A    between atoms: C_20  and  N_21
REMARK    8  A    between atoms: N_21  and  C_22
REMARK    9  A    between atoms: C_22  and  C_23
REMARK   10  A    between atoms: C_23  and  N_24
REMARK   11  A    between atoms: N_24  and  C_25
REMARK   12  A    between atoms: N_24  and  C_26
REMARK                            x       y       z     vdW  Elec       q    Type
REMARK                         _______ _______ _______ _____ _____    ______ ____
ROOT
ATOM      1  C   UNL     1      -3.438  11.967  18.849  0.00  0.00    +0.000 A 
ATOM      2  C   UNL     1      -2.402  11.777  19.895  0.00  0.00    +0.000 A 
ATOM      3  C   UNL     1      -1.145  10.977  19.608  0.00  0.00    +0.000 C 
ATOM      4  C   UNL     1      -2.574  12.309  21.131  0.00  0.00    +0.000 A 
ATOM      5  C   UNL     1      -3.762  13.003  21.468  0.00  0.00    +0.000 A 
ATOM      6  N   UNL     1      -4.095  13.588  22.594  0.00  0.00    +0.000 NA
ATOM      7  C   UNL     1      -5.345  14.087  22.391  0.00  0.00    +0.000 A 
ATOM      8  C   UNL     1      -6.139  14.812  23.293  0.00  0.00    +0.000 A 
ATOM      9  C   UNL     1      -7.400  15.250  22.889  0.00  0.00    +0.000 A 
ATOM     10  C   UNL     1      -7.864  14.964  21.609  0.00  0.00    +0.000 A 
ATOM     11  C   UNL     1      -7.088  14.233  20.697  0.00  0.00    +0.000 A 
ATOM     12  C   UNL     1      -5.812  13.803  21.106  0.00  0.00    +0.000 A 
ATOM     13  N   UNL     1      -4.766  13.098  20.501  0.00  0.00    +0.000 N 
ATOM     14  C   UNL     1      -4.621  12.562  19.179  0.00  0.00    +0.000 A 
ENDROOT
BRANCH   4  15
ATOM     15  C   UNL     1      -1.454  12.179  22.151  0.00  0.00    +0.000 C 
ATOM     16  N   UNL     1      -0.524  12.071  22.996  0.00  0.00    +0.000 NA
ENDBRANCH   4  15
BRANCH  14  17
ATOM     17  N   UNL     1      -5.659  12.699  18.245  0.00  0.00    +0.000 N 
ATOM     18  H   UNL     1      -5.972  13.667  18.198  0.00  0.00    +0.000 HD
BRANCH  17  19
ATOM     19  C   UNL     1      -6.813  11.776  18.335  0.00  0.00    +0.000 C 
BRANCH  19  20
ATOM     20  C   UNL     1      -6.445  10.413  18.973  0.00  0.00    +0.000 C 
BRANCH  20  21
ATOM     21  N   UNL     1      -7.538   9.838  19.789  0.00  0.00    +0.000 NA
ATOM     22  C   UNL     1      -7.254   8.464  20.211  0.00  0.00    +0.000 C 
ATOM     23  C   UNL     1      -7.806  10.664  20.970  0.00  0.00    +0.000 C 
ENDBRANCH  20  21
ENDBRANCH  19  20
ENDBRANCH  17  19
ENDBRANCH  14  17
BRANCH   1  24
ATOM     24  C   UNL     1      -3.121  11.592  17.404  0.00  0.00    +0.000 C 
BRANCH  24  25
ATOM     25  C   UNL     1      -3.334  10.107  17.056  0.00  0.00    +0.000 C 
BRANCH  25  27
ATOM     26  C   UNL     1      -3.561  10.141  14.548  0.00  0.00    +0.000 C 
ATOM     27  C   UNL     1      -2.701   9.704  15.722  0.00  0.00    +0.000 C 
ENDBRANCH  25  27
ENDBRANCH  24  25
ENDBRANCH   1  24
TORSDOF 8
ENDMDL
MODEL 8
REMARK VINA RESULT:      -5.5      6.655      9.971
REMARK  Name = 
REMARK  12 active torsions:
REMARK  status: ('A' for Active; 'I' for Inactive)
REMARK    1  A    between atoms: C_1  and  C_2
REMARK    2  A    between atoms: C_2  and  C_3
REMARK    3  A    between atoms: C_3  and  C_4
REMARK    4  A    between atoms: C_4  and  C_5
REMARK    5  A    between atoms: C_6  and  C_7
REMARK    6  A    between atoms: C_8  and  C_9
REMARK    7  A    between atoms: C_20  and  N_21
REMARK    8  A    between atoms: N_21  and  C_22
REMARK    9  A    between atoms: C_22  and  C_23
REMARK   10  A    between atoms: C_23  and  N_24
REMARK   11  A    between atoms: N_24  and  C_25
REMARK   12  A    between atoms: N_24  and  C_26
REMARK                            x       y       z     vdW  Elec       q    Type
REMARK                         _______ _______ _______ _____ _____    ______ ____
ROOT
ATOM      1  C   UNL     1      -1.373  11.546  20.197  0.00  0.00    +0.000 A 
ATOM      2  C   UNL     1      -1.434  10.929  18.848  0.00  0.00    +0.000 A 
ATOM      3  C   UNL     1      -0.225  10.224  18.260  0.00  0.00    +0.000 C 
ATOM      4  C   UNL     1      -2.573  11.001  18.114  0.00  0.00    +0.000 A 
ATOM      5  C   UNL     1      -3.703  11.709  18.590  0.00  0.00    +0.000 A 
ATOM      6  N   UNL     1      -4.880  11.874  18.033  0.00  0.00    +0.000 NA
ATOM      7  C   UNL     1      -5.589  12.647  18.899  0.00  0.00    +0.000 A 
ATOM      8  C   UNL     1      -6.913  13.096  18.766  0.00  0.00    +0.000 A 
ATOM      9  C   UNL     1      -7.470  13.879  19.776  0.00  0.00    +0.000 A 
ATOM     10  C   UNL     1      -6.718  14.215  20.898  0.00  0.00    +0.000 A 
ATOM     11  C   UNL     1      -5.391  13.784  21.043  0.00  0.00    +0.000 A 
ATOM     12  C   UNL     1      -4.837  12.984  20.026  0.00  0.00    +0.000 A 
ATOM     13  N   UNL     1      -3.602  12.359  19.823  0.00  0.00    +0.000 N 
ATOM     14  C   UNL     1      -2.423  12.299  20.636  0.00  0.00    +0.000 A 
ENDROOT
BRANCH   4  15
ATOM     15  C   UNL     1      -2.634  10.278  16.778  0.00  0.00    +0.000 C 
ATOM     16  N   UNL     1      -2.685   9.680  15.669  0.00  0.00    +0.000 NA
ENDBRANCH   4  15
BRANCH  14  17
ATOM     17  N   UNL     1      -2.384  12.961  21.871  0.00  0.00    +0.000 N 
ATOM     18  H   UNL     1      -3.299  12.944  22.316  0.00  0.00    +0.000 HD
BRANCH  17  19
ATOM     19  C   UNL     1      -1.799  14.320  21.923  0.00  0.00    +0.000 C 
BRANCH  19  20
ATOM     20  C   UNL     1      -0.757  14.484  23.057  0.00  0.00    +0.000 C 
BRANCH  20  21
ATOM     21  N   UNL     1       0.552  14.983  22.578  0.00  0.00    +0.000 NA
ATOM     22  C   UNL     1       0.696  14.863  21.125  0.00  0.00    +0.000 C 
ATOM     23  C   UNL     1       0.762  16.379  22.974  0.00  0.00    +0.000 C 
ENDBRANCH  20  21
ENDBRANCH  19  20
ENDBRANCH  17  19
ENDBRANCH  14  17
BRANCH   1  24
ATOM     24  C   UNL     1      -0.188  11.239  21.108  0.00  0.00    +0.000 C 
BRANCH  24  25
ATOM     25  C   UNL     1      -0.476  10.225  22.230  0.00  0.00    +0.000 C 
BRANCH  25  27
ATOM     26  C   UNL     1       1.184   8.562  21.323  0.00  0.00    +0.000 C 
ATOM     27  C   UNL     1      -0.241   8.773  21.804  0.00  0.00    +0.000 C 
ENDBRANCH  25  27
ENDBRANCH  24  25
ENDBRANCH   1  24
TORSDOF 8
ENDMDL
MODEL 9
REMARK VINA RESULT:      -5.5      6.613     10.174
REMARK  Name = 
REMARK  12 active torsions:
REMARK  status: ('A' for Active; 'I' for Inactive)
REMARK    1  A    between atoms: C_1  and  C_2
REMARK    2  A    between atoms: C_2  and  C_3
REMARK    3  A    between atoms: C_3  and  C_4
REMARK    4  A    between atoms: C_4  and  C_5
REMARK    5  A    between atoms: C_6  and  C_7
REMARK    6  A    between atoms: C_8  and  C_9
REMARK    7  A    between atoms: C_20  and  N_21
REMARK    8  A    between atoms: N_21  and  C_22
REMARK    9  A    between atoms: C_22  and  C_23
REMARK   10  A    between atoms: C_23  and  N_24
REMARK   11  A    between atoms: N_24  and  C_25
REMARK   12  A    between atoms: N_24  and  C_26
REMARK                            x       y       z     vdW  Elec       q    Type
REMARK                         _______ _______ _______ _____ _____    ______ ____
ROOT
ATOM      1  C   UNL     1      -2.867  12.582  19.619  0.00  0.00    +0.000 A 
ATOM      2  C   UNL     1      -4.327  12.377  19.788  0.00  0.00    +0.000 A 
ATOM      3  C   UNL     1      -5.170  11.815  18.658  0.00  0.00    +0.000 C 
ATOM      4  C   UNL     1      -4.933  12.705  20.958  0.00  0.00    +0.000 A 
ATOM      5  C   UNL     1      -4.202  13.298  22.016  0.00  0.00    +0.000 A 
ATOM      6  N   UNL     1      -4.609  13.667  23.208  0.00  0.00    +0.000 NA
ATOM      7  C   UNL     1      -3.515  14.193  23.822  0.00  0.00    +0.000 A 
ATOM      8  C   UNL     1      -3.427  14.719  25.120  0.00  0.00    +0.000 A 
ATOM      9  C   UNL     1      -2.202  15.207  25.575  0.00  0.00    +0.000 A 
ATOM     10  C   UNL     1      -1.085  15.176  24.746  0.00  0.00    +0.000 A 
ATOM     11  C   UNL     1      -1.156  14.663  23.442  0.00  0.00    +0.000 A 
ATOM     12  C   UNL     1      -2.392  14.161  22.992  0.00  0.00    +0.000 A 
ATOM     13  N   UNL     1      -2.846  13.566  21.811  0.00  0.00    +0.000 N 
ATOM     14  C   UNL     1      -2.164  13.225  20.596  0.00  0.00    +0.000 A 
ENDROOT
BRANCH   4  15
ATOM     15  C   UNL     1      -6.411  12.396  21.133  0.00  0.00    +0.000 C 
ATOM     16  N   UNL     1      -7.637  12.139  21.280  0.00  0.00    +0.000 NA
ENDBRANCH   4  15
BRANCH  14  17
ATOM     17  N   UNL     1      -0.798  13.507  20.452  0.00  0.00    +0.000 N 
ATOM     18  H   UNL     1      -0.598  13.835  19.509  0.00  0.00    +0.000 HD
BRANCH  17  19
ATOM     19  C   UNL     1       0.181  12.477  20.869  0.00  0.00    +0.000 C 
BRANCH  19  20
ATOM     20  C   UNL     1      -0.439  11.396  21.789  0.00  0.00    +0.000 C 
BRANCH  20  21
ATOM     21  N   UNL     1       0.524  10.343  22.182  0.00  0.00    +0.000 NA
ATOM     22  C   UNL     1       0.015   9.498  23.265  0.00  0.00    +0.000 C 
ATOM     23  C   UNL     1       0.883   9.501  21.036  0.00  0.00    +0.000 C 
ENDBRANCH  20  21
ENDBRANCH  19  20
ENDBRANCH  17  19
ENDBRANCH  14  17
BRANCH   1  24
ATOM     24  C   UNL     1      -2.161  11.976  18.409  0.00  0.00    +0.000 C 
BRANCH  24  25
ATOM     25  C   UNL     1      -1.862  10.470  18.518  0.00  0.00    +0.000 C 
BRANCH  25  27
ATOM     26  C   UNL     1      -2.570  10.077  16.133  0.00  0.00    +0.000 C 
ATOM     27  C   UNL     1      -2.714   9.618  17.574  0.00  0.00    +0.000 C 
ENDBRANCH  25  27
ENDBRANCH  24  25
ENDBRANCH   1  24
TORSDOF 8
ENDMDL
