MODEL 1
REMARK VINA RESULT:      -6.2      0.000      0.000
REMARK  Name = 
REMARK  12 active torsions:
REMARK  status: ('A' for Active; 'I' for Inactive)
REMARK    1  A    between atoms: C_1  and  C_2
REMARK    2  A    between atoms: C_2  and  C_3
REMARK    3  A    between atoms: C_3  and  C_4
REMARK    4  A    between atoms: C_4  and  C_5
REMARK    5  A    between atoms: C_5  and  C_6
REMARK    6  A    between atoms: C_6  and  C_7
REMARK    7  A    between atoms: C_7  and  C_8
REMARK    8  A    between atoms: C_8  and  N_9
REMARK    9  A    between atoms: N_9  and  C_10
REMARK   10  A    between atoms: N_9  and  N_11
REMARK   11  A    between atoms: N_12  and  C_13
REMARK   12  A    between atoms: C_16  and  C_17
REMARK                            x       y       z     vdW  Elec       q    Type
REMARK                         _______ _______ _______ _____ _____    ______ ____
ROOT
ATOM      1  N   UNL     1       6.782   6.217  16.617  0.00  0.00    +0.000 NA
ATOM      2  N   UNL     1       7.609   5.703  15.830  0.00  0.00    +0.000 NA
ENDROOT
BRANCH   2   3
ATOM      3  C   UNL     1       7.011   5.025  14.758  0.00  0.00    +0.000 A 
ATOM      4  C   UNL     1       5.769   4.412  14.987  0.00  0.00    +0.000 A 
ATOM      5  C   UNL     1       5.120   3.685  13.981  0.00  0.00    +0.000 A 
ATOM      6  C   UNL     1       5.690   3.580  12.709  0.00  0.00    +0.000 A 
ATOM      7  C   UNL     1       6.920   4.216  12.467  0.00  0.00    +0.000 A 
ATOM      8  C   UNL     1       7.565   4.933  13.478  0.00  0.00    +0.000 A 
BRANCH   6   9
ATOM      9  C   UNL     1       5.057   2.830  11.585  0.00  0.00    +0.000 C 
ATOM     10  N   UNL     1       3.993   3.388  10.933  0.00  0.00    +0.000 N 
ATOM     11  O   UNL     1       5.471   1.729  11.237  0.00  0.00    +0.000 OA
ATOM     12  H   UNL     1       3.599   4.299  11.126  0.00  0.00    +0.000 HD
ATOM     13  H   UNL     1       3.605   2.862  10.165  0.00  0.00    +0.000 HD
ENDBRANCH   6   9
ENDBRANCH   2   3
BRANCH   1  14
ATOM     14  N   UNL     1       7.387   6.914  17.622  0.00  0.00    +0.000 N 
ATOM     15  C   UNL     1       7.714   8.331  17.463  0.00  0.00    +0.000 C 
BRANCH  14  16
ATOM     16  C   UNL     1       7.511   6.247  18.920  0.00  0.00    +0.000 C 
BRANCH  16  17
ATOM     17  C   UNL     1       6.647   4.986  19.058  0.00  0.00    +0.000 C 
BRANCH  17  18
ATOM     18  C   UNL     1       5.195   5.272  19.445  0.00  0.00    +0.000 C 
BRANCH  18  19
ATOM     19  C   UNL     1       4.253   4.749  18.356  0.00  0.00    +0.000 C 
BRANCH  19  20
ATOM     20  C   UNL     1       3.952   3.262  18.530  0.00  0.00    +0.000 C 
BRANCH  20  21
ATOM     21  C   UNL     1       2.518   2.942  18.104  0.00  0.00    +0.000 C 
BRANCH  21  23
ATOM     22  C   UNL     1       0.899   3.573  19.925  0.00  0.00    +0.000 C 
ATOM     23  C   UNL     1       1.544   4.000  18.617  0.00  0.00    +0.000 C 
ENDBRANCH  21  23
ENDBRANCH  20  21
ENDBRANCH  19  20
ENDBRANCH  18  19
ENDBRANCH  17  18
ENDBRANCH  16  17
ENDBRANCH  14  16
ENDBRANCH   1  14
TORSDOF 10
ENDMDL
MODEL 2
REMARK VINA RESULT:      -6.2      5.060      8.014
REMARK  Name = 
REMARK  12 active torsions:
REMARK  status: ('A' for Active; 'I' for Inactive)
REMARK    1  A    between atoms: C_1  and  C_2
REMARK    2  A    between atoms: C_2  and  C_3
REMARK    3  A    between atoms: C_3  and  C_4
REMARK    4  A    between atoms: C_4  and  C_5
REMARK    5  A    between atoms: C_5  and  C_6
REMARK    6  A    between atoms: C_6  and  C_7
REMARK    7  A    between atoms: C_7  and  C_8
REMARK    8  A    between atoms: C_8  and  N_9
REMARK    9  A    between atoms: N_9  and  C_10
REMARK   10  A    between atoms: N_9  and  N_11
REMARK   11  A    between atoms: N_12  and  C_13
REMARK   12  A    between atoms: C_16  and  C_17
REMARK                            x       y       z     vdW  Elec       q    Type
REMARK                         _______ _______ _______ _____ _____    ______ ____
ROOT
ATOM      1  N   UNL     1       2.301   4.856  18.976  0.00  0.00    +0.000 NA
ATOM      2  N   UNL     1       3.015   5.806  19.371  0.00  0.00    +0.000 NA
ENDROOT
BRANCH   2   3
ATOM      3  C   UNL     1       2.359   7.045  19.345  0.00  0.00    +0.000 A 
ATOM      4  C   UNL     1       2.270   7.708  18.111  0.00  0.00    +0.000 A 
ATOM      5  C   UNL     1       1.663   8.966  18.003  0.00  0.00    +0.000 A 
ATOM      6  C   UNL     1       1.103   9.576  19.129  0.00  0.00    +0.000 A 
ATOM      7  C   UNL     1       1.164   8.902  20.361  0.00  0.00    +0.000 A 
ATOM      8  C   UNL     1       1.778   7.651  20.462  0.00  0.00    +0.000 A 
BRANCH   6   9
ATOM      9  C   UNL     1       0.433  10.909  19.092  0.00  0.00    +0.000 C 
ATOM     10  N   UNL     1      -0.478  11.165  18.107  0.00  0.00    +0.000 N 
ATOM     11  O   UNL     1       0.683  11.773  19.926  0.00  0.00    +0.000 OA
ATOM     12  H   UNL     1      -0.772  10.510  17.394  0.00  0.00    +0.000 HD
ATOM     13  H   UNL     1      -0.926  12.068  18.127  0.00  0.00    +0.000 HD
ENDBRANCH   6   9
ENDBRANCH   2   3
BRANCH   1  14
ATOM     14  N   UNL     1       2.944   3.655  19.060  0.00  0.00    +0.000 N 
ATOM     15  C   UNL     1       2.276   2.483  19.624  0.00  0.00    +0.000 C 
BRANCH  14  16
ATOM     16  C   UNL     1       4.240   3.541  18.388  0.00  0.00    +0.000 C 
BRANCH  16  17
ATOM     17  C   UNL     1       4.180   3.771  16.872  0.00  0.00    +0.000 C 
BRANCH  17  18
ATOM     18  C   UNL     1       5.317   4.640  16.334  0.00  0.00    +0.000 C 
BRANCH  18  19
ATOM     19  C   UNL     1       6.051   3.900  15.210  0.00  0.00    +0.000 C 
BRANCH  19  20
ATOM     20  C   UNL     1       5.479   4.243  13.836  0.00  0.00    +0.000 C 
BRANCH  20  21
ATOM     21  C   UNL     1       6.337   3.640  12.722  0.00  0.00    +0.000 C 
BRANCH  21  23
ATOM     22  C   UNL     1       4.257   3.233  11.364  0.00  0.00    +0.000 C 
ATOM     23  C   UNL     1       5.540   2.625  11.905  0.00  0.00    +0.000 C 
ENDBRANCH  21  23
ENDBRANCH  20  21
ENDBRANCH  19  20
ENDBRANCH  18  19
ENDBRANCH  17  18
ENDBRANCH  16  17
ENDBRANCH  14  16
ENDBRANCH   1  14
TORSDOF 10
ENDMDL
MODEL 3
REMARK VINA RESULT:      -6.2      5.014      7.372
REMARK  Name = 
REMARK  12 active torsions:
REMARK  status: ('A' for Active; 'I' for Inactive)
REMARK    1  A    between atoms: C_1  and  C_2
REMARK    2  A    between atoms: C_2  and  C_3
REMARK    3  A    between atoms: C_3  and  C_4
REMARK    4  A    between atoms: C_4  and  C_5
REMARK    5  A    between atoms: C_5  and  C_6
REMARK    6  A    between atoms: C_6  and  C_7
REMARK    7  A    between atoms: C_7  and  C_8
REMARK    8  A    between atoms: C_8  and  N_9
REMARK    9  A    between atoms: N_9  and  C_10
REMARK   10  A    between atoms: N_9  and  N_11
REMARK   11  A    between atoms: N_12  and  C_13
REMARK   12  A    between atoms: C_16  and  C_17
REMARK                            x       y       z     vdW  Elec       q    Type
REMARK                         _______ _______ _______ _____ _____    ______ ____
ROOT
ATOM      1  N   UNL     1       4.115   6.952  17.685  0.00  0.00    +0.000 NA
ATOM      2  N   UNL     1       3.268   6.581  18.529  0.00  0.00    +0.000 NA
ENDROOT
BRANCH   2   3
ATOM      3  C   UNL     1       2.391   7.601  18.924  0.00  0.00    +0.000 A 
ATOM      4  C   UNL     1       2.005   8.540  17.953  0.00  0.00    +0.000 A 
ATOM      5  C   UNL     1       1.161   9.610  18.271  0.00  0.00    +0.000 A 
ATOM      6  C   UNL     1       0.658   9.749  19.569  0.00  0.00    +0.000 A 
ATOM      7  C   UNL     1       1.019   8.795  20.537  0.00  0.00    +0.000 A 
ATOM      8  C   UNL     1       1.867   7.734  20.213  0.00  0.00    +0.000 A 
BRANCH   6   9
ATOM      9  C   UNL     1      -0.251  10.857  19.982  0.00  0.00    +0.000 C 
ATOM     10  N   UNL     1       0.183  11.758  20.913  0.00  0.00    +0.000 N 
ATOM     11  O   UNL     1      -1.375  10.975  19.504  0.00  0.00    +0.000 OA
ATOM     12  H   UNL     1       1.098  11.763  21.343  0.00  0.00    +0.000 HD
ATOM     13  H   UNL     1      -0.450  12.505  21.152  0.00  0.00    +0.000 HD
ENDBRANCH   6   9
ENDBRANCH   2   3
BRANCH   1  14
ATOM     14  N   UNL     1       4.923   5.930  17.277  0.00  0.00    +0.000 N 
ATOM     15  C   UNL     1       6.086   6.184  16.427  0.00  0.00    +0.000 C 
BRANCH  14  16
ATOM     16  C   UNL     1       4.696   4.615  17.881  0.00  0.00    +0.000 C 
BRANCH  16  17
ATOM     17  C   UNL     1       4.152   3.565  16.903  0.00  0.00    +0.000 C 
BRANCH  17  18
ATOM     18  C   UNL     1       2.696   3.178  17.161  0.00  0.00    +0.000 C 
BRANCH  18  19
ATOM     19  C   UNL     1       2.637   1.954  18.082  0.00  0.00    +0.000 C 
BRANCH  19  20
ATOM     20  C   UNL     1       1.633   2.144  19.217  0.00  0.00    +0.000 C 
BRANCH  20  21
ATOM     21  C   UNL     1       1.142   3.591  19.275  0.00  0.00    +0.000 C 
BRANCH  21  23
ATOM     22  C   UNL     1       2.090   3.292  21.588  0.00  0.00    +0.000 C 
ATOM     23  C   UNL     1       1.175   4.125  20.706  0.00  0.00    +0.000 C 
ENDBRANCH  21  23
ENDBRANCH  20  21
ENDBRANCH  19  20
ENDBRANCH  18  19
ENDBRANCH  17  18
ENDBRANCH  16  17
ENDBRANCH  14  16
ENDBRANCH   1  14
TORSDOF 10
ENDMDL
MODEL 4
REMARK VINA RESULT:      -6.1      5.047      7.668
REMARK  Name = 
REMARK  12 active torsions:
REMARK  status: ('A' for Active; 'I' for Inactive)
REMARK    1  A    between atoms: C_1  and  C_2
REMARK    2  A    between atoms: C_2  and  C_3
REMARK    3  A    between atoms: C_3  and  C_4
REMARK    4  A    between atoms: C_4  and  C_5
REMARK    5  A    between atoms: C_5  and  C_6
REMARK    6  A    between atoms: C_6  and  C_7
REMARK    7  A    between atoms: C_7  and  C_8
REMARK    8  A    between atoms: C_8  and  N_9
REMARK    9  A    between atoms: N_9  and  C_10
REMARK   10  A    between atoms: N_9  and  N_11
REMARK   11  A    between atoms: N_12  and  C_13
REMARK   12  A    between atoms: C_16  and  C_17
REMARK                            x       y       z     vdW  Elec       q    Type
REMARK                         _______ _______ _______ _____ _____    ______ ____
ROOT
ATOM      1  N   UNL     1       1.737   4.580  19.711  0.00  0.00    +0.000 NA
ATOM      2  N   UNL     1       2.532   5.454  20.124  0.00  0.00    +0.000 NA
ENDROOT
BRANCH   2   3
ATOM      3  C   UNL     1       2.188   6.753  19.725  0.00  0.00    +0.000 A 
ATOM      4  C   UNL     1       1.546   7.574  20.666  0.00  0.00    +0.000 A 
ATOM      5  C   UNL     1       1.136   8.873  20.339  0.00  0.00    +0.000 A 
ATOM      6  C   UNL     1       1.389   9.391  19.065  0.00  0.00    +0.000 A 
ATOM      7  C   UNL     1       2.057   8.583  18.129  0.00  0.00    +0.000 A 
ATOM      8  C   UNL     1       2.456   7.286  18.461  0.00  0.00    +0.000 A 
BRANCH   6   9
ATOM      9  C   UNL     1       0.990  10.766  18.645  0.00  0.00    +0.000 C 
ATOM     10  N   UNL     1      -0.204  10.944  18.007  0.00  0.00    +0.000 N 
ATOM     11  O   UNL     1       1.711  11.735  18.863  0.00  0.00    +0.000 OA
ATOM     12  H   UNL     1      -0.878  10.216  17.809  0.00  0.00    +0.000 HD
ATOM     13  H   UNL     1      -0.450  11.889  17.758  0.00  0.00    +0.000 HD
ENDBRANCH   6   9
ENDBRANCH   2   3
BRANCH   1  14
ATOM     14  N   UNL     1       2.063   3.331  20.155  0.00  0.00    +0.000 N 
ATOM     15  C   UNL     1       2.211   3.055  21.583  0.00  0.00    +0.000 C 
BRANCH  14  16
ATOM     16  C   UNL     1       2.062   2.248  19.168  0.00  0.00    +0.000 C 
BRANCH  16  17
ATOM     17  C   UNL     1       3.248   2.289  18.196  0.00  0.00    +0.000 C 
BRANCH  17  18
ATOM     18  C   UNL     1       3.143   3.389  17.139  0.00  0.00    +0.000 C 
BRANCH  18  19
ATOM     19  C   UNL     1       4.475   4.140  17.035  0.00  0.00    +0.000 C 
BRANCH  19  20
ATOM     20  C   UNL     1       5.265   4.082  18.340  0.00  0.00    +0.000 C 
BRANCH  20  21
ATOM     21  C   UNL     1       5.757   5.473  18.743  0.00  0.00    +0.000 C 
BRANCH  21  23
ATOM     22  C   UNL     1       7.339   6.955  17.463  0.00  0.00    +0.000 C 
ATOM     23  C   UNL     1       5.938   6.367  17.518  0.00  0.00    +0.000 C 
ENDBRANCH  21  23
ENDBRANCH  20  21
ENDBRANCH  19  20
ENDBRANCH  18  19
ENDBRANCH  17  18
ENDBRANCH  16  17
ENDBRANCH  14  16
ENDBRANCH   1  14
TORSDOF 10
ENDMDL
MODEL 5
REMARK VINA RESULT:      -6.1      5.260      7.681
REMARK  Name = 
REMARK  12 active torsions:
REMARK  status: ('A' for Active; 'I' for Inactive)
REMARK    1  A    between atoms: C_1  and  C_2
REMARK    2  A    between atoms: C_2  and  C_3
REMARK    3  A    between atoms: C_3  and  C_4
REMARK    4  A    between atoms: C_4  and  C_5
REMARK    5  A    between atoms: C_5  and  C_6
REMARK    6  A    between atoms: C_6  and  C_7
REMARK    7  A    between atoms: C_7  and  C_8
REMARK    8  A    between atoms: C_8  and  N_9
REMARK    9  A    between atoms: N_9  and  C_10
REMARK   10  A    between atoms: N_9  and  N_11
REMARK   11  A    between atoms: N_12  and  C_13
REMARK   12  A    between atoms: C_16  and  C_17
REMARK                            x       y       z     vdW  Elec       q    Type
REMARK                         _______ _______ _______ _____ _____    ______ ____
ROOT
ATOM      1  N   UNL     1       3.745   6.007  18.793  0.00  0.00    +0.000 NA
ATOM      2  N   UNL     1       2.977   6.652  18.044  0.00  0.00    +0.000 NA
ENDROOT
BRANCH   2   3
ATOM      3  C   UNL     1       2.296   7.687  18.702  0.00  0.00    +0.000 A 
ATOM      4  C   UNL     1       2.002   7.509  20.063  0.00  0.00    +0.000 A 
ATOM      5  C   UNL     1       1.294   8.477  20.787  0.00  0.00    +0.000 A 
ATOM      6  C   UNL     1       0.889   9.663  20.167  0.00  0.00    +0.000 A 
ATOM      7  C   UNL     1       1.207   9.857  18.811  0.00  0.00    +0.000 A 
ATOM      8  C   UNL     1       1.907   8.884  18.094  0.00  0.00    +0.000 A 
BRANCH   6   9
ATOM      9  C   UNL     1       0.139  10.743  20.872  0.00  0.00    +0.000 C 
ATOM     10  N   UNL     1      -0.739  11.512  20.162  0.00  0.00    +0.000 N 
ATOM     11  O   UNL     1       0.295  10.951  22.071  0.00  0.00    +0.000 OA
ATOM     12  H   UNL     1      -0.957  11.400  19.181  0.00  0.00    +0.000 HD
ATOM     13  H   UNL     1      -1.243  12.217  20.677  0.00  0.00    +0.000 HD
ENDBRANCH   6   9
ENDBRANCH   2   3
BRANCH   1  14
ATOM     14  N   UNL     1       4.434   5.040  18.120  0.00  0.00    +0.000 N 
ATOM     15  C   UNL     1       5.745   4.589  18.586  0.00  0.00    +0.000 C 
BRANCH  14  16
ATOM     16  C   UNL     1       3.729   4.342  17.042  0.00  0.00    +0.000 C 
BRANCH  16  17
ATOM     17  C   UNL     1       2.865   3.168  17.520  0.00  0.00    +0.000 C 
BRANCH  17  18
ATOM     18  C   UNL     1       1.423   3.556  17.847  0.00  0.00    +0.000 C 
BRANCH  18  19
ATOM     19  C   UNL     1       1.004   2.931  19.182  0.00  0.00    +0.000 C 
BRANCH  19  20
ATOM     20  C   UNL     1       0.872   3.979  20.284  0.00  0.00    +0.000 C 
BRANCH  20  21
ATOM     21  C   UNL     1       2.113   3.991  21.178  0.00  0.00    +0.000 C 
BRANCH  21  23
ATOM     22  C   UNL     1       3.960   2.310  20.859  0.00  0.00    +0.000 C 
ATOM     23  C   UNL     1       2.593   2.570  21.470  0.00  0.00    +0.000 C 
ENDBRANCH  21  23
ENDBRANCH  20  21
ENDBRANCH  19  20
ENDBRANCH  18  19
ENDBRANCH  17  18
ENDBRANCH  16  17
ENDBRANCH  14  16
ENDBRANCH   1  14
TORSDOF 10
ENDMDL
MODEL 6
REMARK VINA RESULT:      -6.1      5.122      7.290
REMARK  Name = 
REMARK  12 active torsions:
REMARK  status: ('A' for Active; 'I' for Inactive)
REMARK    1  A    between atoms: C_1  and  C_2
REMARK    2  A    between atoms: C_2  and  C_3
REMARK    3  A    between atoms: C_3  and  C_4
REMARK    4  A    between atoms: C_4  and  C_5
REMARK    5  A    between atoms: C_5  and  C_6
REMARK    6  A    between atoms: C_6  and  C_7
REMARK    7  A    between atoms: C_7  and  C_8
REMARK    8  A    between atoms: C_8  and  N_9
REMARK    9  A    between atoms: N_9  and  C_10
REMARK   10  A    between atoms: N_9  and  N_11
REMARK   11  A    between atoms: N_12  and  C_13
REMARK   12  A    between atoms: C_16  and  C_17
REMARK                            x       y       z     vdW  Elec       q    Type
REMARK                         _______ _______ _______ _____ _____    ______ ____
ROOT
ATOM      1  N   UNL     1       4.079   6.790  18.112  0.00  0.00    +0.000 NA
ATOM      2  N   UNL     1       3.221   6.631  19.010  0.00  0.00    +0.000 NA
ENDROOT
BRANCH   2   3
ATOM      3  C   UNL     1       2.309   7.692  19.103  0.00  0.00    +0.000 A 
ATOM      4  C   UNL     1       1.995   8.386  17.924  0.00  0.00    +0.000 A 
ATOM      5  C   UNL     1       1.121   9.480  17.934  0.00  0.00    +0.000 A 
ATOM      6  C   UNL     1       0.516   9.887  19.127  0.00  0.00    +0.000 A 
ATOM      7  C   UNL     1       0.806   9.177  20.306  0.00  0.00    +0.000 A 
ATOM      8  C   UNL     1       1.684   8.091  20.289  0.00  0.00    +0.000 A 
BRANCH   6   9
ATOM      9  C   UNL     1      -0.430  11.037  19.217  0.00  0.00    +0.000 C 
ATOM     10  N   UNL     1      -0.349  12.035  18.287  0.00  0.00    +0.000 N 
ATOM     11  O   UNL     1      -1.276  11.102  20.103  0.00  0.00    +0.000 OA
ATOM     12  H   UNL     1       0.292  12.059  17.505  0.00  0.00    +0.000 HD
ATOM     13  H   UNL     1      -1.019  12.784  18.367  0.00  0.00    +0.000 HD
ENDBRANCH   6   9
ENDBRANCH   2   3
BRANCH   1  14
ATOM     14  N   UNL     1       4.922   5.722  18.006  0.00  0.00    +0.000 N 
ATOM     15  C   UNL     1       5.647   5.217  19.172  0.00  0.00    +0.000 C 
BRANCH  14  16
ATOM     16  C   UNL     1       4.918   4.989  16.738  0.00  0.00    +0.000 C 
BRANCH  16  17
ATOM     17  C   UNL     1       4.314   3.583  16.832  0.00  0.00    +0.000 C 
BRANCH  17  18
ATOM     18  C   UNL     1       2.836   3.571  17.224  0.00  0.00    +0.000 C 
BRANCH  18  19
ATOM     19  C   UNL     1       2.445   2.183  17.744  0.00  0.00    +0.000 C 
BRANCH  19  20
ATOM     20  C   UNL     1       3.210   1.816  19.014  0.00  0.00    +0.000 C 
BRANCH  20  21
ATOM     21  C   UNL     1       2.975   2.855  20.112  0.00  0.00    +0.000 C 
BRANCH  21  23
ATOM     22  C   UNL     1       0.867   4.195  20.426  0.00  0.00    +0.000 C 
ATOM     23  C   UNL     1       1.523   2.834  20.586  0.00  0.00    +0.000 C 
ENDBRANCH  21  23
ENDBRANCH  20  21
ENDBRANCH  19  20
ENDBRANCH  18  19
ENDBRANCH  17  18
ENDBRANCH  16  17
ENDBRANCH  14  16
ENDBRANCH   1  14
TORSDOF 10
ENDMDL
MODEL 7
REMARK VINA RESULT:      -6.1      4.851      7.058
REMARK  Name = 
REMARK  12 active torsions:
REMARK  status: ('A' for Active; 'I' for Inactive)
REMARK    1  A    between atoms: C_1  and  C_2
REMARK    2  A    between atoms: C_2  and  C_3
REMARK    3  A    between atoms: C_3  and  C_4
REMARK    4  A    between atoms: C_4  and  C_5
REMARK    5  A    between atoms: C_5  and  C_6
REMARK    6  A    between atoms: C_6  and  C_7
REMARK    7  A    between atoms: C_7  and  C_8
REMARK    8  A    between atoms: C_8  and  N_9
REMARK    9  A    between atoms: N_9  and  C_10
REMARK   10  A    between atoms: N_9  and  N_11
REMARK   11  A    between atoms: N_12  and  C_13
REMARK   12  A    between atoms: C_16  and  C_17
REMARK                            x       y       z     vdW  Elec       q    Type
REMARK                         _______ _______ _______ _____ _____    ______ ____
ROOT
ATOM      1  N   UNL     1       3.992   6.196  17.219  0.00  0.00    +0.000 NA
ATOM      2  N   UNL     1       3.919   6.486  18.434  0.00  0.00    +0.000 NA
ENDROOT
BRANCH   2   3
ATOM      3  C   UNL     1       2.888   7.390  18.730  0.00  0.00    +0.000 A 
ATOM      4  C   UNL     1       2.542   8.328  17.745  0.00  0.00    +0.000 A 
ATOM      5  C   UNL     1       1.549   9.289  17.972  0.00  0.00    +0.000 A 
ATOM      6  C   UNL     1       0.857   9.312  19.186  0.00  0.00    +0.000 A 
ATOM      7  C   UNL     1       1.180   8.356  20.165  0.00  0.00    +0.000 A 
ATOM      8  C   UNL     1       2.177   7.405  19.934  0.00  0.00    +0.000 A 
BRANCH   6   9
ATOM      9  C   UNL     1      -0.218  10.299  19.499  0.00  0.00    +0.000 C 
ATOM     10  N   UNL     1      -0.980  10.794  18.479  0.00  0.00    +0.000 N 
ATOM     11  O   UNL     1      -0.430  10.670  20.649  0.00  0.00    +0.000 OA
ATOM     12  H   UNL     1      -0.902  10.529  17.506  0.00  0.00    +0.000 HD
ATOM     13  H   UNL     1      -1.711  11.441  18.731  0.00  0.00    +0.000 HD
ENDBRANCH   6   9
ENDBRANCH   2   3
BRANCH   1  14
ATOM     14  N   UNL     1       4.967   5.276  16.962  0.00  0.00    +0.000 N 
ATOM     15  C   UNL     1       6.365   5.551  17.292  0.00  0.00    +0.000 C 
BRANCH  14  16
ATOM     16  C   UNL     1       4.536   3.944  16.534  0.00  0.00    +0.000 C 
BRANCH  16  17
ATOM     17  C   UNL     1       3.961   3.080  17.664  0.00  0.00    +0.000 C 
BRANCH  17  18
ATOM     18  C   UNL     1       2.515   2.640  17.431  0.00  0.00    +0.000 C 
BRANCH  18  19
ATOM     19  C   UNL     1       1.553   3.654  18.059  0.00  0.00    +0.000 C 
BRANCH  19  20
ATOM     20  C   UNL     1       0.757   3.045  19.210  0.00  0.00    +0.000 C 
BRANCH  20  21
ATOM     21  C   UNL     1       0.947   3.855  20.494  0.00  0.00    +0.000 C 
BRANCH  21  23
ATOM     22  C   UNL     1       2.930   2.555  21.340  0.00  0.00    +0.000 C 
ATOM     23  C   UNL     1       1.498   2.980  21.618  0.00  0.00    +0.000 C 
ENDBRANCH  21  23
ENDBRANCH  20  21
ENDBRANCH  19  20
ENDBRANCH  18  19
ENDBRANCH  17  18
ENDBRANCH  16  17
ENDBRANCH  14  16
ENDBRANCH   1  14
TORSDOF 10
ENDMDL
MODEL 8
REMARK VINA RESULT:      -6.0      5.204      7.743
REMARK  Name = 
REMARK  12 active torsions:
REMARK  status: ('A' for Active; 'I' for Inactive)
REMARK    1  A    between atoms: C_1  and  C_2
REMARK    2  A    between atoms: C_2  and  C_3
REMARK    3  A    between atoms: C_3  and  C_4
REMARK    4  A    between atoms: C_4  and  C_5
REMARK    5  A    between atoms: C_5  and  C_6
REMARK    6  A    between atoms: C_6  and  C_7
REMARK    7  A    between atoms: C_7  and  C_8
REMARK    8  A    between atoms: C_8  and  N_9
REMARK    9  A    between atoms: N_9  and  C_10
REMARK   10  A    between atoms: N_9  and  N_11
REMARK   11  A    between atoms: N_12  and  C_13
REMARK   12  A    between atoms: C_16  and  C_17
REMARK                            x       y       z     vdW  Elec       q    Type
REMARK                         _______ _______ _______ _____ _____    ______ ____
ROOT
ATOM      1  N   UNL     1       3.385   6.234  18.042  0.00  0.00    +0.000 NA
ATOM      2  N   UNL     1       3.189   7.450  17.816  0.00  0.00    +0.000 NA
ENDROOT
BRANCH   2   3
ATOM      3  C   UNL     1       2.329   8.057  18.743  0.00  0.00    +0.000 A 
ATOM      4  C   UNL     1       2.107   7.390  19.958  0.00  0.00    +0.000 A 
ATOM      5  C   UNL     1       1.236   7.909  20.924  0.00  0.00    +0.000 A 
ATOM      6  C   UNL     1       0.587   9.128  20.705  0.00  0.00    +0.000 A 
ATOM      7  C   UNL     1       0.829   9.814  19.502  0.00  0.00    +0.000 A 
ATOM      8  C   UNL     1       1.695   9.286  18.540  0.00  0.00    +0.000 A 
BRANCH   6   9
ATOM      9  C   UNL     1      -0.348   9.748  21.688  0.00  0.00    +0.000 C 
ATOM     10  N   UNL     1      -0.539   9.139  22.896  0.00  0.00    +0.000 N 
ATOM     11  O   UNL     1      -0.945  10.789  21.434  0.00  0.00    +0.000 OA
ATOM     12  H   UNL     1      -0.074   8.297  23.209  0.00  0.00    +0.000 HD
ATOM     13  H   UNL     1      -1.161   9.598  23.543  0.00  0.00    +0.000 HD
ENDBRANCH   6   9
ENDBRANCH   2   3
BRANCH   1  14
ATOM     14  N   UNL     1       4.264   5.678  17.159  0.00  0.00    +0.000 N 
ATOM     15  C   UNL     1       5.060   6.515  16.261  0.00  0.00    +0.000 C 
BRANCH  14  16
ATOM     16  C   UNL     1       4.521   4.242  17.284  0.00  0.00    +0.000 C 
BRANCH  16  17
ATOM     17  C   UNL     1       3.392   3.356  16.740  0.00  0.00    +0.000 C 
BRANCH  17  18
ATOM     18  C   UNL     1       2.649   2.571  17.821  0.00  0.00    +0.000 C 
BRANCH  18  19
ATOM     19  C   UNL     1       1.300   3.236  18.115  0.00  0.00    +0.000 C 
BRANCH  19  20
ATOM     20  C   UNL     1       0.759   2.844  19.487  0.00  0.00    +0.000 C 
BRANCH  20  21
ATOM     21  C   UNL     1       1.056   3.931  20.522  0.00  0.00    +0.000 C 
BRANCH  21  23
ATOM     22  C   UNL     1       3.025   2.573  21.306  0.00  0.00    +0.000 C 
ATOM     23  C   UNL     1       1.792   3.354  21.729  0.00  0.00    +0.000 C 
ENDBRANCH  21  23
ENDBRANCH  20  21
ENDBRANCH  19  20
ENDBRANCH  18  19
ENDBRANCH  17  18
ENDBRANCH  16  17
ENDBRANCH  14  16
ENDBRANCH   1  14
TORSDOF 10
ENDMDL
MODEL 9
REMARK VINA RESULT:      -6.0      4.962      8.065
REMARK  Name = 
REMARK  12 active torsions:
REMARK  status: ('A' for Active; 'I' for Inactive)
REMARK    1  A    between atoms: C_1  and  C_2
REMARK    2  A    between atoms: C_2  and  C_3
REMARK    3  A    between atoms: C_3  and  C_4
REMARK    4  A    between atoms: C_4  and  C_5
REMARK    5  A    between atoms: C_5  and  C_6
REMARK    6  A    between atoms: C_6  and  C_7
REMARK    7  A    between atoms: C_7  and  C_8
REMARK    8  A    between atoms: C_8  and  N_9
REMARK    9  A    between atoms: N_9  and  C_10
REMARK   10  A    between atoms: N_9  and  N_11
REMARK   11  A    between atoms: N_12  and  C_13
REMARK   12  A    between atoms: C_16  and  C_17
REMARK                            x       y       z     vdW  Elec       q    Type
REMARK                         _______ _______ _______ _____ _____    ______ ____
ROOT
ATOM      1  N   UNL     1       3.134   5.519  17.825  0.00  0.00    +0.000 NA
ATOM      2  N   UNL     1       3.146   6.092  18.937  0.00  0.00    +0.000 NA
ENDROOT
BRANCH   2   3
ATOM      3  C   UNL     1       2.482   7.327  18.936  0.00  0.00    +0.000 A 
ATOM      4  C   UNL     1       1.874   7.740  20.132  0.00  0.00    +0.000 A 
ATOM      5  C   UNL     1       1.160   8.942  20.208  0.00  0.00    +0.000 A 
ATOM      6  C   UNL     1       1.063   9.775  19.089  0.00  0.00    +0.000 A 
ATOM      7  C   UNL     1       1.694   9.379  17.897  0.00  0.00    +0.000 A 
ATOM      8  C   UNL     1       2.399   8.175  17.827  0.00  0.00    +0.000 A 
BRANCH   6   9
ATOM      9  C   UNL     1       0.328  11.073  19.094  0.00  0.00    +0.000 C 
ATOM     10  N   UNL     1       0.830  12.122  18.377  0.00  0.00    +0.000 N 
ATOM     11  O   UNL     1      -0.715  11.215  19.725  0.00  0.00    +0.000 OA
ATOM     12  H   UNL     1       1.663  12.096  17.804  0.00  0.00    +0.000 HD
ATOM     13  H   UNL     1       0.294  12.976  18.385  0.00  0.00    +0.000 HD
ENDBRANCH   6   9
ENDBRANCH   2   3
BRANCH   1  14
ATOM     14  N   UNL     1       3.741   4.297  17.864  0.00  0.00    +0.000 N 
ATOM     15  C   UNL     1       3.092   3.155  18.508  0.00  0.00    +0.000 C 
BRANCH  14  16
ATOM     16  C   UNL     1       4.961   4.130  17.071  0.00  0.00    +0.000 C 
BRANCH  16  17
ATOM     17  C   UNL     1       5.276   5.316  16.151  0.00  0.00    +0.000 C 
BRANCH  17  18
ATOM     18  C   UNL     1       5.277   4.961  14.664  0.00  0.00    +0.000 C 
BRANCH  18  19
ATOM     19  C   UNL     1       6.389   3.949  14.370  0.00  0.00    +0.000 C 
BRANCH  19  20
ATOM     20  C   UNL     1       6.629   3.786  12.872  0.00  0.00    +0.000 C 
BRANCH  20  21
ATOM     21  C   UNL     1       5.377   3.255  12.172  0.00  0.00    +0.000 C 
BRANCH  21  23
ATOM     22  C   UNL     1       7.156   1.822  11.114  0.00  0.00    +0.000 C 
ATOM     23  C   UNL     1       5.674   1.957  11.425  0.00  0.00    +0.000 C 
ENDBRANCH  21  23
ENDBRANCH  20  21
ENDBRANCH  19  20
ENDBRANCH  18  19
ENDBRANCH  17  18
ENDBRANCH  16  17
ENDBRANCH  14  16
ENDBRANCH   1  14
TORSDOF 10
ENDMDL
