MODEL 1
REMARK VINA RESULT:      -6.5      0.000      0.000
REMARK  Name = 
REMARK  14 active torsions:
REMARK  status: ('A' for Active; 'I' for Inactive)
REMARK    1  A    between atoms: C_1  and  C_2
REMARK    2  A    between atoms: C_2  and  O_3
REMARK    3  A    between atoms: O_3  and  C_4
REMARK    4  A    between atoms: C_7  and  C_8
REMARK    5  A    between atoms: C_8  and  N_9
REMARK    6  A    between atoms: N_12  and  C_13
REMARK    7  A    between atoms: C_13  and  C_14
REMARK    8  A    between atoms: C_15  and  C_16
REMARK    9  A    between atoms: N_18  and  C_19
REMARK   10  A    between atoms: C_19  and  C_20
REMARK   11  A    between atoms: C_21  and  C_22
REMARK   12  A    between atoms: C_24  and  C_25
REMARK   13  A    between atoms: C_25  and  C_26
REMARK   14  A    between atoms: C_26  and  O_27
REMARK                            x       y       z     vdW  Elec       q    Type
REMARK                         _______ _______ _______ _____ _____    ______ ____
ROOT
ATOM      1  N   UNL     1       1.103  10.122  18.910  0.00  0.00    +0.000 NA
ATOM      2  C   UNL     1      -0.113  10.159  18.066  0.00  0.00    +0.000 C 
ATOM      3  C   UNL     1      -1.506  10.542  18.692  0.00  0.00    +0.000 C 
ATOM      4  N   UNL     1      -1.590  11.205  20.007  0.00  0.00    +0.000 NA
ATOM      5  C   UNL     1      -0.350  11.029  20.783  0.00  0.00    +0.000 C 
ATOM      6  C   UNL     1       0.975  11.179  19.961  0.00  0.00    +0.000 C 
ENDROOT
BRANCH   1   7
ATOM      7  C   UNL     1       1.336   8.803  19.545  0.00  0.00    +0.000 C 
BRANCH   7  11
ATOM      8  C   UNL     1       4.317   5.901  18.232  0.00  0.00    +0.000 A 
ATOM      9  C   UNL     1       4.041   7.005  17.414  0.00  0.00    +0.000 A 
ATOM     10  C   UNL     1       3.046   7.948  17.767  0.00  0.00    +0.000 A 
ATOM     11  C   UNL     1       2.284   7.776  18.928  0.00  0.00    +0.000 A 
ATOM     12  C   UNL     1       2.531   6.619  19.695  0.00  0.00    +0.000 A 
ATOM     13  C   UNL     1       3.520   5.691  19.350  0.00  0.00    +0.000 A 
BRANCH   8  14
ATOM     14  O   UNL     1       5.383   5.108  17.876  0.00  0.00    +0.000 OA
BRANCH  14  16
ATOM     15  C   UNL     1       7.555   6.111  18.300  0.00  0.00    +0.000 C 
ATOM     16  C   UNL     1       6.495   5.134  18.784  0.00  0.00    +0.000 C 
ENDBRANCH  14  16
ENDBRANCH   8  14
ENDBRANCH   7  11
ENDBRANCH   1   7
BRANCH   4  17
ATOM     17  C   UNL     1      -2.092  12.589  20.031  0.00  0.00    +0.000 C 
BRANCH  17  18
ATOM     18  C   UNL     1      -3.284  12.794  20.905  0.00  0.00    +0.000 A 
ATOM     19  C   UNL     1      -4.650  12.690  20.531  0.00  0.00    +0.000 A 
ATOM     20  C   UNL     1      -5.214  12.393  19.192  0.00  0.00    +0.000 C 
ATOM     21  N   UNL     1      -5.475  12.840  21.571  0.00  0.00    +0.000 NA
ATOM     22  N   UNL     1      -4.660  12.983  22.630  0.00  0.00    +0.000 N 
ATOM     23  C   UNL     1      -3.327  12.971  22.294  0.00  0.00    +0.000 A 
ATOM     24  C   UNL     1      -2.235  13.055  23.302  0.00  0.00    +0.000 C 
BRANCH  22  25
ATOM     25  C   UNL     1      -5.258  12.996  23.954  0.00  0.00    +0.000 C 
ATOM     26  C   UNL     1      -6.771  12.866  23.926  0.00  0.00    +0.000 C 
ENDBRANCH  22  25
ENDBRANCH  17  18
ENDBRANCH   4  17
BRANCH   6  27
ATOM     27  C   UNL     1       1.038  12.605  19.374  0.00  0.00    +0.000 C 
BRANCH  27  28
ATOM     28  C   UNL     1       2.347  13.038  18.740  0.00  0.00    +0.000 C 
BRANCH  28  29
ATOM     29  O   UNL     1       2.357  12.559  17.390  0.00  0.00    +0.000 OA
ATOM     30  H   UNL     1       1.597  11.959  17.280  0.00  0.00    +0.000 HD
ENDBRANCH  28  29
ENDBRANCH  27  28
ENDBRANCH   6  27
TORSDOF 10
ENDMDL
MODEL 2
REMARK VINA RESULT:      -6.4      2.022      3.393
REMARK  Name = 
REMARK  14 active torsions:
REMARK  status: ('A' for Active; 'I' for Inactive)
REMARK    1  A    between atoms: C_1  and  C_2
REMARK    2  A    between atoms: C_2  and  O_3
REMARK    3  A    between atoms: O_3  and  C_4
REMARK    4  A    between atoms: C_7  and  C_8
REMARK    5  A    between atoms: C_8  and  N_9
REMARK    6  A    between atoms: N_12  and  C_13
REMARK    7  A    between atoms: C_13  and  C_14
REMARK    8  A    between atoms: C_15  and  C_16
REMARK    9  A    between atoms: N_18  and  C_19
REMARK   10  A    between atoms: C_19  and  C_20
REMARK   11  A    between atoms: C_21  and  C_22
REMARK   12  A    between atoms: C_24  and  C_25
REMARK   13  A    between atoms: C_25  and  C_26
REMARK   14  A    between atoms: C_26  and  O_27
REMARK                            x       y       z     vdW  Elec       q    Type
REMARK                         _______ _______ _______ _____ _____    ______ ____
ROOT
ATOM      1  N   UNL     1       1.251  10.277  19.484  0.00  0.00    +0.000 NA
ATOM      2  C   UNL     1       1.222  11.643  18.914  0.00  0.00    +0.000 C 
ATOM      3  C   UNL     1      -0.145  12.303  18.494  0.00  0.00    +0.000 C 
ATOM      4  N   UNL     1      -1.430  11.754  18.969  0.00  0.00    +0.000 NA
ATOM      5  C   UNL     1      -1.286  10.364  19.434  0.00  0.00    +0.000 C 
ATOM      6  C   UNL     1       0.000  10.076  20.280  0.00  0.00    +0.000 C 
ENDROOT
BRANCH   1   7
ATOM      7  C   UNL     1       1.370   9.215  18.455  0.00  0.00    +0.000 C 
BRANCH   7  11
ATOM      8  C   UNL     1       3.818   5.606  18.555  0.00  0.00    +0.000 A 
ATOM      9  C   UNL     1       2.967   5.877  19.636  0.00  0.00    +0.000 A 
ATOM     10  C   UNL     1       2.191   7.060  19.679  0.00  0.00    +0.000 A 
ATOM     11  C   UNL     1       2.286   8.010  18.655  0.00  0.00    +0.000 A 
ATOM     12  C   UNL     1       3.203   7.747  17.616  0.00  0.00    +0.000 A 
ATOM     13  C   UNL     1       3.964   6.574  17.570  0.00  0.00    +0.000 A 
BRANCH   8  14
ATOM     14  O   UNL     1       4.436   4.377  18.538  0.00  0.00    +0.000 OA
BRANCH  14  16
ATOM     15  C   UNL     1       3.092   2.454  17.907  0.00  0.00    +0.000 C 
ATOM     16  C   UNL     1       3.649   3.290  19.049  0.00  0.00    +0.000 C 
ENDBRANCH  14  16
ENDBRANCH   8  14
ENDBRANCH   7  11
ENDBRANCH   1   7
BRANCH   4  17
ATOM     17  C   UNL     1      -2.218  12.590  19.888  0.00  0.00    +0.000 C 
BRANCH  17  18
ATOM     18  C   UNL     1      -3.686  12.322  19.855  0.00  0.00    +0.000 A 
ATOM     19  C   UNL     1      -4.625  12.560  20.892  0.00  0.00    +0.000 A 
ATOM     20  C   UNL     1      -4.373  13.092  22.253  0.00  0.00    +0.000 C 
ATOM     21  N   UNL     1      -5.880  12.298  20.513  0.00  0.00    +0.000 NA
ATOM     22  N   UNL     1      -5.774  11.947  19.220  0.00  0.00    +0.000 N 
ATOM     23  C   UNL     1      -4.477  11.935  18.764  0.00  0.00    +0.000 A 
ATOM     24  C   UNL     1      -4.115  11.633  17.353  0.00  0.00    +0.000 C 
BRANCH  22  25
ATOM     25  C   UNL     1      -7.000  11.764  18.460  0.00  0.00    +0.000 C 
ATOM     26  C   UNL     1      -7.671  13.075  18.089  0.00  0.00    +0.000 C 
ENDBRANCH  22  25
ENDBRANCH  17  18
ENDBRANCH   4  17
BRANCH   6  27
ATOM     27  C   UNL     1      -0.034  10.950  21.552  0.00  0.00    +0.000 C 
BRANCH  27  28
ATOM     28  C   UNL     1      -0.734  10.378  22.770  0.00  0.00    +0.000 C 
BRANCH  28  29
ATOM     29  O   UNL     1       0.268   9.819  23.627  0.00  0.00    +0.000 OA
ATOM     30  H   UNL     1       1.130   9.917  23.183  0.00  0.00    +0.000 HD
ENDBRANCH  28  29
ENDBRANCH  27  28
ENDBRANCH   6  27
TORSDOF 10
ENDMDL
MODEL 3
REMARK VINA RESULT:      -6.3      3.907      6.602
REMARK  Name = 
REMARK  14 active torsions:
REMARK  status: ('A' for Active; 'I' for Inactive)
REMARK    1  A    between atoms: C_1  and  C_2
REMARK    2  A    between atoms: C_2  and  O_3
REMARK    3  A    between atoms: O_3  and  C_4
REMARK    4  A    between atoms: C_7  and  C_8
REMARK    5  A    between atoms: C_8  and  N_9
REMARK    6  A    between atoms: N_12  and  C_13
REMARK    7  A    between atoms: C_13  and  C_14
REMARK    8  A    between atoms: C_15  and  C_16
REMARK    9  A    between atoms: N_18  and  C_19
REMARK   10  A    between atoms: C_19  and  C_20
REMARK   11  A    between atoms: C_21  and  C_22
REMARK   12  A    between atoms: C_24  and  C_25
REMARK   13  A    between atoms: C_25  and  C_26
REMARK   14  A    between atoms: C_26  and  O_27
REMARK                            x       y       z     vdW  Elec       q    Type
REMARK                         _______ _______ _______ _____ _____    ______ ____
ROOT
ATOM      1  N   UNL     1       3.134   3.578  18.880  0.00  0.00    +0.000 NA
ATOM      2  C   UNL     1       3.918   4.385  19.842  0.00  0.00    +0.000 C 
ATOM      3  C   UNL     1       3.644   5.928  19.997  0.00  0.00    +0.000 C 
ATOM      4  N   UNL     1       2.403   6.535  19.478  0.00  0.00    +0.000 NA
ATOM      5  C   UNL     1       1.760   5.673  18.471  0.00  0.00    +0.000 C 
ATOM      6  C   UNL     1       1.750   4.145  18.813  0.00  0.00    +0.000 C 
ENDROOT
BRANCH   1   7
ATOM      7  C   UNL     1       3.731   3.541  17.523  0.00  0.00    +0.000 C 
BRANCH   7  11
ATOM      8  C   UNL     1       7.016   6.332  16.853  0.00  0.00    +0.000 A 
ATOM      9  C   UNL     1       5.740   6.661  16.375  0.00  0.00    +0.000 A 
ATOM     10  C   UNL     1       4.651   5.768  16.518  0.00  0.00    +0.000 A 
ATOM     11  C   UNL     1       4.834   4.513  17.110  0.00  0.00    +0.000 A 
ATOM     12  C   UNL     1       6.142   4.178  17.517  0.00  0.00    +0.000 A 
ATOM     13  C   UNL     1       7.216   5.064  17.382  0.00  0.00    +0.000 A 
BRANCH   8  14
ATOM     14  O   UNL     1       7.982   7.309  16.784  0.00  0.00    +0.000 OA
BRANCH  14  16
ATOM     15  C   UNL     1       8.030   9.504  17.824  0.00  0.00    +0.000 C 
ATOM     16  C   UNL     1       8.233   8.008  18.012  0.00  0.00    +0.000 C 
ENDBRANCH  14  16
ENDBRANCH   8  14
ENDBRANCH   7  11
ENDBRANCH   1   7
BRANCH   4  17
ATOM     17  C   UNL     1       1.455   7.073  20.467  0.00  0.00    +0.000 C 
BRANCH  17  18
ATOM     18  C   UNL     1       1.175   8.532  20.317  0.00  0.00    +0.000 A 
ATOM     19  C   UNL     1       0.871   9.457  21.349  0.00  0.00    +0.000 A 
ATOM     20  C   UNL     1       0.723   9.195  22.801  0.00  0.00    +0.000 C 
ATOM     21  N   UNL     1       0.765  10.710  20.895  0.00  0.00    +0.000 NA
ATOM     22  N   UNL     1       1.056  10.619  19.586  0.00  0.00    +0.000 N 
ATOM     23  C   UNL     1       1.305   9.331  19.173  0.00  0.00    +0.000 A 
ATOM     24  C   UNL     1       1.704   8.988  17.781  0.00  0.00    +0.000 C 
BRANCH  22  25
ATOM     25  C   UNL     1       1.197  11.853  18.831  0.00  0.00    +0.000 C 
ATOM     26  C   UNL     1      -0.130  12.537  18.555  0.00  0.00    +0.000 C 
ENDBRANCH  22  25
ENDBRANCH  17  18
ENDBRANCH   4  17
BRANCH   6  27
ATOM     27  C   UNL     1       0.963   3.931  20.123  0.00  0.00    +0.000 C 
BRANCH  27  28
ATOM     28  C   UNL     1       1.181   2.624  20.860  0.00  0.00    +0.000 C 
BRANCH  28  29
ATOM     29  O   UNL     1       1.698   2.936  22.159  0.00  0.00    +0.000 OA
ATOM     30  H   UNL     1       1.056   3.519  22.604  0.00  0.00    +0.000 HD
ENDBRANCH  28  29
ENDBRANCH  27  28
ENDBRANCH   6  27
TORSDOF 10
ENDMDL
MODEL 4
REMARK VINA RESULT:      -6.3      3.599      6.575
REMARK  Name = 
REMARK  14 active torsions:
REMARK  status: ('A' for Active; 'I' for Inactive)
REMARK    1  A    between atoms: C_1  and  C_2
REMARK    2  A    between atoms: C_2  and  O_3
REMARK    3  A    between atoms: O_3  and  C_4
REMARK    4  A    between atoms: C_7  and  C_8
REMARK    5  A    between atoms: C_8  and  N_9
REMARK    6  A    between atoms: N_12  and  C_13
REMARK    7  A    between atoms: C_13  and  C_14
REMARK    8  A    between atoms: C_15  and  C_16
REMARK    9  A    between atoms: N_18  and  C_19
REMARK   10  A    between atoms: C_19  and  C_20
REMARK   11  A    between atoms: C_21  and  C_22
REMARK   12  A    between atoms: C_24  and  C_25
REMARK   13  A    between atoms: C_25  and  C_26
REMARK   14  A    between atoms: C_26  and  O_27
REMARK                            x       y       z     vdW  Elec       q    Type
REMARK                         _______ _______ _______ _____ _____    ______ ____
ROOT
ATOM      1  N   UNL     1       3.341   3.236  18.787  0.00  0.00    +0.000 NA
ATOM      2  C   UNL     1       4.053   4.024  19.819  0.00  0.00    +0.000 C 
ATOM      3  C   UNL     1       3.761   5.562  19.990  0.00  0.00    +0.000 C 
ATOM      4  N   UNL     1       2.556   6.175  19.400  0.00  0.00    +0.000 NA
ATOM      5  C   UNL     1       1.988   5.335  18.332  0.00  0.00    +0.000 C 
ATOM      6  C   UNL     1       1.962   3.799  18.638  0.00  0.00    +0.000 C 
ENDROOT
BRANCH   1   7
ATOM      7  C   UNL     1       4.030   3.232  17.474  0.00  0.00    +0.000 C 
BRANCH   7  11
ATOM      8  C   UNL     1       6.931   6.439  16.897  0.00  0.00    +0.000 A 
ATOM      9  C   UNL     1       5.692   6.520  16.245  0.00  0.00    +0.000 A 
ATOM     10  C   UNL     1       4.736   5.482  16.355  0.00  0.00    +0.000 A 
ATOM     11  C   UNL     1       5.023   4.326  17.091  0.00  0.00    +0.000 A 
ATOM     12  C   UNL     1       6.303   4.237  17.677  0.00  0.00    +0.000 A 
ATOM     13  C   UNL     1       7.245   5.267  17.574  0.00  0.00    +0.000 A 
BRANCH   8  14
ATOM     14  O   UNL     1       7.744   7.546  16.837  0.00  0.00    +0.000 OA
BRANCH  14  16
ATOM     15  C   UNL     1       8.436   9.547  18.028  0.00  0.00    +0.000 C 
ATOM     16  C   UNL     1       8.185   8.049  18.108  0.00  0.00    +0.000 C 
ENDBRANCH  14  16
ENDBRANCH   8  14
ENDBRANCH   7  11
ENDBRANCH   1   7
BRANCH   4  17
ATOM     17  C   UNL     1       1.539   6.688  20.333  0.00  0.00    +0.000 C 
BRANCH  17  18
ATOM     18  C   UNL     1       1.250   8.144  20.185  0.00  0.00    +0.000 A 
ATOM     19  C   UNL     1       1.559   8.972  19.074  0.00  0.00    +0.000 A 
ATOM     20  C   UNL     1       2.267   8.602  17.825  0.00  0.00    +0.000 C 
ATOM     21  N   UNL     1       1.083  10.212  19.215  0.00  0.00    +0.000 NA
ATOM     22  N   UNL     1       0.416  10.187  20.381  0.00  0.00    +0.000 N 
ATOM     23  C   UNL     1       0.484   8.970  21.019  0.00  0.00    +0.000 A 
ATOM     24  C   UNL     1      -0.224   8.683  22.296  0.00  0.00    +0.000 C 
BRANCH  22  25
ATOM     25  C   UNL     1      -0.373  11.353  20.741  0.00  0.00    +0.000 C 
ATOM     26  C   UNL     1       0.476  12.553  21.120  0.00  0.00    +0.000 C 
ENDBRANCH  22  25
ENDBRANCH  17  18
ENDBRANCH   4  17
BRANCH   6  27
ATOM     27  C   UNL     1       1.088   3.553  19.886  0.00  0.00    +0.000 C 
BRANCH  27  28
ATOM     28  C   UNL     1       1.522   2.449  20.832  0.00  0.00    +0.000 C 
BRANCH  28  29
ATOM     29  O   UNL     1       1.852   3.055  22.087  0.00  0.00    +0.000 OA
ATOM     30  H   UNL     1       2.448   2.449  22.564  0.00  0.00    +0.000 HD
ENDBRANCH  28  29
ENDBRANCH  27  28
ENDBRANCH   6  27
TORSDOF 10
ENDMDL
MODEL 5
REMARK VINA RESULT:      -6.3      1.287      1.598
REMARK  Name = 
REMARK  14 active torsions:
REMARK  status: ('A' for Active; 'I' for Inactive)
REMARK    1  A    between atoms: C_1  and  C_2
REMARK    2  A    between atoms: C_2  and  O_3
REMARK    3  A    between atoms: O_3  and  C_4
REMARK    4  A    between atoms: C_7  and  C_8
REMARK    5  A    between atoms: C_8  and  N_9
REMARK    6  A    between atoms: N_12  and  C_13
REMARK    7  A    between atoms: C_13  and  C_14
REMARK    8  A    between atoms: C_15  and  C_16
REMARK    9  A    between atoms: N_18  and  C_19
REMARK   10  A    between atoms: C_19  and  C_20
REMARK   11  A    between atoms: C_21  and  C_22
REMARK   12  A    between atoms: C_24  and  C_25
REMARK   13  A    between atoms: C_25  and  C_26
REMARK   14  A    between atoms: C_26  and  O_27
REMARK                            x       y       z     vdW  Elec       q    Type
REMARK                         _______ _______ _______ _____ _____    ______ ____
ROOT
ATOM      1  N   UNL     1       1.253  10.127  19.079  0.00  0.00    +0.000 NA
ATOM      2  C   UNL     1       0.109   9.947  18.157  0.00  0.00    +0.000 C 
ATOM      3  C   UNL     1      -1.353  10.304  18.621  0.00  0.00    +0.000 C 
ATOM      4  N   UNL     1      -1.588  11.137  19.816  0.00  0.00    +0.000 NA
ATOM      5  C   UNL     1      -0.406  11.170  20.693  0.00  0.00    +0.000 C 
ATOM      6  C   UNL     1       0.968  11.308  19.953  0.00  0.00    +0.000 C 
ENDROOT
BRANCH   1   7
ATOM      7  C   UNL     1       1.523   8.933  19.917  0.00  0.00    +0.000 C 
BRANCH   7  11
ATOM      8  C   UNL     1       3.467   5.241  18.641  0.00  0.00    +0.000 A 
ATOM      9  C   UNL     1       3.485   6.348  17.782  0.00  0.00    +0.000 A 
ATOM     10  C   UNL     1       2.825   7.552  18.123  0.00  0.00    +0.000 A 
ATOM     11  C   UNL     1       2.101   7.653  19.317  0.00  0.00    +0.000 A 
ATOM     12  C   UNL     1       2.038   6.502  20.130  0.00  0.00    +0.000 A 
ATOM     13  C   UNL     1       2.697   5.314  19.795  0.00  0.00    +0.000 A 
BRANCH   8  14
ATOM     14  O   UNL     1       4.238   4.159  18.287  0.00  0.00    +0.000 OA
BRANCH  14  16
ATOM     15  C   UNL     1       3.729   1.857  18.875  0.00  0.00    +0.000 C 
ATOM     16  C   UNL     1       4.391   3.157  19.304  0.00  0.00    +0.000 C 
ENDBRANCH  14  16
ENDBRANCH   8  14
ENDBRANCH   7  11
ENDBRANCH   1   7
BRANCH   4  17
ATOM     17  C   UNL     1      -2.184  12.466  19.600  0.00  0.00    +0.000 C 
BRANCH  17  18
ATOM     18  C   UNL     1      -3.620  12.565  19.995  0.00  0.00    +0.000 A 
ATOM     19  C   UNL     1      -4.751  12.236  19.205  0.00  0.00    +0.000 A 
ATOM     20  C   UNL     1      -4.781  11.756  17.802  0.00  0.00    +0.000 C 
ATOM     21  N   UNL     1      -5.897  12.348  19.884  0.00  0.00    +0.000 NA
ATOM     22  N   UNL     1      -5.519  12.691  21.127  0.00  0.00    +0.000 N 
ATOM     23  C   UNL     1      -4.159  12.844  21.259  0.00  0.00    +0.000 A 
ATOM     24  C   UNL     1      -3.500  13.165  22.554  0.00  0.00    +0.000 C 
BRANCH  22  25
ATOM     25  C   UNL     1      -6.536  12.722  22.165  0.00  0.00    +0.000 C 
ATOM     26  C   UNL     1      -7.192  14.083  22.315  0.00  0.00    +0.000 C 
ENDBRANCH  22  25
ENDBRANCH  17  18
ENDBRANCH   4  17
BRANCH   6  27
ATOM     27  C   UNL     1       0.981  12.637  19.168  0.00  0.00    +0.000 C 
BRANCH  27  28
ATOM     28  C   UNL     1       2.310  13.093  18.596  0.00  0.00    +0.000 C 
BRANCH  28  29
ATOM     29  O   UNL     1       2.505  12.413  17.351  0.00  0.00    +0.000 OA
ATOM     30  H   UNL     1       2.921  13.039  16.730  0.00  0.00    +0.000 HD
ENDBRANCH  28  29
ENDBRANCH  27  28
ENDBRANCH   6  27
TORSDOF 10
ENDMDL
MODEL 6
REMARK VINA RESULT:      -6.3      3.465      6.522
REMARK  Name = 
REMARK  14 active torsions:
REMARK  status: ('A' for Active; 'I' for Inactive)
REMARK    1  A    between atoms: C_1  and  C_2
REMARK    2  A    between atoms: C_2  and  O_3
REMARK    3  A    between atoms: O_3  and  C_4
REMARK    4  A    between atoms: C_7  and  C_8
REMARK    5  A    between atoms: C_8  and  N_9
REMARK    6  A    between atoms: N_12  and  C_13
REMARK    7  A    between atoms: C_13  and  C_14
REMARK    8  A    between atoms: C_15  and  C_16
REMARK    9  A    between atoms: N_18  and  C_19
REMARK   10  A    between atoms: C_19  and  C_20
REMARK   11  A    between atoms: C_21  and  C_22
REMARK   12  A    between atoms: C_24  and  C_25
REMARK   13  A    between atoms: C_25  and  C_26
REMARK   14  A    between atoms: C_26  and  O_27
REMARK                            x       y       z     vdW  Elec       q    Type
REMARK                         _______ _______ _______ _____ _____    ______ ____
ROOT
ATOM      1  N   UNL     1       3.506   3.602  18.270  0.00  0.00    +0.000 NA
ATOM      2  C   UNL     1       3.962   4.106  19.585  0.00  0.00    +0.000 C 
ATOM      3  C   UNL     1       3.682   5.597  20.008  0.00  0.00    +0.000 C 
ATOM      4  N   UNL     1       2.680   6.412  19.295  0.00  0.00    +0.000 NA
ATOM      5  C   UNL     1       2.371   5.853  17.968  0.00  0.00    +0.000 C 
ATOM      6  C   UNL     1       2.225   4.294  17.923  0.00  0.00    +0.000 C 
ENDROOT
BRANCH   1   7
ATOM      7  C   UNL     1       4.500   3.806  17.187  0.00  0.00    +0.000 C 
BRANCH   7  11
ATOM      8  C   UNL     1       7.578   6.784  18.019  0.00  0.00    +0.000 A 
ATOM      9  C   UNL     1       6.496   7.138  17.200  0.00  0.00    +0.000 A 
ATOM     10  C   UNL     1       5.498   6.196  16.856  0.00  0.00    +0.000 A 
ATOM     11  C   UNL     1       5.590   4.870  17.295  0.00  0.00    +0.000 A 
ATOM     12  C   UNL     1       6.725   4.521  18.056  0.00  0.00    +0.000 A 
ATOM     13  C   UNL     1       7.707   5.456  18.404  0.00  0.00    +0.000 A 
BRANCH   8  14
ATOM     14  O   UNL     1       8.429   7.793  18.404  0.00  0.00    +0.000 OA
BRANCH  14  16
ATOM     15  C   UNL     1       8.968  10.158  18.544  0.00  0.00    +0.000 C 
ATOM     16  C   UNL     1       8.121   9.090  17.870  0.00  0.00    +0.000 C 
ENDBRANCH  14  16
ENDBRANCH   8  14
ENDBRANCH   7  11
ENDBRANCH   1   7
BRANCH   4  17
ATOM     17  C   UNL     1       1.479   6.808  20.048  0.00  0.00    +0.000 C 
BRANCH  17  18
ATOM     18  C   UNL     1       1.221   8.278  20.063  0.00  0.00    +0.000 A 
ATOM     19  C   UNL     1       1.495   9.207  19.026  0.00  0.00    +0.000 A 
ATOM     20  C   UNL     1       2.129   8.952  17.710  0.00  0.00    +0.000 C 
ATOM     21  N   UNL     1       1.060  10.437  19.317  0.00  0.00    +0.000 NA
ATOM     22  N   UNL     1       0.452  10.307  20.508  0.00  0.00    +0.000 N 
ATOM     23  C   UNL     1       0.520   9.030  21.016  0.00  0.00    +0.000 A 
ATOM     24  C   UNL     1      -0.129   8.629  22.293  0.00  0.00    +0.000 C 
BRANCH  22  25
ATOM     25  C   UNL     1      -0.287  11.446  21.025  0.00  0.00    +0.000 C 
ATOM     26  C   UNL     1      -1.203  12.080  19.993  0.00  0.00    +0.000 C 
ENDBRANCH  22  25
ENDBRANCH  17  18
ENDBRANCH   4  17
BRANCH   6  27
ATOM     27  C   UNL     1       1.061   3.874  18.845  0.00  0.00    +0.000 C 
BRANCH  27  28
ATOM     28  C   UNL     1       1.128   2.490  19.462  0.00  0.00    +0.000 C 
BRANCH  28  29
ATOM     29  O   UNL     1       1.422   1.559  18.414  0.00  0.00    +0.000 OA
ATOM     30  H   UNL     1       1.138   0.675  18.711  0.00  0.00    +0.000 HD
ENDBRANCH  28  29
ENDBRANCH  27  28
ENDBRANCH   6  27
TORSDOF 10
ENDMDL
MODEL 7
REMARK VINA RESULT:      -6.2      1.778      2.910
REMARK  Name = 
REMARK  14 active torsions:
REMARK  status: ('A' for Active; 'I' for Inactive)
REMARK    1  A    between atoms: C_1  and  C_2
REMARK    2  A    between atoms: C_2  and  O_3
REMARK    3  A    between atoms: O_3  and  C_4
REMARK    4  A    between atoms: C_7  and  C_8
REMARK    5  A    between atoms: C_8  and  N_9
REMARK    6  A    between atoms: N_12  and  C_13
REMARK    7  A    between atoms: C_13  and  C_14
REMARK    8  A    between atoms: C_15  and  C_16
REMARK    9  A    between atoms: N_18  and  C_19
REMARK   10  A    between atoms: C_19  and  C_20
REMARK   11  A    between atoms: C_21  and  C_22
REMARK   12  A    between atoms: C_24  and  C_25
REMARK   13  A    between atoms: C_25  and  C_26
REMARK   14  A    between atoms: C_26  and  O_27
REMARK                            x       y       z     vdW  Elec       q    Type
REMARK                         _______ _______ _______ _____ _____    ______ ____
ROOT
ATOM      1  N   UNL     1       0.939  10.453  19.930  0.00  0.00    +0.000 NA
ATOM      2  C   UNL     1       1.160  11.839  19.458  0.00  0.00    +0.000 C 
ATOM      3  C   UNL     1      -0.054  12.724  18.987  0.00  0.00    +0.000 C 
ATOM      4  N   UNL     1      -1.441  12.351  19.324  0.00  0.00    +0.000 NA
ATOM      5  C   UNL     1      -1.544  10.930  19.698  0.00  0.00    +0.000 C 
ATOM      6  C   UNL     1      -0.390  10.399  20.615  0.00  0.00    +0.000 C 
ENDROOT
BRANCH   1   7
ATOM      7  C   UNL     1       0.986   9.449  18.839  0.00  0.00    +0.000 C 
BRANCH   7  11
ATOM      8  C   UNL     1       3.722   6.083  18.373  0.00  0.00    +0.000 A 
ATOM      9  C   UNL     1       2.940   6.164  19.533  0.00  0.00    +0.000 A 
ATOM     10  C   UNL     1       2.075   7.262  19.760  0.00  0.00    +0.000 A 
ATOM     11  C   UNL     1       2.011   8.317  18.842  0.00  0.00    +0.000 A 
ATOM     12  C   UNL     1       2.861   8.246  17.719  0.00  0.00    +0.000 A 
ATOM     13  C   UNL     1       3.710   7.156  17.492  0.00  0.00    +0.000 A 
BRANCH   8  14
ATOM     14  O   UNL     1       4.435   4.923  18.177  0.00  0.00    +0.000 OA
BRANCH  14  16
ATOM     15  C   UNL     1       6.636   5.469  19.049  0.00  0.00    +0.000 C 
ATOM     16  C   UNL     1       5.389   4.612  19.204  0.00  0.00    +0.000 C 
ENDBRANCH  14  16
ENDBRANCH   8  14
ENDBRANCH   7  11
ENDBRANCH   1   7
BRANCH   4  17
ATOM     17  C   UNL     1      -2.172  13.242  20.240  0.00  0.00    +0.000 C 
BRANCH  17  18
ATOM     18  C   UNL     1      -3.514  12.732  20.650  0.00  0.00    +0.000 A 
ATOM     19  C   UNL     1      -4.057  12.704  21.961  0.00  0.00    +0.000 A 
ATOM     20  C   UNL     1      -3.416  13.134  23.228  0.00  0.00    +0.000 C 
ATOM     21  N   UNL     1      -5.321  12.271  21.980  0.00  0.00    +0.000 NA
ATOM     22  N   UNL     1      -5.628  12.072  20.687  0.00  0.00    +0.000 N 
ATOM     23  C   UNL     1      -4.579  12.326  19.834  0.00  0.00    +0.000 A 
ATOM     24  C   UNL     1      -4.695  12.232  18.354  0.00  0.00    +0.000 C 
BRANCH  22  25
ATOM     25  C   UNL     1      -7.007  11.760  20.353  0.00  0.00    +0.000 C 
ATOM     26  C   UNL     1      -7.917  11.709  21.568  0.00  0.00    +0.000 C 
ENDBRANCH  22  25
ENDBRANCH  17  18
ENDBRANCH   4  17
BRANCH   6  27
ATOM     27  C   UNL     1      -0.402  11.191  21.940  0.00  0.00    +0.000 C 
BRANCH  27  28
ATOM     28  C   UNL     1      -0.679  10.412  23.212  0.00  0.00    +0.000 C 
BRANCH  28  29
ATOM     29  O   UNL     1      -0.825   9.032  22.856  0.00  0.00    +0.000 OA
ATOM     30  H   UNL     1      -0.157   8.827  22.177  0.00  0.00    +0.000 HD
ENDBRANCH  28  29
ENDBRANCH  27  28
ENDBRANCH   6  27
TORSDOF 10
ENDMDL
MODEL 8
REMARK VINA RESULT:      -6.2      4.183      6.719
REMARK  Name = 
REMARK  14 active torsions:
REMARK  status: ('A' for Active; 'I' for Inactive)
REMARK    1  A    between atoms: C_1  and  C_2
REMARK    2  A    between atoms: C_2  and  O_3
REMARK    3  A    between atoms: O_3  and  C_4
REMARK    4  A    between atoms: C_7  and  C_8
REMARK    5  A    between atoms: C_8  and  N_9
REMARK    6  A    between atoms: N_12  and  C_13
REMARK    7  A    between atoms: C_13  and  C_14
REMARK    8  A    between atoms: C_15  and  C_16
REMARK    9  A    between atoms: N_18  and  C_19
REMARK   10  A    between atoms: C_19  and  C_20
REMARK   11  A    between atoms: C_21  and  C_22
REMARK   12  A    between atoms: C_24  and  C_25
REMARK   13  A    between atoms: C_25  and  C_26
REMARK   14  A    between atoms: C_26  and  O_27
REMARK                            x       y       z     vdW  Elec       q    Type
REMARK                         _______ _______ _______ _____ _____    ______ ____
ROOT
ATOM      1  N   UNL     1       3.533   3.818  18.438  0.00  0.00    +0.000 NA
ATOM      2  C   UNL     1       3.991   4.412  19.714  0.00  0.00    +0.000 C 
ATOM      3  C   UNL     1       3.666   5.915  20.056  0.00  0.00    +0.000 C 
ATOM      4  N   UNL     1       2.625   6.653  19.315  0.00  0.00    +0.000 NA
ATOM      5  C   UNL     1       2.316   6.008  18.028  0.00  0.00    +0.000 C 
ATOM      6  C   UNL     1       2.224   4.445  18.074  0.00  0.00    +0.000 C 
ENDROOT
BRANCH   1   7
ATOM      7  C   UNL     1       4.503   3.993  17.329  0.00  0.00    +0.000 C 
BRANCH   7  11
ATOM      8  C   UNL     1       7.679   6.884  18.093  0.00  0.00    +0.000 A 
ATOM      9  C   UNL     1       6.644   7.232  17.214  0.00  0.00    +0.000 A 
ATOM     10  C   UNL     1       5.617   6.313  16.890  0.00  0.00    +0.000 A 
ATOM     11  C   UNL     1       5.635   5.014  17.413  0.00  0.00    +0.000 A 
ATOM     12  C   UNL     1       6.726   4.666  18.236  0.00  0.00    +0.000 A 
ATOM     13  C   UNL     1       7.736   5.578  18.563  0.00  0.00    +0.000 A 
BRANCH   8  14
ATOM     14  O   UNL     1       8.560   7.878  18.448  0.00  0.00    +0.000 OA
BRANCH  14  16
ATOM     15  C   UNL     1       9.035  10.245  18.722  0.00  0.00    +0.000 C 
ATOM     16  C   UNL     1       8.213   9.194  17.991  0.00  0.00    +0.000 C 
ENDBRANCH  14  16
ENDBRANCH   8  14
ENDBRANCH   7  11
ENDBRANCH   1   7
BRANCH   4  17
ATOM     17  C   UNL     1       1.422   7.051  20.065  0.00  0.00    +0.000 C 
BRANCH  17  18
ATOM     18  C   UNL     1       1.168   8.521  20.080  0.00  0.00    +0.000 A 
ATOM     19  C   UNL     1       0.808   9.318  21.198  0.00  0.00    +0.000 A 
ATOM     20  C   UNL     1       0.564   8.881  22.594  0.00  0.00    +0.000 C 
ATOM     21  N   UNL     1       0.744  10.618  20.898  0.00  0.00    +0.000 NA
ATOM     22  N   UNL     1       1.117  10.685  19.609  0.00  0.00    +0.000 N 
ATOM     23  C   UNL     1       1.379   9.454  19.055  0.00  0.00    +0.000 A 
ATOM     24  C   UNL     1       1.863   9.278  17.659  0.00  0.00    +0.000 C 
BRANCH  22  25
ATOM     25  C   UNL     1       1.319  12.000  19.024  0.00  0.00    +0.000 C 
ATOM     26  C   UNL     1       1.952  12.989  19.987  0.00  0.00    +0.000 C 
ENDBRANCH  22  25
ENDBRANCH  17  18
ENDBRANCH   4  17
BRANCH   6  27
ATOM     27  C   UNL     1       1.089   4.040  19.038  0.00  0.00    +0.000 C 
BRANCH  27  28
ATOM     28  C   UNL     1       1.088   2.612  19.549  0.00  0.00    +0.000 C 
BRANCH  28  29
ATOM     29  O   UNL     1       1.490   1.761  18.469  0.00  0.00    +0.000 OA
ATOM     30  H   UNL     1       1.823   0.929  18.852  0.00  0.00    +0.000 HD
ENDBRANCH  28  29
ENDBRANCH  27  28
ENDBRANCH   6  27
TORSDOF 10
ENDMDL
MODEL 9
REMARK VINA RESULT:      -6.2      2.047      2.872
REMARK  Name = 
REMARK  14 active torsions:
REMARK  status: ('A' for Active; 'I' for Inactive)
REMARK    1  A    between atoms: C_1  and  C_2
REMARK    2  A    between atoms: C_2  and  O_3
REMARK    3  A    between atoms: O_3  and  C_4
REMARK    4  A    between atoms: C_7  and  C_8
REMARK    5  A    between atoms: C_8  and  N_9
REMARK    6  A    between atoms: N_12  and  C_13
REMARK    7  A    between atoms: C_13  and  C_14
REMARK    8  A    between atoms: C_15  and  C_16
REMARK    9  A    between atoms: N_18  and  C_19
REMARK   10  A    between atoms: C_19  and  C_20
REMARK   11  A    between atoms: C_21  and  C_22
REMARK   12  A    between atoms: C_24  and  C_25
REMARK   13  A    between atoms: C_25  and  C_26
REMARK   14  A    between atoms: C_26  and  O_27
REMARK                            x       y       z     vdW  Elec       q    Type
REMARK                         _______ _______ _______ _____ _____    ______ ____
ROOT
ATOM      1  N   UNL     1       1.336  10.460  19.544  0.00  0.00    +0.000 NA
ATOM      2  C   UNL     1       1.285  11.833  18.993  0.00  0.00    +0.000 C 
ATOM      3  C   UNL     1      -0.094  12.484  18.603  0.00  0.00    +0.000 C 
ATOM      4  N   UNL     1      -1.366  11.916  19.088  0.00  0.00    +0.000 NA
ATOM      5  C   UNL     1      -1.201  10.522  19.532  0.00  0.00    +0.000 C 
ATOM      6  C   UNL     1       0.099  10.236  20.357  0.00  0.00    +0.000 C 
ENDROOT
BRANCH   1   7
ATOM      7  C   UNL     1       1.451   9.413  18.500  0.00  0.00    +0.000 C 
BRANCH   7  11
ATOM      8  C   UNL     1       3.578   5.609  18.702  0.00  0.00    +0.000 A 
ATOM      9  C   UNL     1       2.790   6.004  19.792  0.00  0.00    +0.000 A 
ATOM     10  C   UNL     1       2.122   7.251  19.801  0.00  0.00    +0.000 A 
ATOM     11  C   UNL     1       2.265   8.142  18.730  0.00  0.00    +0.000 A 
ATOM     12  C   UNL     1       3.121   7.752  17.679  0.00  0.00    +0.000 A 
ATOM     13  C   UNL     1       3.775   6.515  17.668  0.00  0.00    +0.000 A 
BRANCH   8  14
ATOM     14  O   UNL     1       4.086   4.332  18.725  0.00  0.00    +0.000 OA
BRANCH  14  16
ATOM     15  C   UNL     1       2.371   2.986  17.651  0.00  0.00    +0.000 C 
ATOM     16  C   UNL     1       3.787   3.534  17.569  0.00  0.00    +0.000 C 
ENDBRANCH  14  16
ENDBRANCH   8  14
ENDBRANCH   7  11
ENDBRANCH   1   7
BRANCH   4  17
ATOM     17  C   UNL     1      -2.149  12.733  20.030  0.00  0.00    +0.000 C 
BRANCH  17  18
ATOM     18  C   UNL     1      -3.622  12.496  19.968  0.00  0.00    +0.000 A 
ATOM     19  C   UNL     1      -4.361  11.972  18.876  0.00  0.00    +0.000 A 
ATOM     20  C   UNL     1      -3.861  11.571  17.539  0.00  0.00    +0.000 C 
ATOM     21  N   UNL     1      -5.652  11.796  19.173  0.00  0.00    +0.000 NA
ATOM     22  N   UNL     1      -5.751  12.146  20.466  0.00  0.00    +0.000 N 
ATOM     23  C   UNL     1      -4.563  12.585  21.003  0.00  0.00    +0.000 A 
ATOM     24  C   UNL     1      -4.412  12.972  22.432  0.00  0.00    +0.000 C 
BRANCH  22  25
ATOM     25  C   UNL     1      -7.013  11.901  21.145  0.00  0.00    +0.000 C 
ATOM     26  C   UNL     1      -7.913  13.123  21.189  0.00  0.00    +0.000 C 
ENDBRANCH  22  25
ENDBRANCH  17  18
ENDBRANCH   4  17
BRANCH   6  27
ATOM     27  C   UNL     1       0.075  11.093  21.640  0.00  0.00    +0.000 C 
BRANCH  27  28
ATOM     28  C   UNL     1      -0.683  10.538  22.831  0.00  0.00    +0.000 C 
BRANCH  28  29
ATOM     29  O   UNL     1       0.257   9.850  23.665  0.00  0.00    +0.000 OA
ATOM     30  H   UNL     1       0.452   8.990  23.250  0.00  0.00    +0.000 HD
ENDBRANCH  28  29
ENDBRANCH  27  28
ENDBRANCH   6  27
TORSDOF 10
ENDMDL
