MODEL 1
REMARK VINA RESULT:      -8.0      0.000      0.000
REMARK  Name = 
REMARK  8 active torsions:
REMARK  status: ('A' for Active; 'I' for Inactive)
REMARK    1  A    between atoms: C_1  and  C_2
REMARK    2  A    between atoms: C_3  and  C_4
REMARK    3  A    between atoms: C_4  and  C_5
REMARK    4  A    between atoms: C_5  and  C_6
REMARK    5  A    between atoms: C_6  and  O_8
REMARK    6  A    between atoms: C_14  and  O_15
REMARK    7  A    between atoms: O_15  and  C_16
REMARK    8  A    between atoms: C_16  and  C_17
REMARK                            x       y       z     vdW  Elec       q    Type
REMARK                         _______ _______ _______ _____ _____    ______ ____
ROOT
ATOM      1  C   UNL     1       2.704   4.922  20.780  0.00  0.00    +0.000 C 
ATOM      2  C   UNL     1       2.977   5.795  19.577  0.00  0.00    +0.000 A 
ATOM      3  C   UNL     1       3.785   5.458  18.546  0.00  0.00    +0.000 A 
ATOM      4  C   UNL     1       3.969   6.380  17.383  0.00  0.00    +0.000 A 
ATOM      5  O   UNL     1       4.672   6.068  16.427  0.00  0.00    +0.000 OA
ATOM      6  O   UNL     1       3.333   7.608  17.421  0.00  0.00    +0.000 OA
ATOM      7  C   UNL     1       2.496   7.967  18.488  0.00  0.00    +0.000 A 
ATOM      8  C   UNL     1       1.866   9.212  18.403  0.00  0.00    +0.000 A 
ATOM      9  C   UNL     1       0.989   9.610  19.408  0.00  0.00    +0.000 A 
ATOM     10  C   UNL     1       0.805   8.781  20.516  0.00  0.00    +0.000 A 
ATOM     11  C   UNL     1       1.441   7.539  20.581  0.00  0.00    +0.000 A 
ATOM     12  C   UNL     1       2.296   7.104  19.560  0.00  0.00    +0.000 A 
ENDROOT
BRANCH   3  13
ATOM     13  C   UNL     1       4.534   4.140  18.421  0.00  0.00    +0.000 C 
BRANCH  13  14
ATOM     14  C   UNL     1       3.840   3.040  17.609  0.00  0.00    +0.000 C 
BRANCH  14  15
ATOM     15  C   UNL     1       3.333   1.904  18.459  0.00  0.00    +0.000 C 
ATOM     16  O   UNL     1       2.222   1.856  18.965  0.00  0.00    +0.000 OA
BRANCH  15  17
ATOM     17  O   UNL     1       4.220   0.891  18.568  0.00  0.00    +0.000 OA
ATOM     18  H   UNL     1       5.151   1.158  18.440  0.00  0.00    +0.000 HD
ENDBRANCH  15  17
ENDBRANCH  14  15
ENDBRANCH  13  14
ENDBRANCH   3  13
BRANCH   9  19
ATOM     19  O   UNL     1       0.356  10.809  19.222  0.00  0.00    +0.000 OA
BRANCH  19  20
ATOM     20  C   UNL     1      -1.026  10.823  19.596  0.00  0.00    +0.000 C 
BRANCH  20  21
ATOM     21  C   UNL     1      -1.918  10.717  18.383  0.00  0.00    +0.000 A 
ATOM     22  C   UNL     1      -1.562   9.949  17.268  0.00  0.00    +0.000 A 
ATOM     23  C   UNL     1      -2.400   9.884  16.154  0.00  0.00    +0.000 A 
ATOM     24  C   UNL     1      -3.599  10.597  16.137  0.00  0.00    +0.000 A 
ATOM     25  C   UNL     1      -3.950  11.381  17.232  0.00  0.00    +0.000 A 
ATOM     26 CL   UNL     1      -5.421  12.275  17.213  0.00  0.00    +0.000 Cl
ATOM     27  C   UNL     1      -3.118  11.451  18.347  0.00  0.00    +0.000 A 
ENDBRANCH  20  21
ENDBRANCH  19  20
ENDBRANCH   9  19
TORSDOF 7
ENDMDL
MODEL 2
REMARK VINA RESULT:      -7.9      3.993      9.132
REMARK  Name = 
REMARK  8 active torsions:
REMARK  status: ('A' for Active; 'I' for Inactive)
REMARK    1  A    between atoms: C_1  and  C_2
REMARK    2  A    between atoms: C_3  and  C_4
REMARK    3  A    between atoms: C_4  and  C_5
REMARK    4  A    between atoms: C_5  and  C_6
REMARK    5  A    between atoms: C_6  and  O_8
REMARK    6  A    between atoms: C_14  and  O_15
REMARK    7  A    between atoms: O_15  and  C_16
REMARK    8  A    between atoms: C_16  and  C_17
REMARK                            x       y       z     vdW  Elec       q    Type
REMARK                         _______ _______ _______ _____ _____    ______ ____
ROOT
ATOM      1  C   UNL     1      -0.071  11.905  19.284  0.00  0.00    +0.000 C 
ATOM      2  C   UNL     1       0.306  10.822  20.268  0.00  0.00    +0.000 A 
ATOM      3  C   UNL     1       0.049  10.861  21.595  0.00  0.00    +0.000 A 
ATOM      4  C   UNL     1       0.436   9.724  22.486  0.00  0.00    +0.000 A 
ATOM      5  O   UNL     1       0.175   9.735  23.685  0.00  0.00    +0.000 OA
ATOM      6  O   UNL     1       1.115   8.659  21.920  0.00  0.00    +0.000 OA
ATOM      7  C   UNL     1       1.389   8.612  20.545  0.00  0.00    +0.000 A 
ATOM      8  C   UNL     1       2.039   7.468  20.072  0.00  0.00    +0.000 A 
ATOM      9  C   UNL     1       2.303   7.340  18.711  0.00  0.00    +0.000 A 
ATOM     10  C   UNL     1       1.968   8.388  17.853  0.00  0.00    +0.000 A 
ATOM     11  C   UNL     1       1.316   9.522  18.345  0.00  0.00    +0.000 A 
ATOM     12  C   UNL     1       1.007   9.652  19.705  0.00  0.00    +0.000 A 
ENDROOT
BRANCH   3  13
ATOM     13  C   UNL     1      -0.679  11.990  22.309  0.00  0.00    +0.000 C 
BRANCH  13  14
ATOM     14  C   UNL     1      -2.211  11.912  22.318  0.00  0.00    +0.000 C 
BRANCH  14  15
ATOM     15  C   UNL     1      -2.836  12.642  23.479  0.00  0.00    +0.000 C 
ATOM     16  O   UNL     1      -2.494  13.747  23.871  0.00  0.00    +0.000 OA
BRANCH  15  17
ATOM     17  O   UNL     1      -3.874  11.970  24.025  0.00  0.00    +0.000 OA
ATOM     18  H   UNL     1      -3.851  11.005  23.875  0.00  0.00    +0.000 HD
ENDBRANCH  15  17
ENDBRANCH  14  15
ENDBRANCH  13  14
ENDBRANCH   3  13
BRANCH   9  19
ATOM     19  O   UNL     1       2.877   6.163  18.311  0.00  0.00    +0.000 OA
BRANCH  19  20
ATOM     20  C   UNL     1       3.920   5.683  19.165  0.00  0.00    +0.000 C 
BRANCH  20  21
ATOM     21  C   UNL     1       5.134   5.277  18.364  0.00  0.00    +0.000 A 
ATOM     22  C   UNL     1       6.425   5.326  18.904  0.00  0.00    +0.000 A 
ATOM     23  C   UNL     1       7.530   4.961  18.133  0.00  0.00    +0.000 A 
ATOM     24  C   UNL     1       7.357   4.554  16.809  0.00  0.00    +0.000 A 
ATOM     25  C   UNL     1       6.079   4.523  16.259  0.00  0.00    +0.000 A 
ATOM     26 CL   UNL     1       5.859   4.036  14.623  0.00  0.00    +0.000 Cl
ATOM     27  C   UNL     1       4.972   4.887  17.022  0.00  0.00    +0.000 A 
ENDBRANCH  20  21
ENDBRANCH  19  20
ENDBRANCH   9  19
TORSDOF 7
ENDMDL
MODEL 3
REMARK VINA RESULT:      -7.9      5.795      8.260
REMARK  Name = 
REMARK  8 active torsions:
REMARK  status: ('A' for Active; 'I' for Inactive)
REMARK    1  A    between atoms: C_1  and  C_2
REMARK    2  A    between atoms: C_3  and  C_4
REMARK    3  A    between atoms: C_4  and  C_5
REMARK    4  A    between atoms: C_5  and  C_6
REMARK    5  A    between atoms: C_6  and  O_8
REMARK    6  A    between atoms: C_14  and  O_15
REMARK    7  A    between atoms: O_15  and  C_16
REMARK    8  A    between atoms: C_16  and  C_17
REMARK                            x       y       z     vdW  Elec       q    Type
REMARK                         _______ _______ _______ _____ _____    ______ ____
ROOT
ATOM      1  C   UNL     1       2.097   5.096  17.484  0.00  0.00    +0.000 C 
ATOM      2  C   UNL     1       3.335   4.602  18.196  0.00  0.00    +0.000 A 
ATOM      3  C   UNL     1       3.420   3.438  18.880  0.00  0.00    +0.000 A 
ATOM      4  C   UNL     1       4.701   3.020  19.529  0.00  0.00    +0.000 A 
ATOM      5  O   UNL     1       4.797   1.950  20.121  0.00  0.00    +0.000 OA
ATOM      6  O   UNL     1       5.778   3.887  19.455  0.00  0.00    +0.000 OA
ATOM      7  C   UNL     1       5.698   5.098  18.752  0.00  0.00    +0.000 A 
ATOM      8  C   UNL     1       6.859   5.875  18.702  0.00  0.00    +0.000 A 
ATOM      9  C   UNL     1       6.858   7.068  17.984  0.00  0.00    +0.000 A 
ATOM     10  C   UNL     1       5.676   7.495  17.378  0.00  0.00    +0.000 A 
ATOM     11  C   UNL     1       4.527   6.702  17.436  0.00  0.00    +0.000 A 
ATOM     12  C   UNL     1       4.519   5.480  18.121  0.00  0.00    +0.000 A 
ENDROOT
BRANCH   3  13
ATOM     13  C   UNL     1       2.291   2.429  19.026  0.00  0.00    +0.000 C 
BRANCH  13  14
ATOM     14  C   UNL     1       1.166   2.805  19.998  0.00  0.00    +0.000 C 
BRANCH  14  15
ATOM     15  C   UNL     1       1.629   3.687  21.130  0.00  0.00    +0.000 C 
ATOM     16  O   UNL     1       1.558   4.906  21.136  0.00  0.00    +0.000 OA
BRANCH  15  17
ATOM     17  O   UNL     1       2.089   2.985  22.189  0.00  0.00    +0.000 OA
ATOM     18  H   UNL     1       3.062   2.983  22.277  0.00  0.00    +0.000 HD
ENDBRANCH  15  17
ENDBRANCH  14  15
ENDBRANCH  13  14
ENDBRANCH   3  13
BRANCH   9  19
ATOM     19  O   UNL     1       8.049   7.739  17.920  0.00  0.00    +0.000 OA
BRANCH  19  20
ATOM     20  C   UNL     1       7.945   9.113  17.530  0.00  0.00    +0.000 C 
BRANCH  20  21
ATOM     21  C   UNL     1       8.911   9.973  18.307  0.00  0.00    +0.000 A 
ATOM     22  C   UNL     1       8.983   9.927  19.705  0.00  0.00    +0.000 A 
ATOM     23  C   UNL     1       9.875  10.748  20.396  0.00  0.00    +0.000 A 
ATOM     24  C   UNL     1      10.696  11.635  19.698  0.00  0.00    +0.000 A 
ATOM     25  C   UNL     1      10.615  11.703  18.311  0.00  0.00    +0.000 A 
ATOM     26 CL   UNL     1      11.614  12.804  17.445  0.00  0.00    +0.000 Cl
ATOM     27  C   UNL     1       9.727  10.887  17.614  0.00  0.00    +0.000 A 
ENDBRANCH  20  21
ENDBRANCH  19  20
ENDBRANCH   9  19
TORSDOF 7
ENDMDL
MODEL 4
REMARK VINA RESULT:      -7.9      3.267      4.539
REMARK  Name = 
REMARK  8 active torsions:
REMARK  status: ('A' for Active; 'I' for Inactive)
REMARK    1  A    between atoms: C_1  and  C_2
REMARK    2  A    between atoms: C_3  and  C_4
REMARK    3  A    between atoms: C_4  and  C_5
REMARK    4  A    between atoms: C_5  and  C_6
REMARK    5  A    between atoms: C_6  and  O_8
REMARK    6  A    between atoms: C_14  and  O_15
REMARK    7  A    between atoms: O_15  and  C_16
REMARK    8  A    between atoms: C_16  and  C_17
REMARK                            x       y       z     vdW  Elec       q    Type
REMARK                         _______ _______ _______ _____ _____    ______ ____
ROOT
ATOM      1  C   UNL     1       4.054   2.551  17.757  0.00  0.00    +0.000 C 
ATOM      2  C   UNL     1       4.228   4.042  17.589  0.00  0.00    +0.000 A 
ATOM      3  C   UNL     1       5.033   4.628  16.674  0.00  0.00    +0.000 A 
ATOM      4  C   UNL     1       5.117   6.117  16.565  0.00  0.00    +0.000 A 
ATOM      5  O   UNL     1       5.817   6.657  15.715  0.00  0.00    +0.000 OA
ATOM      6  O   UNL     1       4.388   6.875  17.466  0.00  0.00    +0.000 OA
ATOM      7  C   UNL     1       3.553   6.276  18.420  0.00  0.00    +0.000 A 
ATOM      8  C   UNL     1       2.827   7.137  19.250  0.00  0.00    +0.000 A 
ATOM      9  C   UNL     1       1.948   6.607  20.190  0.00  0.00    +0.000 A 
ATOM     10  C   UNL     1       1.856   5.221  20.328  0.00  0.00    +0.000 A 
ATOM     11  C   UNL     1       2.587   4.378  19.488  0.00  0.00    +0.000 A 
ATOM     12  C   UNL     1       3.448   4.893  18.509  0.00  0.00    +0.000 A 
ENDROOT
BRANCH   3  13
ATOM     13  C   UNL     1       5.879   3.881  15.653  0.00  0.00    +0.000 C 
BRANCH  13  14
ATOM     14  C   UNL     1       5.452   4.021  14.187  0.00  0.00    +0.000 C 
BRANCH  14  15
ATOM     15  C   UNL     1       6.606   4.289  13.255  0.00  0.00    +0.000 C 
ATOM     16  O   UNL     1       6.772   3.739  12.177  0.00  0.00    +0.000 OA
BRANCH  15  17
ATOM     17  O   UNL     1       7.432   5.259  13.705  0.00  0.00    +0.000 OA
ATOM     18  H   UNL     1       7.927   5.021  14.513  0.00  0.00    +0.000 HD
ENDBRANCH  15  17
ENDBRANCH  14  15
ENDBRANCH  13  14
ENDBRANCH   3  13
BRANCH   9  19
ATOM     19  O   UNL     1       1.219   7.509  20.917  0.00  0.00    +0.000 OA
BRANCH  19  20
ATOM     20  C   UNL     1       1.174   8.829  20.365  0.00  0.00    +0.000 C 
BRANCH  20  21
ATOM     21  C   UNL     1       0.366   9.757  21.239  0.00  0.00    +0.000 A 
ATOM     22  C   UNL     1      -0.157   9.343  22.471  0.00  0.00    +0.000 A 
ATOM     23  C   UNL     1      -0.916  10.219  23.249  0.00  0.00    +0.000 A 
ATOM     24  C   UNL     1      -1.171  11.515  22.798  0.00  0.00    +0.000 A 
ATOM     25  C   UNL     1      -0.674  11.926  21.565  0.00  0.00    +0.000 A 
ATOM     26 CL   UNL     1      -0.997  13.518  20.997  0.00  0.00    +0.000 Cl
ATOM     27  C   UNL     1       0.083  11.057  20.783  0.00  0.00    +0.000 A 
ENDBRANCH  20  21
ENDBRANCH  19  20
ENDBRANCH   9  19
TORSDOF 7
ENDMDL
MODEL 5
REMARK VINA RESULT:      -7.8      2.848      4.303
REMARK  Name = 
REMARK  8 active torsions:
REMARK  status: ('A' for Active; 'I' for Inactive)
REMARK    1  A    between atoms: C_1  and  C_2
REMARK    2  A    between atoms: C_3  and  C_4
REMARK    3  A    between atoms: C_4  and  C_5
REMARK    4  A    between atoms: C_5  and  C_6
REMARK    5  A    between atoms: C_6  and  O_8
REMARK    6  A    between atoms: C_14  and  O_15
REMARK    7  A    between atoms: O_15  and  C_16
REMARK    8  A    between atoms: C_16  and  C_17
REMARK                            x       y       z     vdW  Elec       q    Type
REMARK                         _______ _______ _______ _____ _____    ______ ____
ROOT
ATOM      1  C   UNL     1       4.738   7.010  16.231  0.00  0.00    +0.000 C 
ATOM      2  C   UNL     1       4.447   6.155  17.443  0.00  0.00    +0.000 A 
ATOM      3  C   UNL     1       5.046   4.974  17.717  0.00  0.00    +0.000 A 
ATOM      4  C   UNL     1       4.712   4.213  18.960  0.00  0.00    +0.000 A 
ATOM      5  O   UNL     1       5.276   3.159  19.235  0.00  0.00    +0.000 OA
ATOM      6  O   UNL     1       3.731   4.727  19.790  0.00  0.00    +0.000 OA
ATOM      7  C   UNL     1       3.101   5.949  19.512  0.00  0.00    +0.000 A 
ATOM      8  C   UNL     1       2.158   6.398  20.442  0.00  0.00    +0.000 A 
ATOM      9  C   UNL     1       1.528   7.623  20.246  0.00  0.00    +0.000 A 
ATOM     10  C   UNL     1       1.806   8.353  19.089  0.00  0.00    +0.000 A 
ATOM     11  C   UNL     1       2.754   7.890  18.174  0.00  0.00    +0.000 A 
ATOM     12  C   UNL     1       3.427   6.677  18.373  0.00  0.00    +0.000 A 
ENDROOT
BRANCH   3  13
ATOM     13  C   UNL     1       6.124   4.325  16.861  0.00  0.00    +0.000 C 
BRANCH  13  14
ATOM     14  C   UNL     1       5.690   3.846  15.472  0.00  0.00    +0.000 C 
BRANCH  14  15
ATOM     15  C   UNL     1       6.631   4.274  14.375  0.00  0.00    +0.000 C 
ATOM     16  O   UNL     1       7.402   5.218  14.449  0.00  0.00    +0.000 OA
BRANCH  15  17
ATOM     17  O   UNL     1       6.584   3.463  13.295  0.00  0.00    +0.000 OA
ATOM     18  H   UNL     1       5.853   2.815  13.311  0.00  0.00    +0.000 HD
ENDBRANCH  15  17
ENDBRANCH  14  15
ENDBRANCH  13  14
ENDBRANCH   3  13
BRANCH   9  19
ATOM     19  O   UNL     1       0.670   8.030  21.233  0.00  0.00    +0.000 OA
BRANCH  19  20
ATOM     20  C   UNL     1       1.100   9.182  21.966  0.00  0.00    +0.000 C 
BRANCH  20  21
ATOM     21  C   UNL     1       0.025  10.241  21.993  0.00  0.00    +0.000 A 
ATOM     22  C   UNL     1      -0.736  10.492  23.141  0.00  0.00    +0.000 A 
ATOM     23  C   UNL     1      -1.736  11.466  23.130  0.00  0.00    +0.000 A 
ATOM     24  C   UNL     1      -1.993  12.193  21.967  0.00  0.00    +0.000 A 
ATOM     25  C   UNL     1      -1.256  11.934  20.815  0.00  0.00    +0.000 A 
ATOM     26 CL   UNL     1      -1.578  12.815  19.373  0.00  0.00    +0.000 Cl
ATOM     27  C   UNL     1      -0.258  10.962  20.818  0.00  0.00    +0.000 A 
ENDBRANCH  20  21
ENDBRANCH  19  20
ENDBRANCH   9  19
TORSDOF 7
ENDMDL
MODEL 6
REMARK VINA RESULT:      -7.8      1.422      2.168
REMARK  Name = 
REMARK  8 active torsions:
REMARK  status: ('A' for Active; 'I' for Inactive)
REMARK    1  A    between atoms: C_1  and  C_2
REMARK    2  A    between atoms: C_3  and  C_4
REMARK    3  A    between atoms: C_4  and  C_5
REMARK    4  A    between atoms: C_5  and  C_6
REMARK    5  A    between atoms: C_6  and  O_8
REMARK    6  A    between atoms: C_14  and  O_15
REMARK    7  A    between atoms: O_15  and  C_16
REMARK    8  A    between atoms: C_16  and  C_17
REMARK                            x       y       z     vdW  Elec       q    Type
REMARK                         _______ _______ _______ _____ _____    ______ ____
ROOT
ATOM      1  C   UNL     1       4.458   6.599  16.761  0.00  0.00    +0.000 C 
ATOM      2  C   UNL     1       3.645   6.406  18.020  0.00  0.00    +0.000 A 
ATOM      3  C   UNL     1       3.660   5.292  18.786  0.00  0.00    +0.000 A 
ATOM      4  C   UNL     1       2.840   5.206  20.034  0.00  0.00    +0.000 A 
ATOM      5  O   UNL     1       2.875   4.213  20.753  0.00  0.00    +0.000 OA
ATOM      6  O   UNL     1       2.025   6.279  20.349  0.00  0.00    +0.000 OA
ATOM      7  C   UNL     1       2.000   7.437  19.558  0.00  0.00    +0.000 A 
ATOM      8  C   UNL     1       1.175   8.479  19.994  0.00  0.00    +0.000 A 
ATOM      9  C   UNL     1       1.137   9.672  19.277  0.00  0.00    +0.000 A 
ATOM     10  C   UNL     1       1.878   9.781  18.100  0.00  0.00    +0.000 A 
ATOM     11  C   UNL     1       2.699   8.730  17.683  0.00  0.00    +0.000 A 
ATOM     12  C   UNL     1       2.781   7.536  18.412  0.00  0.00    +0.000 A 
ENDROOT
BRANCH   3  13
ATOM     13  C   UNL     1       4.512   4.060  18.516  0.00  0.00    +0.000 C 
BRANCH  13  14
ATOM     14  C   UNL     1       4.013   3.118  17.414  0.00  0.00    +0.000 C 
BRANCH  14  15
ATOM     15  C   UNL     1       3.268   1.922  17.949  0.00  0.00    +0.000 C 
ATOM     16  O   UNL     1       3.760   1.054  18.655  0.00  0.00    +0.000 OA
BRANCH  15  17
ATOM     17  O   UNL     1       1.958   1.926  17.616  0.00  0.00    +0.000 OA
ATOM     18  H   UNL     1       1.378   1.485  18.267  0.00  0.00    +0.000 HD
ENDBRANCH  15  17
ENDBRANCH  14  15
ENDBRANCH  13  14
ENDBRANCH   3  13
BRANCH   9  19
ATOM     19  O   UNL     1       0.362  10.671  19.802  0.00  0.00    +0.000 OA
BRANCH  19  20
ATOM     20  C   UNL     1      -0.154  11.599  18.842  0.00  0.00    +0.000 C 
BRANCH  20  21
ATOM     21  C   UNL     1      -1.544  11.207  18.401  0.00  0.00    +0.000 A 
ATOM     22  C   UNL     1      -1.762  10.199  17.454  0.00  0.00    +0.000 A 
ATOM     23  C   UNL     1      -3.058   9.872  17.053  0.00  0.00    +0.000 A 
ATOM     24  C   UNL     1      -4.151  10.558  17.586  0.00  0.00    +0.000 A 
ATOM     25  C   UNL     1      -3.941  11.576  18.511  0.00  0.00    +0.000 A 
ATOM     26 CL   UNL     1      -5.282  12.436  19.161  0.00  0.00    +0.000 Cl
ATOM     27  C   UNL     1      -2.650  11.909  18.915  0.00  0.00    +0.000 A 
ENDBRANCH  20  21
ENDBRANCH  19  20
ENDBRANCH   9  19
TORSDOF 7
ENDMDL
MODEL 7
REMARK VINA RESULT:      -7.7      2.808      3.913
REMARK  Name = 
REMARK  8 active torsions:
REMARK  status: ('A' for Active; 'I' for Inactive)
REMARK    1  A    between atoms: C_1  and  C_2
REMARK    2  A    between atoms: C_3  and  C_4
REMARK    3  A    between atoms: C_4  and  C_5
REMARK    4  A    between atoms: C_5  and  C_6
REMARK    5  A    between atoms: C_6  and  O_8
REMARK    6  A    between atoms: C_14  and  O_15
REMARK    7  A    between atoms: O_15  and  C_16
REMARK    8  A    between atoms: C_16  and  C_17
REMARK                            x       y       z     vdW  Elec       q    Type
REMARK                         _______ _______ _______ _____ _____    ______ ____
ROOT
ATOM      1  C   UNL     1       4.078   2.826  18.066  0.00  0.00    +0.000 C 
ATOM      2  C   UNL     1       4.016   4.315  17.818  0.00  0.00    +0.000 A 
ATOM      3  C   UNL     1       4.645   4.958  16.808  0.00  0.00    +0.000 A 
ATOM      4  C   UNL     1       4.499   6.435  16.627  0.00  0.00    +0.000 A 
ATOM      5  O   UNL     1       5.037   7.020  15.693  0.00  0.00    +0.000 OA
ATOM      6  O   UNL     1       3.748   7.131  17.559  0.00  0.00    +0.000 OA
ATOM      7  C   UNL     1       3.095   6.474  18.612  0.00  0.00    +0.000 A 
ATOM      8  C   UNL     1       2.325   7.267  19.468  0.00  0.00    +0.000 A 
ATOM      9  C   UNL     1       1.618   6.671  20.508  0.00  0.00    +0.000 A 
ATOM     10  C   UNL     1       1.743   5.296  20.714  0.00  0.00    +0.000 A 
ATOM     11  C   UNL     1       2.514   4.520  19.846  0.00  0.00    +0.000 A 
ATOM     12  C   UNL     1       3.202   5.096  18.770  0.00  0.00    +0.000 A 
ENDROOT
BRANCH   3  13
ATOM     13  C   UNL     1       5.500   4.283  15.745  0.00  0.00    +0.000 C 
BRANCH  13  14
ATOM     14  C   UNL     1       7.001   4.184  16.043  0.00  0.00    +0.000 C 
BRANCH  14  15
ATOM     15  C   UNL     1       7.409   4.931  17.287  0.00  0.00    +0.000 C 
ATOM     16  O   UNL     1       7.510   4.431  18.397  0.00  0.00    +0.000 OA
BRANCH  15  17
ATOM     17  O   UNL     1       7.718   6.224  17.047  0.00  0.00    +0.000 OA
ATOM     18  H   UNL     1       8.250   6.367  16.239  0.00  0.00    +0.000 HD
ENDBRANCH  15  17
ENDBRANCH  14  15
ENDBRANCH  13  14
ENDBRANCH   3  13
BRANCH   9  19
ATOM     19  O   UNL     1       0.829   7.500  21.260  0.00  0.00    +0.000 OA
BRANCH  19  20
ATOM     20  C   UNL     1       1.373   8.804  21.487  0.00  0.00    +0.000 C 
BRANCH  20  21
ATOM     21  C   UNL     1       0.363   9.878  21.164  0.00  0.00    +0.000 A 
ATOM     22  C   UNL     1       0.022  10.199  19.844  0.00  0.00    +0.000 A 
ATOM     23  C   UNL     1      -0.903  11.209  19.577  0.00  0.00    +0.000 A 
ATOM     24  C   UNL     1      -1.488  11.920  20.626  0.00  0.00    +0.000 A 
ATOM     25  C   UNL     1      -1.137  11.622  21.940  0.00  0.00    +0.000 A 
ATOM     26 CL   UNL     1      -1.843  12.503  23.238  0.00  0.00    +0.000 Cl
ATOM     27  C   UNL     1      -0.214  10.616  22.214  0.00  0.00    +0.000 A 
ENDBRANCH  20  21
ENDBRANCH  19  20
ENDBRANCH   9  19
TORSDOF 7
ENDMDL
MODEL 8
REMARK VINA RESULT:      -7.7      3.277      4.417
REMARK  Name = 
REMARK  8 active torsions:
REMARK  status: ('A' for Active; 'I' for Inactive)
REMARK    1  A    between atoms: C_1  and  C_2
REMARK    2  A    between atoms: C_3  and  C_4
REMARK    3  A    between atoms: C_4  and  C_5
REMARK    4  A    between atoms: C_5  and  C_6
REMARK    5  A    between atoms: C_6  and  O_8
REMARK    6  A    between atoms: C_14  and  O_15
REMARK    7  A    between atoms: O_15  and  C_16
REMARK    8  A    between atoms: C_16  and  C_17
REMARK                            x       y       z     vdW  Elec       q    Type
REMARK                         _______ _______ _______ _____ _____    ______ ____
ROOT
ATOM      1  C   UNL     1       4.943   7.051  16.247  0.00  0.00    +0.000 C 
ATOM      2  C   UNL     1       4.623   6.217  17.466  0.00  0.00    +0.000 A 
ATOM      3  C   UNL     1       5.244   5.063  17.797  0.00  0.00    +0.000 A 
ATOM      4  C   UNL     1       4.876   4.322  19.043  0.00  0.00    +0.000 A 
ATOM      5  O   UNL     1       5.459   3.293  19.369  0.00  0.00    +0.000 OA
ATOM      6  O   UNL     1       3.843   4.825  19.815  0.00  0.00    +0.000 OA
ATOM      7  C   UNL     1       3.190   6.020  19.477  0.00  0.00    +0.000 A 
ATOM      8  C   UNL     1       2.192   6.461  20.352  0.00  0.00    +0.000 A 
ATOM      9  C   UNL     1       1.535   7.661  20.096  0.00  0.00    +0.000 A 
ATOM     10  C   UNL     1       1.843   8.370  18.935  0.00  0.00    +0.000 A 
ATOM     11  C   UNL     1       2.846   7.915  18.075  0.00  0.00    +0.000 A 
ATOM     12  C   UNL     1       3.546   6.729  18.336  0.00  0.00    +0.000 A 
ENDROOT
BRANCH   3  13
ATOM     13  C   UNL     1       6.379   4.427  17.008  0.00  0.00    +0.000 C 
BRANCH  13  14
ATOM     14  C   UNL     1       5.990   3.738  15.695  0.00  0.00    +0.000 C 
BRANCH  14  15
ATOM     15  C   UNL     1       6.609   4.381  14.480  0.00  0.00    +0.000 C 
ATOM     16  O   UNL     1       7.503   5.214  14.513  0.00  0.00    +0.000 OA
BRANCH  15  17
ATOM     17  O   UNL     1       6.113   3.900  13.319  0.00  0.00    +0.000 OA
ATOM     18  H   UNL     1       5.155   3.706  13.342  0.00  0.00    +0.000 HD
ENDBRANCH  15  17
ENDBRANCH  14  15
ENDBRANCH  13  14
ENDBRANCH   3  13
BRANCH   9  19
ATOM     19  O   UNL     1       0.621   8.064  21.032  0.00  0.00    +0.000 OA
BRANCH  19  20
ATOM     20  C   UNL     1       1.101   9.044  21.958  0.00  0.00    +0.000 C 
BRANCH  20  21
ATOM     21  C   UNL     1       0.327  10.333  21.837  0.00  0.00    +0.000 A 
ATOM     22  C   UNL     1       0.717  11.350  20.956  0.00  0.00    +0.000 A 
ATOM     23  C   UNL     1      -0.009  12.539  20.879  0.00  0.00    +0.000 A 
ATOM     24  C   UNL     1      -1.128  12.730  21.690  0.00  0.00    +0.000 A 
ATOM     25  C   UNL     1      -1.509  11.734  22.584  0.00  0.00    +0.000 A 
ATOM     26 CL   UNL     1      -2.880  11.969  23.599  0.00  0.00    +0.000 Cl
ATOM     27  C   UNL     1      -0.789  10.545  22.668  0.00  0.00    +0.000 A 
ENDBRANCH  20  21
ENDBRANCH  19  20
ENDBRANCH   9  19
TORSDOF 7
ENDMDL
MODEL 9
REMARK VINA RESULT:      -7.6      1.489      2.249
REMARK  Name = 
REMARK  8 active torsions:
REMARK  status: ('A' for Active; 'I' for Inactive)
REMARK    1  A    between atoms: C_1  and  C_2
REMARK    2  A    between atoms: C_3  and  C_4
REMARK    3  A    between atoms: C_4  and  C_5
REMARK    4  A    between atoms: C_5  and  C_6
REMARK    5  A    between atoms: C_6  and  O_8
REMARK    6  A    between atoms: C_14  and  O_15
REMARK    7  A    between atoms: O_15  and  C_16
REMARK    8  A    between atoms: C_16  and  C_17
REMARK                            x       y       z     vdW  Elec       q    Type
REMARK                         _______ _______ _______ _____ _____    ______ ____
ROOT
ATOM      1  C   UNL     1       4.192   5.693  17.263  0.00  0.00    +0.000 C 
ATOM      2  C   UNL     1       3.341   5.859  18.500  0.00  0.00    +0.000 A 
ATOM      3  C   UNL     1       3.202   4.930  19.473  0.00  0.00    +0.000 A 
ATOM      4  C   UNL     1       2.359   5.199  20.678  0.00  0.00    +0.000 A 
ATOM      5  O   UNL     1       2.256   4.376  21.582  0.00  0.00    +0.000 OA
ATOM      6  O   UNL     1       1.681   6.404  20.738  0.00  0.00    +0.000 OA
ATOM      7  C   UNL     1       1.815   7.372  19.732  0.00  0.00    +0.000 A 
ATOM      8  C   UNL     1       1.122   8.573  19.917  0.00  0.00    +0.000 A 
ATOM      9  C   UNL     1       1.247   9.591  18.976  0.00  0.00    +0.000 A 
ATOM     10  C   UNL     1       2.015   9.368  17.832  0.00  0.00    +0.000 A 
ATOM     11  C   UNL     1       2.702   8.163  17.668  0.00  0.00    +0.000 A 
ATOM     12  C   UNL     1       2.621   7.141  18.623  0.00  0.00    +0.000 A 
ENDROOT
BRANCH   3  13
ATOM     13  C   UNL     1       3.896   3.576  19.489  0.00  0.00    +0.000 C 
BRANCH  13  14
ATOM     14  C   UNL     1       2.986   2.346  19.387  0.00  0.00    +0.000 C 
BRANCH  14  15
ATOM     15  C   UNL     1       1.876   2.511  18.381  0.00  0.00    +0.000 C 
ATOM     16  O   UNL     1       0.687   2.549  18.657  0.00  0.00    +0.000 OA
BRANCH  15  17
ATOM     17  O   UNL     1       2.330   2.675  17.119  0.00  0.00    +0.000 OA
ATOM     18  H   UNL     1       1.786   3.275  16.571  0.00  0.00    +0.000 HD
ENDBRANCH  15  17
ENDBRANCH  14  15
ENDBRANCH  13  14
ENDBRANCH   3  13
BRANCH   9  19
ATOM     19  O   UNL     1       0.597  10.762  19.259  0.00  0.00    +0.000 OA
BRANCH  19  20
ATOM     20  C   UNL     1      -0.744  10.606  19.735  0.00  0.00    +0.000 C 
BRANCH  20  21
ATOM     21  C   UNL     1      -1.732  10.623  18.595  0.00  0.00    +0.000 A 
ATOM     22  C   UNL     1      -1.488   9.943  17.395  0.00  0.00    +0.000 A 
ATOM     23  C   UNL     1      -2.413   9.993  16.351  0.00  0.00    +0.000 A 
ATOM     24  C   UNL     1      -3.588  10.732  16.491  0.00  0.00    +0.000 A 
ATOM     25  C   UNL     1      -3.828  11.428  17.672  0.00  0.00    +0.000 A 
ATOM     26 CL   UNL     1      -5.268  12.354  17.846  0.00  0.00    +0.000 Cl
ATOM     27  C   UNL     1      -2.909  11.385  18.717  0.00  0.00    +0.000 A 
ENDBRANCH  20  21
ENDBRANCH  19  20
ENDBRANCH   9  19
TORSDOF 7
ENDMDL
