MODEL 1
REMARK VINA RESULT:      -6.5      0.000      0.000
REMARK  Name = 
REMARK  8 active torsions:
REMARK  status: ('A' for Active; 'I' for Inactive)
REMARK    1  A    between atoms: C_1  and  O_2
REMARK    2  A    between atoms: O_2  and  C_3
REMARK    3  A    between atoms: C_6  and  C_7
REMARK    4  A    between atoms: C_8  and  N_9
REMARK    5  A    between atoms: C_8  and  C_12
REMARK    6  A    between atoms: C_12  and  N_21
REMARK    7  A    between atoms: C_13  and  C_14
REMARK    8  A    between atoms: C_17  and  O_18
REMARK                            x       y       z     vdW  Elec       q    Type
REMARK                         _______ _______ _______ _____ _____    ______ ____
ROOT
ATOM      1  C   UNL     1       1.713   8.190  17.896  0.00  0.00    +0.000 C 
ATOM      2  C   UNL     1       1.278   9.155  18.726  0.00  0.00    +0.000 C 
ENDROOT
BRANCH   1   6
ATOM      3  C   UNL     1       4.882   5.419  18.737  0.00  0.00    +0.000 A 
ATOM      4  C   UNL     1       5.023   6.366  17.715  0.00  0.00    +0.000 A 
ATOM      5  C   UNL     1       4.007   7.297  17.451  0.00  0.00    +0.000 A 
ATOM      6  C   UNL     1       2.830   7.280  18.203  0.00  0.00    +0.000 A 
ATOM      7  C   UNL     1       2.695   6.348  19.231  0.00  0.00    +0.000 A 
ATOM      8  C   UNL     1       3.714   5.418  19.501  0.00  0.00    +0.000 A 
BRANCH   3  10
ATOM      9  C   UNL     1       7.036   4.757  17.998  0.00  0.00    +0.000 C 
ATOM     10  O   UNL     1       5.922   4.544  18.857  0.00  0.00    +0.000 OA
ENDBRANCH   3  10
ENDBRANCH   1   6
BRANCH   2  11
ATOM     11  N   UNL     1       1.852   9.329  19.979  0.00  0.00    +0.000 N 
ATOM     12  C   UNL     1       1.230   8.851  21.116  0.00  0.00    +0.000 C 
ATOM     13  O   UNL     1       0.112   8.356  21.191  0.00  0.00    +0.000 OA
ATOM     14  H   UNL     1       2.854   9.184  20.012  0.00  0.00    +0.000 HD
ENDBRANCH   2  11
BRANCH   2  15
ATOM     15  C   UNL     1       0.166  10.048  18.386  0.00  0.00    +0.000 C 
ATOM     16  C   UNL     1      -1.098   9.600  18.275  0.00  0.00    +0.000 C 
BRANCH  16  17
ATOM     17  C   UNL     1      -2.258  10.362  17.794  0.00  0.00    +0.000 A 
ATOM     18  C   UNL     1      -2.684  10.213  16.466  0.00  0.00    +0.000 A 
ATOM     19  C   UNL     1      -3.848  10.849  16.016  0.00  0.00    +0.000 A 
ATOM     20  C   UNL     1      -4.580  11.635  16.900  0.00  0.00    +0.000 A 
ATOM     21  C   UNL     1      -4.151  11.818  18.210  0.00  0.00    +0.000 A 
ATOM     22  C   UNL     1      -2.988  11.182  18.659  0.00  0.00    +0.000 A 
BRANCH  20  23
ATOM     23  O   UNL     1      -5.740  12.242  16.518  0.00  0.00    +0.000 OA
ATOM     24  H   UNL     1      -6.453  11.582  16.526  0.00  0.00    +0.000 HD
ENDBRANCH  20  23
ENDBRANCH  16  17
BRANCH  15  25
ATOM     25  N   UNL     1       0.505  11.366  18.115  0.00  0.00    +0.000 N 
ATOM     26  C   UNL     1       0.567  12.298  19.140  0.00  0.00    +0.000 C 
ATOM     27  O   UNL     1       0.257  12.131  20.312  0.00  0.00    +0.000 OA
ATOM     28  H   UNL     1       1.303  11.478  17.499  0.00  0.00    +0.000 HD
ENDBRANCH  15  25
ENDBRANCH   2  15
TORSDOF 7
ENDMDL
MODEL 2
REMARK VINA RESULT:      -6.4      3.605      8.448
REMARK  Name = 
REMARK  8 active torsions:
REMARK  status: ('A' for Active; 'I' for Inactive)
REMARK    1  A    between atoms: C_1  and  O_2
REMARK    2  A    between atoms: O_2  and  C_3
REMARK    3  A    between atoms: C_6  and  C_7
REMARK    4  A    between atoms: C_8  and  N_9
REMARK    5  A    between atoms: C_8  and  C_12
REMARK    6  A    between atoms: C_12  and  N_21
REMARK    7  A    between atoms: C_13  and  C_14
REMARK    8  A    between atoms: C_17  and  O_18
REMARK                            x       y       z     vdW  Elec       q    Type
REMARK                         _______ _______ _______ _____ _____    ______ ____
ROOT
ATOM      1  C   UNL     1       1.844   7.900  19.190  0.00  0.00    +0.000 C 
ATOM      2  C   UNL     1       2.410   6.697  19.390  0.00  0.00    +0.000 C 
ENDROOT
BRANCH   1   6
ATOM      3  C   UNL     1      -0.111  10.173  22.261  0.00  0.00    +0.000 A 
ATOM      4  C   UNL     1       0.883   9.244  22.593  0.00  0.00    +0.000 A 
ATOM      5  C   UNL     1       1.552   8.518  21.596  0.00  0.00    +0.000 A 
ATOM      6  C   UNL     1       1.219   8.706  20.253  0.00  0.00    +0.000 A 
ATOM      7  C   UNL     1       0.241   9.642  19.920  0.00  0.00    +0.000 A 
ATOM      8  C   UNL     1      -0.426  10.374  20.917  0.00  0.00    +0.000 A 
BRANCH   3  10
ATOM      9  C   UNL     1      -1.384  12.004  23.070  0.00  0.00    +0.000 C 
ATOM     10  O   UNL     1      -0.713  10.776  23.327  0.00  0.00    +0.000 OA
ENDBRANCH   3  10
ENDBRANCH   1   6
BRANCH   2  11
ATOM     11  N   UNL     1       2.477   6.143  20.662  0.00  0.00    +0.000 N 
ATOM     12  C   UNL     1       1.628   5.120  21.036  0.00  0.00    +0.000 C 
ATOM     13  O   UNL     1       0.684   4.674  20.395  0.00  0.00    +0.000 OA
ATOM     14  H   UNL     1       3.416   5.996  21.014  0.00  0.00    +0.000 HD
ENDBRANCH   2  11
BRANCH   2  15
ATOM     15  C   UNL     1       3.019   5.918  18.307  0.00  0.00    +0.000 C 
ATOM     16  C   UNL     1       4.329   6.008  18.014  0.00  0.00    +0.000 C 
BRANCH  16  17
ATOM     17  C   UNL     1       5.014   5.401  16.865  0.00  0.00    +0.000 A 
ATOM     18  C   UNL     1       5.494   4.086  16.959  0.00  0.00    +0.000 A 
ATOM     19  C   UNL     1       6.056   3.452  15.843  0.00  0.00    +0.000 A 
ATOM     20  C   UNL     1       6.137   4.140  14.637  0.00  0.00    +0.000 A 
ATOM     21  C   UNL     1       5.694   5.455  14.539  0.00  0.00    +0.000 A 
ATOM     22  C   UNL     1       5.133   6.088  15.655  0.00  0.00    +0.000 A 
BRANCH  20  23
ATOM     23  O   UNL     1       6.639   3.551  13.515  0.00  0.00    +0.000 OA
ATOM     24  H   UNL     1       5.900   3.213  12.983  0.00  0.00    +0.000 HD
ENDBRANCH  20  23
ENDBRANCH  16  17
BRANCH  15  25
ATOM     25  N   UNL     1       2.151   5.140  17.555  0.00  0.00    +0.000 N 
ATOM     26  C   UNL     1       2.076   3.771  17.767  0.00  0.00    +0.000 C 
ATOM     27  O   UNL     1       2.777   3.097  18.509  0.00  0.00    +0.000 OA
ATOM     28  H   UNL     1       1.217   5.524  17.457  0.00  0.00    +0.000 HD
ENDBRANCH  15  25
ENDBRANCH   2  15
TORSDOF 7
ENDMDL
MODEL 3
REMARK VINA RESULT:      -6.3      0.553      8.356
REMARK  Name = 
REMARK  8 active torsions:
REMARK  status: ('A' for Active; 'I' for Inactive)
REMARK    1  A    between atoms: C_1  and  O_2
REMARK    2  A    between atoms: O_2  and  C_3
REMARK    3  A    between atoms: C_6  and  C_7
REMARK    4  A    between atoms: C_8  and  N_9
REMARK    5  A    between atoms: C_8  and  C_12
REMARK    6  A    between atoms: C_12  and  N_21
REMARK    7  A    between atoms: C_13  and  C_14
REMARK    8  A    between atoms: C_17  and  O_18
REMARK                            x       y       z     vdW  Elec       q    Type
REMARK                         _______ _______ _______ _____ _____    ______ ____
ROOT
ATOM      1  C   UNL     1      -1.087   9.552  18.043  0.00  0.00    +0.000 C 
ATOM      2  C   UNL     1       0.132  10.076  18.267  0.00  0.00    +0.000 C 
ENDROOT
BRANCH   1   6
ATOM      3  C   UNL     1      -4.588  11.720  16.829  0.00  0.00    +0.000 A 
ATOM      4  C   UNL     1      -4.208  11.685  18.177  0.00  0.00    +0.000 A 
ATOM      5  C   UNL     1      -3.049  11.007  18.582  0.00  0.00    +0.000 A 
ATOM      6  C   UNL     1      -2.263  10.342  17.639  0.00  0.00    +0.000 A 
ATOM      7  C   UNL     1      -2.630  10.388  16.294  0.00  0.00    +0.000 A 
ATOM      8  C   UNL     1      -3.788  11.073  15.886  0.00  0.00    +0.000 A 
BRANCH   3  10
ATOM      9  C   UNL     1      -6.356  13.055  17.675  0.00  0.00    +0.000 C 
ATOM     10  O   UNL     1      -5.758  12.373  16.578  0.00  0.00    +0.000 OA
ENDBRANCH   3  10
ENDBRANCH   1   6
BRANCH   2  11
ATOM     11  N   UNL     1       0.369  11.432  18.086  0.00  0.00    +0.000 N 
ATOM     12  C   UNL     1       0.299  12.313  19.148  0.00  0.00    +0.000 C 
ATOM     13  O   UNL     1      -0.078  12.065  20.288  0.00  0.00    +0.000 OA
ATOM     14  H   UNL     1       1.144  11.650  17.471  0.00  0.00    +0.000 HD
ENDBRANCH   2  11
BRANCH   2  15
ATOM     15  C   UNL     1       1.281   9.260  18.674  0.00  0.00    +0.000 C 
ATOM     16  C   UNL     1       1.773   8.283  17.891  0.00  0.00    +0.000 C 
BRANCH  16  17
ATOM     17  C   UNL     1       2.812   7.309  18.255  0.00  0.00    +0.000 A 
ATOM     18  C   UNL     1       2.584   6.415  19.311  0.00  0.00    +0.000 A 
ATOM     19  C   UNL     1       3.515   5.411  19.607  0.00  0.00    +0.000 A 
ATOM     20  C   UNL     1       4.673   5.310  18.843  0.00  0.00    +0.000 A 
ATOM     21  C   UNL     1       4.926   6.210  17.814  0.00  0.00    +0.000 A 
ATOM     22  C   UNL     1       3.995   7.213  17.519  0.00  0.00    +0.000 A 
BRANCH  20  23
ATOM     23  O   UNL     1       5.589   4.325  19.068  0.00  0.00    +0.000 OA
ATOM     24  H   UNL     1       5.550   3.690  18.335  0.00  0.00    +0.000 HD
ENDBRANCH  20  23
ENDBRANCH  16  17
BRANCH  15  25
ATOM     25  N   UNL     1       1.782   9.507  19.944  0.00  0.00    +0.000 N 
ATOM     26  C   UNL     1       1.137   9.002  21.062  0.00  0.00    +0.000 C 
ATOM     27  O   UNL     1       0.069   8.405  21.095  0.00  0.00    +0.000 OA
ATOM     28  H   UNL     1       2.784   9.375  20.035  0.00  0.00    +0.000 HD
ENDBRANCH  15  25
ENDBRANCH   2  15
TORSDOF 7
ENDMDL
MODEL 4
REMARK VINA RESULT:      -6.3      3.988      5.462
REMARK  Name = 
REMARK  8 active torsions:
REMARK  status: ('A' for Active; 'I' for Inactive)
REMARK    1  A    between atoms: C_1  and  O_2
REMARK    2  A    between atoms: O_2  and  C_3
REMARK    3  A    between atoms: C_6  and  C_7
REMARK    4  A    between atoms: C_8  and  N_9
REMARK    5  A    between atoms: C_8  and  C_12
REMARK    6  A    between atoms: C_12  and  N_21
REMARK    7  A    between atoms: C_13  and  C_14
REMARK    8  A    between atoms: C_17  and  O_18
REMARK                            x       y       z     vdW  Elec       q    Type
REMARK                         _______ _______ _______ _____ _____    ______ ____
ROOT
ATOM      1  C   UNL     1       4.379   6.352  18.082  0.00  0.00    +0.000 C 
ATOM      2  C   UNL     1       3.089   6.105  18.366  0.00  0.00    +0.000 C 
ENDROOT
BRANCH   1   6
ATOM      3  C   UNL     1       6.408   4.457  14.808  0.00  0.00    +0.000 A 
ATOM      4  C   UNL     1       5.666   5.627  14.599  0.00  0.00    +0.000 A 
ATOM      5  C   UNL     1       5.024   6.273  15.666  0.00  0.00    +0.000 A 
ATOM      6  C   UNL     1       5.109   5.744  16.956  0.00  0.00    +0.000 A 
ATOM      7  C   UNL     1       5.861   4.589  17.169  0.00  0.00    +0.000 A 
ATOM      8  C   UNL     1       6.509   3.944  16.101  0.00  0.00    +0.000 A 
BRANCH   3  10
ATOM      9  C   UNL     1       6.020   3.478  12.683  0.00  0.00    +0.000 C 
ATOM     10  O   UNL     1       6.941   3.906  13.679  0.00  0.00    +0.000 OA
ENDBRANCH   3  10
ENDBRANCH   1   6
BRANCH   2  11
ATOM     11  N   UNL     1       2.331   5.263  17.562  0.00  0.00    +0.000 N 
ATOM     12  C   UNL     1       2.369   3.893  17.735  0.00  0.00    +0.000 C 
ATOM     13  O   UNL     1       3.114   3.264  18.477  0.00  0.00    +0.000 OA
ATOM     14  H   UNL     1       1.390   5.589  17.371  0.00  0.00    +0.000 HD
ENDBRANCH   2  11
BRANCH   2  15
ATOM     15  C   UNL     1       2.394   6.724  19.500  0.00  0.00    +0.000 C 
ATOM     16  C   UNL     1       1.700   7.869  19.370  0.00  0.00    +0.000 C 
BRANCH  16  17
ATOM     17  C   UNL     1       1.099   8.656  20.455  0.00  0.00    +0.000 A 
ATOM     18  C   UNL     1       1.298  10.044  20.498  0.00  0.00    +0.000 A 
ATOM     19  C   UNL     1       0.650  10.827  21.462  0.00  0.00    +0.000 A 
ATOM     20  C   UNL     1      -0.194  10.214  22.382  0.00  0.00    +0.000 A 
ATOM     21  C   UNL     1      -0.375   8.835  22.371  0.00  0.00    +0.000 A 
ATOM     22  C   UNL     1       0.273   8.054  21.407  0.00  0.00    +0.000 A 
BRANCH  20  23
ATOM     23  O   UNL     1      -0.877  10.939  23.313  0.00  0.00    +0.000 OA
ATOM     24  H   UNL     1      -1.694  10.465  23.539  0.00  0.00    +0.000 HD
ENDBRANCH  20  23
ENDBRANCH  16  17
BRANCH  15  25
ATOM     25  N   UNL     1       2.558   6.099  20.727  0.00  0.00    +0.000 N 
ATOM     26  C   UNL     1       1.768   5.012  21.071  0.00  0.00    +0.000 C 
ATOM     27  O   UNL     1       0.825   4.553  20.440  0.00  0.00    +0.000 OA
ATOM     28  H   UNL     1       3.523   5.917  20.983  0.00  0.00    +0.000 HD
ENDBRANCH  15  25
ENDBRANCH   2  15
TORSDOF 7
ENDMDL
MODEL 5
REMARK VINA RESULT:      -6.3      2.299      8.241
REMARK  Name = 
REMARK  8 active torsions:
REMARK  status: ('A' for Active; 'I' for Inactive)
REMARK    1  A    between atoms: C_1  and  O_2
REMARK    2  A    between atoms: O_2  and  C_3
REMARK    3  A    between atoms: C_6  and  C_7
REMARK    4  A    between atoms: C_8  and  N_9
REMARK    5  A    between atoms: C_8  and  C_12
REMARK    6  A    between atoms: C_12  and  N_21
REMARK    7  A    between atoms: C_13  and  C_14
REMARK    8  A    between atoms: C_17  and  O_18
REMARK                            x       y       z     vdW  Elec       q    Type
REMARK                         _______ _______ _______ _____ _____    ______ ____
ROOT
ATOM      1  C   UNL     1       1.037   9.639  19.061  0.00  0.00    +0.000 C 
ATOM      2  C   UNL     1       1.206   8.535  19.809  0.00  0.00    +0.000 C 
ENDROOT
BRANCH   1   6
ATOM      3  C   UNL     1      -1.943  12.589  19.978  0.00  0.00    +0.000 A 
ATOM      4  C   UNL     1      -0.656  12.690  20.522  0.00  0.00    +0.000 A 
ATOM      5  C   UNL     1       0.335  11.750  20.205  0.00  0.00    +0.000 A 
ATOM      6  C   UNL     1       0.043  10.687  19.348  0.00  0.00    +0.000 A 
ATOM      7  C   UNL     1      -1.233  10.594  18.792  0.00  0.00    +0.000 A 
ATOM      8  C   UNL     1      -2.226  11.538  19.104  0.00  0.00    +0.000 A 
BRANCH   3  10
ATOM      9  C   UNL     1      -4.169  13.121  20.602  0.00  0.00    +0.000 C 
ATOM     10  O   UNL     1      -2.824  13.540  20.404  0.00  0.00    +0.000 OA
ENDBRANCH   3  10
ENDBRANCH   1   6
BRANCH   2  11
ATOM     11  N   UNL     1       0.455   8.332  20.960  0.00  0.00    +0.000 N 
ATOM     12  C   UNL     1       0.856   8.859  22.172  0.00  0.00    +0.000 C 
ATOM     13  O   UNL     1       1.914   9.427  22.414  0.00  0.00    +0.000 OA
ATOM     14  H   UNL     1      -0.548   8.411  20.832  0.00  0.00    +0.000 HD
ENDBRANCH   2  11
BRANCH   2  15
ATOM     15  C   UNL     1       2.203   7.507  19.491  0.00  0.00    +0.000 C 
ATOM     16  C   UNL     1       2.646   7.309  18.236  0.00  0.00    +0.000 C 
BRANCH  16  17
ATOM     17  C   UNL     1       3.518   6.220  17.776  0.00  0.00    +0.000 A 
ATOM     18  C   UNL     1       2.991   4.930  17.618  0.00  0.00    +0.000 A 
ATOM     19  C   UNL     1       3.776   3.900  17.083  0.00  0.00    +0.000 A 
ATOM     20  C   UNL     1       5.089   4.169  16.710  0.00  0.00    +0.000 A 
ATOM     21  C   UNL     1       5.634   5.436  16.892  0.00  0.00    +0.000 A 
ATOM     22  C   UNL     1       4.848   6.463  17.428  0.00  0.00    +0.000 A 
BRANCH  20  23
ATOM     23  O   UNL     1       5.879   3.211  16.149  0.00  0.00    +0.000 OA
ATOM     24  H   UNL     1       6.107   3.485  15.245  0.00  0.00    +0.000 HD
ENDBRANCH  20  23
ENDBRANCH  16  17
BRANCH  15  25
ATOM     25  N   UNL     1       2.607   6.704  20.548  0.00  0.00    +0.000 N 
ATOM     26  C   UNL     1       1.908   5.546  20.853  0.00  0.00    +0.000 C 
ATOM     27  O   UNL     1       0.866   5.154  20.346  0.00  0.00    +0.000 OA
ATOM     28  H   UNL     1       3.605   6.524  20.584  0.00  0.00    +0.000 HD
ENDBRANCH  15  25
ENDBRANCH   2  15
TORSDOF 7
ENDMDL
MODEL 6
REMARK VINA RESULT:      -6.3      3.357      8.328
REMARK  Name = 
REMARK  8 active torsions:
REMARK  status: ('A' for Active; 'I' for Inactive)
REMARK    1  A    between atoms: C_1  and  O_2
REMARK    2  A    between atoms: O_2  and  C_3
REMARK    3  A    between atoms: C_6  and  C_7
REMARK    4  A    between atoms: C_8  and  N_9
REMARK    5  A    between atoms: C_8  and  C_12
REMARK    6  A    between atoms: C_12  and  N_21
REMARK    7  A    between atoms: C_13  and  C_14
REMARK    8  A    between atoms: C_17  and  O_18
REMARK                            x       y       z     vdW  Elec       q    Type
REMARK                         _______ _______ _______ _____ _____    ______ ____
ROOT
ATOM      1  C   UNL     1       1.578   8.613  21.196  0.00  0.00    +0.000 C 
ATOM      2  C   UNL     1       1.619   8.162  19.930  0.00  0.00    +0.000 C 
ENDROOT
BRANCH   1   6
ATOM      3  C   UNL     1      -1.050  11.646  22.721  0.00  0.00    +0.000 A 
ATOM      4  C   UNL     1      -0.121  11.953  21.719  0.00  0.00    +0.000 A 
ATOM      5  C   UNL     1       0.722  10.964  21.190  0.00  0.00    +0.000 A 
ATOM      6  C   UNL     1       0.651   9.655  21.672  0.00  0.00    +0.000 A 
ATOM      7  C   UNL     1      -0.284   9.344  22.658  0.00  0.00    +0.000 A 
ATOM      8  C   UNL     1      -1.134  10.332  23.185  0.00  0.00    +0.000 A 
BRANCH   3  10
ATOM      9  C   UNL     1      -3.125  12.449  23.542  0.00  0.00    +0.000 C 
ATOM     10  O   UNL     1      -1.774  12.708  23.179  0.00  0.00    +0.000 OA
ENDBRANCH   3  10
ENDBRANCH   1   6
BRANCH   2  11
ATOM     11  N   UNL     1       0.731   8.639  18.975  0.00  0.00    +0.000 N 
ATOM     12  C   UNL     1       1.108   9.630  18.089  0.00  0.00    +0.000 C 
ATOM     13  O   UNL     1       2.153  10.270  18.100  0.00  0.00    +0.000 OA
ATOM     14  H   UNL     1       0.170   7.927  18.521  0.00  0.00    +0.000 HD
ENDBRANCH   2  11
BRANCH   2  15
ATOM     15  C   UNL     1       2.559   7.126  19.489  0.00  0.00    +0.000 C 
ATOM     16  C   UNL     1       3.006   7.064  18.222  0.00  0.00    +0.000 C 
BRANCH  16  17
ATOM     17  C   UNL     1       3.820   5.993  17.632  0.00  0.00    +0.000 A 
ATOM     18  C   UNL     1       3.271   4.711  17.474  0.00  0.00    +0.000 A 
ATOM     19  C   UNL     1       3.992   3.704  16.820  0.00  0.00    +0.000 A 
ATOM     20  C   UNL     1       5.262   3.985  16.328  0.00  0.00    +0.000 A 
ATOM     21  C   UNL     1       5.831   5.242  16.506  0.00  0.00    +0.000 A 
ATOM     22  C   UNL     1       5.110   6.248  17.160  0.00  0.00    +0.000 A 
BRANCH  20  23
ATOM     23  O   UNL     1       5.985   3.048  15.650  0.00  0.00    +0.000 OA
ATOM     24  H   UNL     1       6.876   3.400  15.490  0.00  0.00    +0.000 HD
ENDBRANCH  20  23
ENDBRANCH  16  17
BRANCH  15  25
ATOM     25  N   UNL     1       2.901   6.172  20.436  0.00  0.00    +0.000 N 
ATOM     26  C   UNL     1       2.046   5.114  20.705  0.00  0.00    +0.000 C 
ATOM     27  O   UNL     1       0.919   4.941  20.260  0.00  0.00    +0.000 OA
ATOM     28  H   UNL     1       3.855   5.835  20.370  0.00  0.00    +0.000 HD
ENDBRANCH  15  25
ENDBRANCH   2  15
TORSDOF 7
ENDMDL
MODEL 7
REMARK VINA RESULT:      -6.2      2.599      8.092
REMARK  Name = 
REMARK  8 active torsions:
REMARK  status: ('A' for Active; 'I' for Inactive)
REMARK    1  A    between atoms: C_1  and  O_2
REMARK    2  A    between atoms: O_2  and  C_3
REMARK    3  A    between atoms: C_6  and  C_7
REMARK    4  A    between atoms: C_8  and  N_9
REMARK    5  A    between atoms: C_8  and  C_12
REMARK    6  A    between atoms: C_12  and  N_21
REMARK    7  A    between atoms: C_13  and  C_14
REMARK    8  A    between atoms: C_17  and  O_18
REMARK                            x       y       z     vdW  Elec       q    Type
REMARK                         _______ _______ _______ _____ _____    ______ ____
ROOT
ATOM      1  C   UNL     1       1.538   8.934  18.501  0.00  0.00    +0.000 C 
ATOM      2  C   UNL     1       1.880   8.205  19.578  0.00  0.00    +0.000 C 
ENDROOT
BRANCH   1   6
ATOM      3  C   UNL     1       0.028  12.953  18.555  0.00  0.00    +0.000 A 
ATOM      4  C   UNL     1      -0.854  11.865  18.529  0.00  0.00    +0.000 A 
ATOM      5  C   UNL     1      -0.374  10.547  18.543  0.00  0.00    +0.000 A 
ATOM      6  C   UNL     1       1.001  10.305  18.569  0.00  0.00    +0.000 A 
ATOM      7  C   UNL     1       1.881  11.386  18.611  0.00  0.00    +0.000 A 
ATOM      8  C   UNL     1       1.401  12.707  18.603  0.00  0.00    +0.000 A 
BRANCH   3  10
ATOM      9  C   UNL     1       0.253  15.302  18.783  0.00  0.00    +0.000 C 
ATOM     10  O   UNL     1      -0.568  14.178  18.490  0.00  0.00    +0.000 OA
ENDBRANCH   3  10
ENDBRANCH   1   6
BRANCH   2  11
ATOM     11  N   UNL     1       1.781   8.734  20.858  0.00  0.00    +0.000 N 
ATOM     12  C   UNL     1       0.627   8.582  21.601  0.00  0.00    +0.000 C 
ATOM     13  O   UNL     1      -0.437   8.108  21.221  0.00  0.00    +0.000 OA
ATOM     14  H   UNL     1       2.610   8.623  21.430  0.00  0.00    +0.000 HD
ENDBRANCH   2  11
BRANCH   2  15
ATOM     15  C   UNL     1       2.407   6.840  19.474  0.00  0.00    +0.000 C 
ATOM     16  C   UNL     1       2.601   6.240  18.285  0.00  0.00    +0.000 C 
BRANCH  16  17
ATOM     17  C   UNL     1       2.974   4.836  18.063  0.00  0.00    +0.000 A 
ATOM     18  C   UNL     1       4.291   4.421  18.310  0.00  0.00    +0.000 A 
ATOM     19  C   UNL     1       4.642   3.069  18.205  0.00  0.00    +0.000 A 
ATOM     20  C   UNL     1       3.671   2.138  17.851  0.00  0.00    +0.000 A 
ATOM     21  C   UNL     1       2.369   2.541  17.572  0.00  0.00    +0.000 A 
ATOM     22  C   UNL     1       2.019   3.893  17.677  0.00  0.00    +0.000 A 
BRANCH  20  23
ATOM     23  O   UNL     1       3.956   0.807  17.775  0.00  0.00    +0.000 OA
ATOM     24  H   UNL     1       4.213   0.596  16.863  0.00  0.00    +0.000 HD
ENDBRANCH  20  23
ENDBRANCH  16  17
BRANCH  15  25
ATOM     25  N   UNL     1       2.624   6.180  20.674  0.00  0.00    +0.000 N 
ATOM     26  C   UNL     1       1.763   5.173  21.085  0.00  0.00    +0.000 C 
ATOM     27  O   UNL     1       0.722   4.823  20.545  0.00  0.00    +0.000 OA
ATOM     28  H   UNL     1       3.585   5.897  20.833  0.00  0.00    +0.000 HD
ENDBRANCH  15  25
ENDBRANCH   2  15
TORSDOF 7
ENDMDL
MODEL 8
REMARK VINA RESULT:      -6.2      2.452      3.235
REMARK  Name = 
REMARK  8 active torsions:
REMARK  status: ('A' for Active; 'I' for Inactive)
REMARK    1  A    between atoms: C_1  and  O_2
REMARK    2  A    between atoms: O_2  and  C_3
REMARK    3  A    between atoms: C_6  and  C_7
REMARK    4  A    between atoms: C_8  and  N_9
REMARK    5  A    between atoms: C_8  and  C_12
REMARK    6  A    between atoms: C_12  and  N_21
REMARK    7  A    between atoms: C_13  and  C_14
REMARK    8  A    between atoms: C_17  and  O_18
REMARK                            x       y       z     vdW  Elec       q    Type
REMARK                         _______ _______ _______ _____ _____    ______ ____
ROOT
ATOM      1  C   UNL     1       2.350   7.539  18.149  0.00  0.00    +0.000 C 
ATOM      2  C   UNL     1       2.003   7.737  19.433  0.00  0.00    +0.000 C 
ENDROOT
BRANCH   1   6
ATOM      3  C   UNL     1       5.213   4.671  16.734  0.00  0.00    +0.000 A 
ATOM      4  C   UNL     1       5.554   6.027  16.822  0.00  0.00    +0.000 A 
ATOM      5  C   UNL     1       4.638   6.969  17.313  0.00  0.00    +0.000 A 
ATOM      6  C   UNL     1       3.361   6.563  17.708  0.00  0.00    +0.000 A 
ATOM      7  C   UNL     1       3.026   5.212  17.636  0.00  0.00    +0.000 A 
ATOM      8  C   UNL     1       3.945   4.265  17.150  0.00  0.00    +0.000 A 
BRANCH   3  10
ATOM      9  C   UNL     1       6.419   4.010  14.801  0.00  0.00    +0.000 C 
ATOM     10  O   UNL     1       6.178   3.870  16.197  0.00  0.00    +0.000 OA
ENDBRANCH   3  10
ENDBRANCH   1   6
BRANCH   2  11
ATOM     11  N   UNL     1       2.569   6.978  20.449  0.00  0.00    +0.000 N 
ATOM     12  C   UNL     1       2.012   5.772  20.828  0.00  0.00    +0.000 C 
ATOM     13  O   UNL     1       0.951   5.297  20.442  0.00  0.00    +0.000 OA
ATOM     14  H   UNL     1       3.582   6.933  20.433  0.00  0.00    +0.000 HD
ENDBRANCH   2  11
BRANCH   2  15
ATOM     15  C   UNL     1       0.995   8.722  19.838  0.00  0.00    +0.000 C 
ATOM     16  C   UNL     1       0.785   9.854  19.142  0.00  0.00    +0.000 C 
BRANCH  16  17
ATOM     17  C   UNL     1      -0.080  10.976  19.533  0.00  0.00    +0.000 A 
ATOM     18  C   UNL     1       0.466  12.059  20.238  0.00  0.00    +0.000 A 
ATOM     19  C   UNL     1      -0.316  13.184  20.530  0.00  0.00    +0.000 A 
ATOM     20  C   UNL     1      -1.643  13.218  20.114  0.00  0.00    +0.000 A 
ATOM     21  C   UNL     1      -2.205  12.137  19.441  0.00  0.00    +0.000 A 
ATOM     22  C   UNL     1      -1.422  11.013  19.151  0.00  0.00    +0.000 A 
BRANCH  20  23
ATOM     23  O   UNL     1      -2.431  14.308  20.339  0.00  0.00    +0.000 OA
ATOM     24  H   UNL     1      -2.186  14.697  21.195  0.00  0.00    +0.000 HD
ENDBRANCH  20  23
ENDBRANCH  16  17
BRANCH  15  25
ATOM     25  N   UNL     1       0.323   8.453  21.022  0.00  0.00    +0.000 N 
ATOM     26  C   UNL     1       0.798   8.952  22.226  0.00  0.00    +0.000 C 
ATOM     27  O   UNL     1       1.843   9.561  22.415  0.00  0.00    +0.000 OA
ATOM     28  H   UNL     1      -0.683   8.573  20.973  0.00  0.00    +0.000 HD
ENDBRANCH  15  25
ENDBRANCH   2  15
TORSDOF 7
ENDMDL
MODEL 9
REMARK VINA RESULT:      -6.1      3.709      8.979
REMARK  Name = 
REMARK  8 active torsions:
REMARK  status: ('A' for Active; 'I' for Inactive)
REMARK    1  A    between atoms: C_1  and  O_2
REMARK    2  A    between atoms: O_2  and  C_3
REMARK    3  A    between atoms: C_6  and  C_7
REMARK    4  A    between atoms: C_8  and  N_9
REMARK    5  A    between atoms: C_8  and  C_12
REMARK    6  A    between atoms: C_12  and  N_21
REMARK    7  A    between atoms: C_13  and  C_14
REMARK    8  A    between atoms: C_17  and  O_18
REMARK                            x       y       z     vdW  Elec       q    Type
REMARK                         _______ _______ _______ _____ _____    ______ ____
ROOT
ATOM      1  C   UNL     1       3.584   7.009  17.607  0.00  0.00    +0.000 C 
ATOM      2  C   UNL     1       3.893   5.701  17.640  0.00  0.00    +0.000 C 
ENDROOT
BRANCH   1   6
ATOM      3  C   UNL     1       0.932   8.940  20.376  0.00  0.00    +0.000 A 
ATOM      4  C   UNL     1       1.103   9.454  19.084  0.00  0.00    +0.000 A 
ATOM      5  C   UNL     1       1.943   8.814  18.160  0.00  0.00    +0.000 A 
ATOM      6  C   UNL     1       2.633   7.657  18.526  0.00  0.00    +0.000 A 
ATOM      7  C   UNL     1       2.451   7.134  19.806  0.00  0.00    +0.000 A 
ATOM      8  C   UNL     1       1.606   7.771  20.732  0.00  0.00    +0.000 A 
BRANCH   3  10
ATOM      9  C   UNL     1       0.325   9.537  22.589  0.00  0.00    +0.000 C 
ATOM     10  O   UNL     1       0.126   9.683  21.188  0.00  0.00    +0.000 OA
ENDBRANCH   3  10
ENDBRANCH   1   6
BRANCH   2  11
ATOM     11  N   UNL     1       3.344   4.864  18.603  0.00  0.00    +0.000 N 
ATOM     12  C   UNL     1       2.307   4.007  18.289  0.00  0.00    +0.000 C 
ATOM     13  O   UNL     1       1.686   3.956  17.235  0.00  0.00    +0.000 OA
ATOM     14  H   UNL     1       4.018   4.424  19.219  0.00  0.00    +0.000 HD
ENDBRANCH   2  11
BRANCH   2  15
ATOM     15  C   UNL     1       4.841   5.087  16.705  0.00  0.00    +0.000 C 
ATOM     16  C   UNL     1       4.840   5.384  15.392  0.00  0.00    +0.000 C 
BRANCH  16  17
ATOM     17  C   UNL     1       5.631   4.724  14.344  0.00  0.00    +0.000 A 
ATOM     18  C   UNL     1       5.029   3.757  13.526  0.00  0.00    +0.000 A 
ATOM     19  C   UNL     1       5.734   3.192  12.456  0.00  0.00    +0.000 A 
ATOM     20  C   UNL     1       7.042   3.598  12.211  0.00  0.00    +0.000 A 
ATOM     21  C   UNL     1       7.661   4.533  13.034  0.00  0.00    +0.000 A 
ATOM     22  C   UNL     1       6.955   5.097  14.104  0.00  0.00    +0.000 A 
BRANCH  20  23
ATOM     23  O   UNL     1       7.754   3.106  11.158  0.00  0.00    +0.000 OA
ATOM     24  H   UNL     1       7.710   2.136  11.179  0.00  0.00    +0.000 HD
ENDBRANCH  20  23
ENDBRANCH  16  17
BRANCH  15  25
ATOM     25  N   UNL     1       5.690   4.130  17.240  0.00  0.00    +0.000 N 
ATOM     26  C   UNL     1       6.912   4.501  17.781  0.00  0.00    +0.000 C 
ATOM     27  O   UNL     1       7.419   5.615  17.772  0.00  0.00    +0.000 OA
ATOM     28  H   UNL     1       5.236   3.455  17.847  0.00  0.00    +0.000 HD
ENDBRANCH  15  25
ENDBRANCH   2  15
TORSDOF 7
ENDMDL
