MODEL 1
REMARK VINA RESULT:      -8.7      0.000      0.000
REMARK  Name = 
REMARK  8 active torsions:
REMARK  status: ('A' for Active; 'I' for Inactive)
REMARK    1  A    between atoms: C_1  and  C_2
REMARK    2  A    between atoms: C_2  and  C_3
REMARK    3  A    between atoms: N_5  and  C_6
REMARK    4  A    between atoms: C_9  and  C_10
REMARK    5  A    between atoms: C_10  and  C_12
REMARK    6  A    between atoms: C_19  and  N_20
REMARK    7  A    between atoms: C_21  and  C_22
REMARK    8  A    between atoms: C_21  and  C_23
REMARK                            x       y       z     vdW  Elec       q    Type
REMARK                         _______ _______ _______ _____ _____    ______ ____
ROOT
ATOM      1  C   UNL     1       0.358  11.243  20.943  0.00  0.00    +0.000 C 
ATOM      2  O   UNL     1       1.500  11.652  21.147  0.00  0.00    +0.000 OA
ATOM      3  N   UNL     1       0.060  10.026  20.339  0.00  0.00    +0.000 N 
ATOM      4  H   UNL     1      -0.894   9.703  20.358  0.00  0.00    +0.000 HD
ENDROOT
BRANCH   3   5
ATOM      5  C   UNL     1       0.999   9.083  19.825  0.00  0.00    +0.000 A 
ATOM      6  C   UNL     1       1.430   7.969  20.559  0.00  0.00    +0.000 A 
ATOM      7  C   UNL     1       2.272   7.006  19.995  0.00  0.00    +0.000 A 
ATOM      8  C   UNL     1       2.689   7.131  18.672  0.00  0.00    +0.000 A 
ATOM      9  C   UNL     1       2.323   8.270  17.944  0.00  0.00    +0.000 A 
ATOM     10  C   UNL     1       1.519   9.272  18.516  0.00  0.00    +0.000 A 
BRANCH  10  11
ATOM     11  N   UNL     1       1.090  10.338  17.693  0.00  0.00    +0.000 N 
ATOM     12  H   UNL     1       1.601  11.202  17.859  0.00  0.00    +0.000 HD
ATOM     13  H   UNL     1       0.091  10.504  17.742  0.00  0.00    +0.000 HD
ENDBRANCH  10  11
BRANCH   8  14
ATOM     14  C   UNL     1       3.520   6.043  18.082  0.00  0.00    +0.000 C 
ATOM     15  O   UNL     1       2.966   5.095  17.535  0.00  0.00    +0.000 OA
BRANCH  14  16
ATOM     16  C   UNL     1       5.006   6.091  18.152  0.00  0.00    +0.000 A 
ATOM     17  C   UNL     1       5.759   6.804  17.209  0.00  0.00    +0.000 A 
ATOM     18  C   UNL     1       7.147   6.882  17.337  0.00  0.00    +0.000 A 
ATOM     19  C   UNL     1       7.790   6.225  18.385  0.00  0.00    +0.000 A 
ATOM     20  C   UNL     1       7.051   5.471  19.295  0.00  0.00    +0.000 A 
ATOM     21  C   UNL     1       5.660   5.397  19.176  0.00  0.00    +0.000 A 
ENDBRANCH  14  16
ENDBRANCH   8  14
ENDBRANCH   3   5
BRANCH   1  23
ATOM     22  C   UNL     1      -1.243  13.236  20.589  0.00  0.00    +0.000 C 
ATOM     23  C   UNL     1      -0.820  12.064  21.450  0.00  0.00    +0.000 C 
ATOM     24  C   UNL     1      -1.524  11.661  22.556  0.00  0.00    +0.000 C 
ATOM     25  C   UNL     1      -1.142  10.444  23.395  0.00  0.00    +0.000 C 
BRANCH  24  26
ATOM     26  C   UNL     1      -2.637  12.470  23.002  0.00  0.00    +0.000 A 
ATOM     27  N   UNL     1      -3.930  12.382  22.750  0.00  0.00    +0.000 NA
ATOM     28  C   UNL     1      -4.494  13.541  23.222  0.00  0.00    +0.000 A 
ATOM     29  C   UNL     1      -5.818  13.993  23.129  0.00  0.00    +0.000 A 
ATOM     30  C   UNL     1      -6.136  15.258  23.637  0.00  0.00    +0.000 A 
ATOM     31  C   UNL     1      -5.158  16.051  24.245  0.00  0.00    +0.000 A 
ATOM     32  C   UNL     1      -3.835  15.604  24.368  0.00  0.00    +0.000 A 
ATOM     33  C   UNL     1      -3.545  14.344  23.835  0.00  0.00    +0.000 A 
ATOM     34  N   UNL     1      -2.386  13.612  23.740  0.00  0.00    +0.000 N 
ATOM     35  H   UNL     1      -1.482  13.907  24.080  0.00  0.00    +0.000 HD
ENDBRANCH  24  26
ENDBRANCH   1  23
TORSDOF 6
ENDMDL
MODEL 2
REMARK VINA RESULT:      -8.7      1.372      2.095
REMARK  Name = 
REMARK  8 active torsions:
REMARK  status: ('A' for Active; 'I' for Inactive)
REMARK    1  A    between atoms: C_1  and  C_2
REMARK    2  A    between atoms: C_2  and  C_3
REMARK    3  A    between atoms: N_5  and  C_6
REMARK    4  A    between atoms: C_9  and  C_10
REMARK    5  A    between atoms: C_10  and  C_12
REMARK    6  A    between atoms: C_19  and  N_20
REMARK    7  A    between atoms: C_21  and  C_22
REMARK    8  A    between atoms: C_21  and  C_23
REMARK                            x       y       z     vdW  Elec       q    Type
REMARK                         _______ _______ _______ _____ _____    ______ ____
ROOT
ATOM      1  C   UNL     1       0.432  11.191  20.898  0.00  0.00    +0.000 C 
ATOM      2  O   UNL     1       1.569  11.568  21.180  0.00  0.00    +0.000 OA
ATOM      3  N   UNL     1       0.147  10.015  20.213  0.00  0.00    +0.000 N 
ATOM      4  H   UNL     1      -0.812   9.708  20.168  0.00  0.00    +0.000 HD
ENDROOT
BRANCH   3   5
ATOM      5  C   UNL     1       1.095   9.085  19.695  0.00  0.00    +0.000 A 
ATOM      6  C   UNL     1       1.484   7.932  20.392  0.00  0.00    +0.000 A 
ATOM      7  C   UNL     1       2.338   6.986  19.818  0.00  0.00    +0.000 A 
ATOM      8  C   UNL     1       2.810   7.167  18.520  0.00  0.00    +0.000 A 
ATOM      9  C   UNL     1       2.488   8.344  17.833  0.00  0.00    +0.000 A 
ATOM     10  C   UNL     1       1.671   9.328  18.418  0.00  0.00    +0.000 A 
BRANCH  10  11
ATOM     11  N   UNL     1       1.289  10.437  17.629  0.00  0.00    +0.000 N 
ATOM     12  H   UNL     1       1.841  10.534  16.780  0.00  0.00    +0.000 HD
ATOM     13  H   UNL     1       1.279  11.309  18.145  0.00  0.00    +0.000 HD
ENDBRANCH  10  11
BRANCH   8  14
ATOM     14  C   UNL     1       3.653   6.097  17.914  0.00  0.00    +0.000 C 
ATOM     15  O   UNL     1       4.572   6.411  17.165  0.00  0.00    +0.000 OA
BRANCH  14  16
ATOM     16  C   UNL     1       3.391   4.661  18.203  0.00  0.00    +0.000 A 
ATOM     17  C   UNL     1       2.294   3.991  17.644  0.00  0.00    +0.000 A 
ATOM     18  C   UNL     1       2.111   2.628  17.883  0.00  0.00    +0.000 A 
ATOM     19  C   UNL     1       3.001   1.936  18.703  0.00  0.00    +0.000 A 
ATOM     20  C   UNL     1       4.064   2.609  19.304  0.00  0.00    +0.000 A 
ATOM     21  C   UNL     1       4.256   3.972  19.060  0.00  0.00    +0.000 A 
ENDBRANCH  14  16
ENDBRANCH   8  14
ENDBRANCH   3   5
BRANCH   1  23
ATOM     22  C   UNL     1      -1.195  13.157  20.513  0.00  0.00    +0.000 C 
ATOM     23  C   UNL     1      -0.758  12.004  21.392  0.00  0.00    +0.000 C 
ATOM     24  C   UNL     1      -1.457  11.608  22.503  0.00  0.00    +0.000 C 
ATOM     25  C   UNL     1      -1.059  10.409  23.361  0.00  0.00    +0.000 C 
BRANCH  24  26
ATOM     26  C   UNL     1      -2.582  12.409  22.936  0.00  0.00    +0.000 A 
ATOM     27  N   UNL     1      -3.865  12.336  22.636  0.00  0.00    +0.000 NA
ATOM     28  C   UNL     1      -4.440  13.484  23.126  0.00  0.00    +0.000 A 
ATOM     29  C   UNL     1      -5.757  13.946  23.001  0.00  0.00    +0.000 A 
ATOM     30  C   UNL     1      -6.087  15.196  23.539  0.00  0.00    +0.000 A 
ATOM     31  C   UNL     1      -5.127  15.962  24.207  0.00  0.00    +0.000 A 
ATOM     32  C   UNL     1      -3.811  15.503  24.362  0.00  0.00    +0.000 A 
ATOM     33  C   UNL     1      -3.509  14.259  23.799  0.00  0.00    +0.000 A 
ATOM     34  N   UNL     1      -2.351  13.525  23.720  0.00  0.00    +0.000 N 
ATOM     35  H   UNL     1      -1.458  13.803  24.101  0.00  0.00    +0.000 HD
ENDBRANCH  24  26
ENDBRANCH   1  23
TORSDOF 6
ENDMDL
MODEL 3
REMARK VINA RESULT:      -8.6      1.713      2.798
REMARK  Name = 
REMARK  8 active torsions:
REMARK  status: ('A' for Active; 'I' for Inactive)
REMARK    1  A    between atoms: C_1  and  C_2
REMARK    2  A    between atoms: C_2  and  C_3
REMARK    3  A    between atoms: N_5  and  C_6
REMARK    4  A    between atoms: C_9  and  C_10
REMARK    5  A    between atoms: C_10  and  C_12
REMARK    6  A    between atoms: C_19  and  N_20
REMARK    7  A    between atoms: C_21  and  C_22
REMARK    8  A    between atoms: C_21  and  C_23
REMARK                            x       y       z     vdW  Elec       q    Type
REMARK                         _______ _______ _______ _____ _____    ______ ____
ROOT
ATOM      1  C   UNL     1      -0.238  11.142  21.248  0.00  0.00    +0.000 C 
ATOM      2  O   UNL     1       0.854  11.637  21.523  0.00  0.00    +0.000 OA
ATOM      3  N   UNL     1      -0.405   9.973  20.514  0.00  0.00    +0.000 N 
ATOM      4  H   UNL     1      -1.322   9.558  20.475  0.00  0.00    +0.000 HD
ENDROOT
BRANCH   3   5
ATOM      5  C   UNL     1       0.630   9.185  19.930  0.00  0.00    +0.000 A 
ATOM      6  C   UNL     1       1.268   8.144  20.618  0.00  0.00    +0.000 A 
ATOM      7  C   UNL     1       2.208   7.321  19.989  0.00  0.00    +0.000 A 
ATOM      8  C   UNL     1       2.519   7.517  18.646  0.00  0.00    +0.000 A 
ATOM      9  C   UNL     1       1.944   8.594  17.960  0.00  0.00    +0.000 A 
ATOM     10  C   UNL     1       1.035   9.459  18.595  0.00  0.00    +0.000 A 
BRANCH  10  11
ATOM     11  N   UNL     1       0.402  10.455  17.816  0.00  0.00    +0.000 N 
ATOM     12  H   UNL     1      -0.067  10.082  16.994  0.00  0.00    +0.000 HD
ATOM     13  H   UNL     1       1.024  11.211  17.554  0.00  0.00    +0.000 HD
ENDBRANCH  10  11
BRANCH   8  14
ATOM     14  C   UNL     1       3.466   6.570  17.990  0.00  0.00    +0.000 C 
ATOM     15  O   UNL     1       4.504   7.003  17.501  0.00  0.00    +0.000 OA
BRANCH  14  16
ATOM     16  C   UNL     1       3.165   5.114  17.918  0.00  0.00    +0.000 A 
ATOM     17  C   UNL     1       4.188   4.160  17.838  0.00  0.00    +0.000 A 
ATOM     18  C   UNL     1       3.877   2.799  17.835  0.00  0.00    +0.000 A 
ATOM     19  C   UNL     1       2.547   2.386  17.881  0.00  0.00    +0.000 A 
ATOM     20  C   UNL     1       1.522   3.332  17.907  0.00  0.00    +0.000 A 
ATOM     21  C   UNL     1       1.830   4.696  17.919  0.00  0.00    +0.000 A 
ENDBRANCH  14  16
ENDBRANCH   8  14
ENDBRANCH   3   5
BRANCH   1  23
ATOM     22  C   UNL     1      -1.690  11.704  23.307  0.00  0.00    +0.000 C 
ATOM     23  C   UNL     1      -1.501  11.787  21.807  0.00  0.00    +0.000 C 
ATOM     24  C   UNL     1      -2.331  12.512  20.992  0.00  0.00    +0.000 C 
ATOM     25  C   UNL     1      -2.113  12.653  19.487  0.00  0.00    +0.000 C 
BRANCH  24  26
ATOM     26  C   UNL     1      -3.517  13.110  21.565  0.00  0.00    +0.000 A 
ATOM     27  N   UNL     1      -3.715  14.295  22.111  0.00  0.00    +0.000 NA
ATOM     28  C   UNL     1      -4.950  14.242  22.708  0.00  0.00    +0.000 A 
ATOM     29  C   UNL     1      -5.602  15.199  23.498  0.00  0.00    +0.000 A 
ATOM     30  C   UNL     1      -6.846  14.879  24.056  0.00  0.00    +0.000 A 
ATOM     31  C   UNL     1      -7.439  13.637  23.813  0.00  0.00    +0.000 A 
ATOM     32  C   UNL     1      -6.812  12.678  23.005  0.00  0.00    +0.000 A 
ATOM     33  C   UNL     1      -5.563  13.020  22.477  0.00  0.00    +0.000 A 
ATOM     34  N   UNL     1      -4.660  12.342  21.695  0.00  0.00    +0.000 N 
ATOM     35  H   UNL     1      -4.783  11.403  21.347  0.00  0.00    +0.000 HD
ENDBRANCH  24  26
ENDBRANCH   1  23
TORSDOF 6
ENDMDL
MODEL 4
REMARK VINA RESULT:      -8.6      1.985      3.044
REMARK  Name = 
REMARK  8 active torsions:
REMARK  status: ('A' for Active; 'I' for Inactive)
REMARK    1  A    between atoms: C_1  and  C_2
REMARK    2  A    between atoms: C_2  and  C_3
REMARK    3  A    between atoms: N_5  and  C_6
REMARK    4  A    between atoms: C_9  and  C_10
REMARK    5  A    between atoms: C_10  and  C_12
REMARK    6  A    between atoms: C_19  and  N_20
REMARK    7  A    between atoms: C_21  and  C_22
REMARK    8  A    between atoms: C_21  and  C_23
REMARK                            x       y       z     vdW  Elec       q    Type
REMARK                         _______ _______ _______ _____ _____    ______ ____
ROOT
ATOM      1  C   UNL     1      -0.248  10.564  19.954  0.00  0.00    +0.000 C 
ATOM      2  O   UNL     1      -1.098  10.021  19.249  0.00  0.00    +0.000 OA
ATOM      3  N   UNL     1       1.075  10.146  20.044  0.00  0.00    +0.000 N 
ATOM      4  H   UNL     1       1.734  10.743  20.519  0.00  0.00    +0.000 HD
ENDROOT
BRANCH   3   5
ATOM      5  C   UNL     1       1.655   9.022  19.386  0.00  0.00    +0.000 A 
ATOM      6  C   UNL     1       2.047   9.052  18.041  0.00  0.00    +0.000 A 
ATOM      7  C   UNL     1       2.705   7.971  17.448  0.00  0.00    +0.000 A 
ATOM      8  C   UNL     1       3.000   6.836  18.200  0.00  0.00    +0.000 A 
ATOM      9  C   UNL     1       2.558   6.759  19.526  0.00  0.00    +0.000 A 
ATOM     10  C   UNL     1       1.850   7.819  20.119  0.00  0.00    +0.000 A 
BRANCH  10  11
ATOM     11  N   UNL     1       1.533   7.728  21.494  0.00  0.00    +0.000 N 
ATOM     12  H   UNL     1       0.627   8.131  21.724  0.00  0.00    +0.000 HD
ATOM     13  H   UNL     1       2.252   8.112  22.095  0.00  0.00    +0.000 HD
ENDBRANCH  10  11
BRANCH   8  14
ATOM     14  C   UNL     1       3.774   5.737  17.555  0.00  0.00    +0.000 C 
ATOM     15  O   UNL     1       4.598   6.012  16.689  0.00  0.00    +0.000 OA
BRANCH  14  16
ATOM     16  C   UNL     1       3.559   4.317  17.945  0.00  0.00    +0.000 A 
ATOM     17  C   UNL     1       2.540   3.547  17.368  0.00  0.00    +0.000 A 
ATOM     18  C   UNL     1       2.402   2.200  17.708  0.00  0.00    +0.000 A 
ATOM     19  C   UNL     1       3.258   1.626  18.647  0.00  0.00    +0.000 A 
ATOM     20  C   UNL     1       4.239   2.400  19.264  0.00  0.00    +0.000 A 
ATOM     21  C   UNL     1       4.387   3.747  18.919  0.00  0.00    +0.000 A 
ENDBRANCH  14  16
ENDBRANCH   8  14
ENDBRANCH   3   5
BRANCH   1  23
ATOM     22  C   UNL     1      -0.835  13.077  19.897  0.00  0.00    +0.000 C 
ATOM     23  C   UNL     1      -0.624  11.825  20.723  0.00  0.00    +0.000 C 
ATOM     24  C   UNL     1      -0.883  11.768  22.068  0.00  0.00    +0.000 C 
ATOM     25  C   UNL     1      -0.734  10.495  22.897  0.00  0.00    +0.000 C 
BRANCH  24  26
ATOM     26  C   UNL     1      -1.239  12.989  22.758  0.00  0.00    +0.000 A 
ATOM     27  N   UNL     1      -0.509  13.829  23.467  0.00  0.00    +0.000 NA
ATOM     28  C   UNL     1      -1.393  14.673  24.093  0.00  0.00    +0.000 A 
ATOM     29  C   UNL     1      -1.148  15.688  25.029  0.00  0.00    +0.000 A 
ATOM     30  C   UNL     1      -2.238  16.373  25.580  0.00  0.00    +0.000 A 
ATOM     31  C   UNL     1      -3.545  16.067  25.191  0.00  0.00    +0.000 A 
ATOM     32  C   UNL     1      -3.805  15.072  24.239  0.00  0.00    +0.000 A 
ATOM     33  C   UNL     1      -2.698  14.393  23.720  0.00  0.00    +0.000 A 
ATOM     34  N   UNL     1      -2.569  13.362  22.822  0.00  0.00    +0.000 N 
ATOM     35  H   UNL     1      -3.334  12.900  22.353  0.00  0.00    +0.000 HD
ENDBRANCH  24  26
ENDBRANCH   1  23
TORSDOF 6
ENDMDL
MODEL 5
REMARK VINA RESULT:      -8.6      1.554      2.083
REMARK  Name = 
REMARK  8 active torsions:
REMARK  status: ('A' for Active; 'I' for Inactive)
REMARK    1  A    between atoms: C_1  and  C_2
REMARK    2  A    between atoms: C_2  and  C_3
REMARK    3  A    between atoms: N_5  and  C_6
REMARK    4  A    between atoms: C_9  and  C_10
REMARK    5  A    between atoms: C_10  and  C_12
REMARK    6  A    between atoms: C_19  and  N_20
REMARK    7  A    between atoms: C_21  and  C_22
REMARK    8  A    between atoms: C_21  and  C_23
REMARK                            x       y       z     vdW  Elec       q    Type
REMARK                         _______ _______ _______ _____ _____    ______ ____
ROOT
ATOM      1  C   UNL     1      -0.226  10.407  20.148  0.00  0.00    +0.000 C 
ATOM      2  O   UNL     1      -1.028   9.922  19.351  0.00  0.00    +0.000 OA
ATOM      3  N   UNL     1       1.046   9.898  20.384  0.00  0.00    +0.000 N 
ATOM      4  H   UNL     1       1.688  10.450  20.931  0.00  0.00    +0.000 HD
ENDROOT
BRANCH   3   5
ATOM      5  C   UNL     1       1.616   8.733  19.792  0.00  0.00    +0.000 A 
ATOM      6  C   UNL     1       1.784   7.532  20.496  0.00  0.00    +0.000 A 
ATOM      7  C   UNL     1       2.251   6.376  19.863  0.00  0.00    +0.000 A 
ATOM      8  C   UNL     1       2.546   6.394  18.502  0.00  0.00    +0.000 A 
ATOM      9  C   UNL     1       2.448   7.600  17.797  0.00  0.00    +0.000 A 
ATOM     10  C   UNL     1       2.029   8.783  18.433  0.00  0.00    +0.000 A 
BRANCH  10  11
ATOM     11  N   UNL     1       1.840   9.938  17.641  0.00  0.00    +0.000 N 
ATOM     12  H   UNL     1       2.530  10.664  17.822  0.00  0.00    +0.000 HD
ATOM     13  H   UNL     1       0.903  10.319  17.706  0.00  0.00    +0.000 HD
ENDBRANCH  10  11
BRANCH   8  14
ATOM     14  C   UNL     1       2.963   5.122  17.847  0.00  0.00    +0.000 C 
ATOM     15  O   UNL     1       2.121   4.259  17.622  0.00  0.00    +0.000 OA
BRANCH  14  16
ATOM     16  C   UNL     1       4.384   4.885  17.469  0.00  0.00    +0.000 A 
ATOM     17  C   UNL     1       4.723   4.204  16.292  0.00  0.00    +0.000 A 
ATOM     18  C   UNL     1       6.063   4.053  15.932  0.00  0.00    +0.000 A 
ATOM     19  C   UNL     1       7.068   4.552  16.759  0.00  0.00    +0.000 A 
ATOM     20  C   UNL     1       6.739   5.184  17.957  0.00  0.00    +0.000 A 
ATOM     21  C   UNL     1       5.397   5.345  18.317  0.00  0.00    +0.000 A 
ENDBRANCH  14  16
ENDBRANCH   8  14
ENDBRANCH   3   5
BRANCH   1  23
ATOM     22  C   UNL     1      -0.701  12.941  20.020  0.00  0.00    +0.000 C 
ATOM     23  C   UNL     1      -0.597  11.695  20.874  0.00  0.00    +0.000 C 
ATOM     24  C   UNL     1      -0.944  11.670  22.200  0.00  0.00    +0.000 C 
ATOM     25  C   UNL     1      -0.902  10.405  23.054  0.00  0.00    +0.000 C 
BRANCH  24  26
ATOM     26  C   UNL     1      -1.291  12.916  22.849  0.00  0.00    +0.000 A 
ATOM     27  N   UNL     1      -0.558  13.766  23.543  0.00  0.00    +0.000 NA
ATOM     28  C   UNL     1      -1.437  14.640  24.133  0.00  0.00    +0.000 A 
ATOM     29  C   UNL     1      -1.191  15.678  25.042  0.00  0.00    +0.000 A 
ATOM     30  C   UNL     1      -2.277  16.395  25.557  0.00  0.00    +0.000 A 
ATOM     31  C   UNL     1      -3.584  16.097  25.159  0.00  0.00    +0.000 A 
ATOM     32  C   UNL     1      -3.846  15.078  24.233  0.00  0.00    +0.000 A 
ATOM     33  C   UNL     1      -2.742  14.369  23.749  0.00  0.00    +0.000 A 
ATOM     34  N   UNL     1      -2.616  13.310  22.883  0.00  0.00    +0.000 N 
ATOM     35  H   UNL     1      -3.381  12.845  22.418  0.00  0.00    +0.000 HD
ENDBRANCH  24  26
ENDBRANCH   1  23
TORSDOF 6
ENDMDL
MODEL 6
REMARK VINA RESULT:      -8.5      1.617      2.711
REMARK  Name = 
REMARK  8 active torsions:
REMARK  status: ('A' for Active; 'I' for Inactive)
REMARK    1  A    between atoms: C_1  and  C_2
REMARK    2  A    between atoms: C_2  and  C_3
REMARK    3  A    between atoms: N_5  and  C_6
REMARK    4  A    between atoms: C_9  and  C_10
REMARK    5  A    between atoms: C_10  and  C_12
REMARK    6  A    between atoms: C_19  and  N_20
REMARK    7  A    between atoms: C_21  and  C_22
REMARK    8  A    between atoms: C_21  and  C_23
REMARK                            x       y       z     vdW  Elec       q    Type
REMARK                         _______ _______ _______ _____ _____    ______ ____
ROOT
ATOM      1  C   UNL     1       0.180  11.441  20.891  0.00  0.00    +0.000 C 
ATOM      2  O   UNL     1       1.291  11.766  21.308  0.00  0.00    +0.000 OA
ATOM      3  N   UNL     1      -0.088  10.249  20.228  0.00  0.00    +0.000 N 
ATOM      4  H   UNL     1      -1.051   9.997  20.066  0.00  0.00    +0.000 HD
ENDROOT
BRANCH   3   5
ATOM      5  C   UNL     1       0.857   9.238  19.886  0.00  0.00    +0.000 A 
ATOM      6  C   UNL     1       1.183   8.184  20.751  0.00  0.00    +0.000 A 
ATOM      7  C   UNL     1       2.037   7.151  20.352  0.00  0.00    +0.000 A 
ATOM      8  C   UNL     1       2.573   7.144  19.067  0.00  0.00    +0.000 A 
ATOM      9  C   UNL     1       2.313   8.222  18.212  0.00  0.00    +0.000 A 
ATOM     10  C   UNL     1       1.497   9.293  18.618  0.00  0.00    +0.000 A 
BRANCH  10  11
ATOM     11  N   UNL     1       1.181  10.292  17.669  0.00  0.00    +0.000 N 
ATOM     12  H   UNL     1       1.301  11.237  18.027  0.00  0.00    +0.000 HD
ATOM     13  H   UNL     1       0.256  10.182  17.268  0.00  0.00    +0.000 HD
ENDBRANCH  10  11
BRANCH   8  14
ATOM     14  C   UNL     1       3.413   5.985  18.653  0.00  0.00    +0.000 C 
ATOM     15  O   UNL     1       4.520   6.190  18.167  0.00  0.00    +0.000 OA
BRANCH  14  16
ATOM     16  C   UNL     1       2.926   4.588  18.817  0.00  0.00    +0.000 A 
ATOM     17  C   UNL     1       3.652   3.642  19.554  0.00  0.00    +0.000 A 
ATOM     18  C   UNL     1       3.139   2.358  19.744  0.00  0.00    +0.000 A 
ATOM     19  C   UNL     1       1.917   2.003  19.174  0.00  0.00    +0.000 A 
ATOM     20  C   UNL     1       1.216   2.923  18.396  0.00  0.00    +0.000 A 
ATOM     21  C   UNL     1       1.722   4.213  18.211  0.00  0.00    +0.000 A 
ENDBRANCH  14  16
ENDBRANCH   8  14
ENDBRANCH   3   5
BRANCH   1  23
ATOM     22  C   UNL     1      -1.339  13.382  20.124  0.00  0.00    +0.000 C 
ATOM     23  C   UNL     1      -1.009  12.349  21.181  0.00  0.00    +0.000 C 
ATOM     24  C   UNL     1      -1.799  12.131  22.279  0.00  0.00    +0.000 C 
ATOM     25  C   UNL     1      -1.509  11.050  23.319  0.00  0.00    +0.000 C 
BRANCH  24  26
ATOM     26  C   UNL     1      -2.919  13.015  22.515  0.00  0.00    +0.000 A 
ATOM     27  N   UNL     1      -2.962  14.277  22.899  0.00  0.00    +0.000 NA
ATOM     28  C   UNL     1      -4.275  14.543  23.202  0.00  0.00    +0.000 A 
ATOM     29  C   UNL     1      -4.850  15.703  23.740  0.00  0.00    +0.000 A 
ATOM     30  C   UNL     1      -6.221  15.704  24.026  0.00  0.00    +0.000 A 
ATOM     31  C   UNL     1      -7.007  14.579  23.763  0.00  0.00    +0.000 A 
ATOM     32  C   UNL     1      -6.453  13.420  23.203  0.00  0.00    +0.000 A 
ATOM     33  C   UNL     1      -5.078  13.443  22.945  0.00  0.00    +0.000 A 
ATOM     34  N   UNL     1      -4.203  12.507  22.448  0.00  0.00    +0.000 N 
ATOM     35  H   UNL     1      -4.453  11.571  22.163  0.00  0.00    +0.000 HD
ENDBRANCH  24  26
ENDBRANCH   1  23
TORSDOF 6
ENDMDL
MODEL 7
REMARK VINA RESULT:      -8.5      0.804      1.704
REMARK  Name = 
REMARK  8 active torsions:
REMARK  status: ('A' for Active; 'I' for Inactive)
REMARK    1  A    between atoms: C_1  and  C_2
REMARK    2  A    between atoms: C_2  and  C_3
REMARK    3  A    between atoms: N_5  and  C_6
REMARK    4  A    between atoms: C_9  and  C_10
REMARK    5  A    between atoms: C_10  and  C_12
REMARK    6  A    between atoms: C_19  and  N_20
REMARK    7  A    between atoms: C_21  and  C_22
REMARK    8  A    between atoms: C_21  and  C_23
REMARK                            x       y       z     vdW  Elec       q    Type
REMARK                         _______ _______ _______ _____ _____    ______ ____
ROOT
ATOM      1  C   UNL     1       0.201  10.816  21.205  0.00  0.00    +0.000 C 
ATOM      2  O   UNL     1       1.314  11.194  21.569  0.00  0.00    +0.000 OA
ATOM      3  N   UNL     1      -0.024   9.695  20.415  0.00  0.00    +0.000 N 
ATOM      4  H   UNL     1      -0.972   9.372  20.301  0.00  0.00    +0.000 HD
ENDROOT
BRANCH   3   5
ATOM      5  C   UNL     1       0.969   8.831  19.868  0.00  0.00    +0.000 A 
ATOM      6  C   UNL     1       1.480   7.728  20.565  0.00  0.00    +0.000 A 
ATOM      7  C   UNL     1       2.378   6.838  19.967  0.00  0.00    +0.000 A 
ATOM      8  C   UNL     1       2.773   7.028  18.645  0.00  0.00    +0.000 A 
ATOM      9  C   UNL     1       2.326   8.161  17.953  0.00  0.00    +0.000 A 
ATOM     10  C   UNL     1       1.463   9.091  18.560  0.00  0.00    +0.000 A 
BRANCH  10  11
ATOM     11  N   UNL     1       0.957  10.149  17.772  0.00  0.00    +0.000 N 
ATOM     12  H   UNL     1       0.901  11.032  18.275  0.00  0.00    +0.000 HD
ATOM     13  H   UNL     1       0.066   9.933  17.339  0.00  0.00    +0.000 HD
ENDBRANCH  10  11
BRANCH   8  14
ATOM     14  C   UNL     1       3.668   6.015  18.017  0.00  0.00    +0.000 C 
ATOM     15  O   UNL     1       3.173   5.077  17.401  0.00  0.00    +0.000 OA
BRANCH  14  16
ATOM     16  C   UNL     1       5.148   6.125  18.132  0.00  0.00    +0.000 A 
ATOM     17  C   UNL     1       5.894   6.908  17.240  0.00  0.00    +0.000 A 
ATOM     18  C   UNL     1       7.273   7.041  17.411  0.00  0.00    +0.000 A 
ATOM     19  C   UNL     1       7.916   6.371  18.450  0.00  0.00    +0.000 A 
ATOM     20  C   UNL     1       7.188   5.548  19.308  0.00  0.00    +0.000 A 
ATOM     21  C   UNL     1       5.805   5.419  19.146  0.00  0.00    +0.000 A 
ENDBRANCH  14  16
ENDBRANCH   8  14
ENDBRANCH   3   5
BRANCH   1  23
ATOM     22  C   UNL     1      -1.464  11.259  23.127  0.00  0.00    +0.000 C 
ATOM     23  C   UNL     1      -1.029  11.561  21.708  0.00  0.00    +0.000 C 
ATOM     24  C   UNL     1      -1.608  12.543  20.946  0.00  0.00    +0.000 C 
ATOM     25  C   UNL     1      -1.136  12.897  19.537  0.00  0.00    +0.000 C 
BRANCH  24  26
ATOM     26  C   UNL     1      -2.774  13.226  21.463  0.00  0.00    +0.000 A 
ATOM     27  N   UNL     1      -2.884  14.246  22.293  0.00  0.00    +0.000 NA
ATOM     28  C   UNL     1      -4.213  14.323  22.633  0.00  0.00    +0.000 A 
ATOM     29  C   UNL     1      -4.852  15.169  23.550  0.00  0.00    +0.000 A 
ATOM     30  C   UNL     1      -6.225  15.006  23.773  0.00  0.00    +0.000 A 
ATOM     31  C   UNL     1      -6.951  14.033  23.080  0.00  0.00    +0.000 A 
ATOM     32  C   UNL     1      -6.332  13.195  22.142  0.00  0.00    +0.000 A 
ATOM     33  C   UNL     1      -4.956  13.370  21.954  0.00  0.00    +0.000 A 
ATOM     34  N   UNL     1      -4.030  12.729  21.169  0.00  0.00    +0.000 N 
ATOM     35  H   UNL     1      -4.229  11.961  20.544  0.00  0.00    +0.000 HD
ENDBRANCH  24  26
ENDBRANCH   1  23
TORSDOF 6
ENDMDL
MODEL 8
REMARK VINA RESULT:      -8.4      1.575      2.438
REMARK  Name = 
REMARK  8 active torsions:
REMARK  status: ('A' for Active; 'I' for Inactive)
REMARK    1  A    between atoms: C_1  and  C_2
REMARK    2  A    between atoms: C_2  and  C_3
REMARK    3  A    between atoms: N_5  and  C_6
REMARK    4  A    between atoms: C_9  and  C_10
REMARK    5  A    between atoms: C_10  and  C_12
REMARK    6  A    between atoms: C_19  and  N_20
REMARK    7  A    between atoms: C_21  and  C_22
REMARK    8  A    between atoms: C_21  and  C_23
REMARK                            x       y       z     vdW  Elec       q    Type
REMARK                         _______ _______ _______ _____ _____    ______ ____
ROOT
ATOM      1  C   UNL     1      -0.083  11.016  21.299  0.00  0.00    +0.000 C 
ATOM      2  O   UNL     1       0.982  11.631  21.346  0.00  0.00    +0.000 OA
ATOM      3  N   UNL     1      -0.245   9.780  20.683  0.00  0.00    +0.000 N 
ATOM      4  H   UNL     1      -1.108   9.280  20.832  0.00  0.00    +0.000 HD
ENDROOT
BRANCH   3   5
ATOM      5  C   UNL     1       0.755   9.046  19.981  0.00  0.00    +0.000 A 
ATOM      6  C   UNL     1       1.484   8.005  20.573  0.00  0.00    +0.000 A 
ATOM      7  C   UNL     1       2.387   7.234  19.834  0.00  0.00    +0.000 A 
ATOM      8  C   UNL     1       2.567   7.482  18.475  0.00  0.00    +0.000 A 
ATOM      9  C   UNL     1       1.898   8.559  17.881  0.00  0.00    +0.000 A 
ATOM     10  C   UNL     1       1.027   9.374  18.625  0.00  0.00    +0.000 A 
BRANCH  10  11
ATOM     11  N   UNL     1       0.295  10.372  17.941  0.00  0.00    +0.000 N 
ATOM     12  H   UNL     1      -0.636  10.518  18.325  0.00  0.00    +0.000 HD
ATOM     13  H   UNL     1       0.244  10.214  16.941  0.00  0.00    +0.000 HD
ENDBRANCH  10  11
BRANCH   8  14
ATOM     14  C   UNL     1       3.477   6.587  17.704  0.00  0.00    +0.000 C 
ATOM     15  O   UNL     1       4.398   7.080  17.061  0.00  0.00    +0.000 OA
BRANCH  14  16
ATOM     16  C   UNL     1       3.280   5.112  17.701  0.00  0.00    +0.000 A 
ATOM     17  C   UNL     1       4.364   4.230  17.601  0.00  0.00    +0.000 A 
ATOM     18  C   UNL     1       4.153   2.851  17.665  0.00  0.00    +0.000 A 
ATOM     19  C   UNL     1       2.860   2.348  17.797  0.00  0.00    +0.000 A 
ATOM     20  C   UNL     1       1.772   3.219  17.843  0.00  0.00    +0.000 A 
ATOM     21  C   UNL     1       1.980   4.601  17.789  0.00  0.00    +0.000 A 
ENDBRANCH  14  16
ENDBRANCH   8  14
ENDBRANCH   3   5
BRANCH   1  23
ATOM     22  C   UNL     1      -1.502  11.123  23.452  0.00  0.00    +0.000 C 
ATOM     23  C   UNL     1      -1.295  11.586  22.025  0.00  0.00    +0.000 C 
ATOM     24  C   UNL     1      -2.059  12.564  21.442  0.00  0.00    +0.000 C 
ATOM     25  C   UNL     1      -1.819  13.082  20.026  0.00  0.00    +0.000 C 
BRANCH  24  26
ATOM     26  C   UNL     1      -3.199  13.079  22.168  0.00  0.00    +0.000 A 
ATOM     27  N   UNL     1      -4.392  12.559  22.391  0.00  0.00    +0.000 NA
ATOM     28  C   UNL     1      -5.159  13.569  22.917  0.00  0.00    +0.000 A 
ATOM     29  C   UNL     1      -6.522  13.576  23.247  0.00  0.00    +0.000 A 
ATOM     30  C   UNL     1      -7.096  14.766  23.711  0.00  0.00    +0.000 A 
ATOM     31  C   UNL     1      -6.324  15.921  23.863  0.00  0.00    +0.000 A 
ATOM     32  C   UNL     1      -4.955  15.924  23.560  0.00  0.00    +0.000 A 
ATOM     33  C   UNL     1      -4.414  14.726  23.083  0.00  0.00    +0.000 A 
ATOM     34  N   UNL     1      -3.157  14.370  22.660  0.00  0.00    +0.000 N 
ATOM     35  H   UNL     1      -2.356  14.984  22.635  0.00  0.00    +0.000 HD
ENDBRANCH  24  26
ENDBRANCH   1  23
TORSDOF 6
ENDMDL
MODEL 9
REMARK VINA RESULT:      -8.4      1.949      2.737
REMARK  Name = 
REMARK  8 active torsions:
REMARK  status: ('A' for Active; 'I' for Inactive)
REMARK    1  A    between atoms: C_1  and  C_2
REMARK    2  A    between atoms: C_2  and  C_3
REMARK    3  A    between atoms: N_5  and  C_6
REMARK    4  A    between atoms: C_9  and  C_10
REMARK    5  A    between atoms: C_10  and  C_12
REMARK    6  A    between atoms: C_19  and  N_20
REMARK    7  A    between atoms: C_21  and  C_22
REMARK    8  A    between atoms: C_21  and  C_23
REMARK                            x       y       z     vdW  Elec       q    Type
REMARK                         _______ _______ _______ _____ _____    ______ ____
ROOT
ATOM      1  C   UNL     1       0.087   8.592  21.339  0.00  0.00    +0.000 C 
ATOM      2  O   UNL     1      -0.702   7.655  21.221  0.00  0.00    +0.000 OA
ATOM      3  N   UNL     1       1.352   8.627  20.763  0.00  0.00    +0.000 N 
ATOM      4  H   UNL     1       1.862   9.496  20.780  0.00  0.00    +0.000 HD
ENDROOT
BRANCH   3   5
ATOM      5  C   UNL     1       1.959   7.594  19.990  0.00  0.00    +0.000 A 
ATOM      6  C   UNL     1       2.181   6.304  20.493  0.00  0.00    +0.000 A 
ATOM      7  C   UNL     1       2.684   5.282  19.682  0.00  0.00    +0.000 A 
ATOM      8  C   UNL     1       2.963   5.528  18.340  0.00  0.00    +0.000 A 
ATOM      9  C   UNL     1       2.811   6.826  17.837  0.00  0.00    +0.000 A 
ATOM     10  C   UNL     1       2.355   7.875  18.654  0.00  0.00    +0.000 A 
BRANCH  10  11
ATOM     11  N   UNL     1       2.114   9.134  18.057  0.00  0.00    +0.000 N 
ATOM     12  H   UNL     1       2.760   9.855  18.369  0.00  0.00    +0.000 HD
ATOM     13  H   UNL     1       1.156   9.449  18.164  0.00  0.00    +0.000 HD
ENDBRANCH  10  11
BRANCH   8  14
ATOM     14  C   UNL     1       3.421   4.393  17.489  0.00  0.00    +0.000 C 
ATOM     15  O   UNL     1       2.677   3.433  17.318  0.00  0.00    +0.000 OA
BRANCH  14  16
ATOM     16  C   UNL     1       4.765   4.410  16.849  0.00  0.00    +0.000 A 
ATOM     17  C   UNL     1       4.916   4.276  15.462  0.00  0.00    +0.000 A 
ATOM     18  C   UNL     1       6.185   4.359  14.885  0.00  0.00    +0.000 A 
ATOM     19  C   UNL     1       7.308   4.543  15.691  0.00  0.00    +0.000 A 
ATOM     20  C   UNL     1       7.169   4.623  17.076  0.00  0.00    +0.000 A 
ATOM     21  C   UNL     1       5.899   4.550  17.657  0.00  0.00    +0.000 A 
ENDBRANCH  14  16
ENDBRANCH   8  14
ENDBRANCH   3   5
BRANCH   1  23
ATOM     22  C   UNL     1      -0.216   9.805  23.597  0.00  0.00    +0.000 C 
ATOM     23  C   UNL     1      -0.360   9.840  22.090  0.00  0.00    +0.000 C 
ATOM     24  C   UNL     1      -0.739  10.966  21.405  0.00  0.00    +0.000 C 
ATOM     25  C   UNL     1      -0.828  11.030  19.882  0.00  0.00    +0.000 C 
BRANCH  24  26
ATOM     26  C   UNL     1      -1.154  12.129  22.158  0.00  0.00    +0.000 A 
ATOM     27  N   UNL     1      -0.463  13.150  22.629  0.00  0.00    +0.000 NA
ATOM     28  C   UNL     1      -1.307  13.830  23.472  0.00  0.00    +0.000 A 
ATOM     29  C   UNL     1      -1.047  14.935  24.295  0.00  0.00    +0.000 A 
ATOM     30  C   UNL     1      -2.070  15.413  25.124  0.00  0.00    +0.000 A 
ATOM     31  C   UNL     1      -3.333  14.814  25.118  0.00  0.00    +0.000 A 
ATOM     32  C   UNL     1      -3.616  13.724  24.284  0.00  0.00    +0.000 A 
ATOM     33  C   UNL     1      -2.570  13.259  23.480  0.00  0.00    +0.000 A 
ATOM     34  N   UNL     1      -2.465  12.219  22.589  0.00  0.00    +0.000 N 
ATOM     35  H   UNL     1      -3.208  11.576  22.356  0.00  0.00    +0.000 HD
ENDBRANCH  24  26
ENDBRANCH   1  23
TORSDOF 6
ENDMDL
