MODEL 1
REMARK VINA RESULT:      -8.4      0.000      0.000
REMARK  Name = 
REMARK  13 active torsions:
REMARK  status: ('A' for Active; 'I' for Inactive)
REMARK    1  A    between atoms: C_1  and  O_2
REMARK    2  A    between atoms: O_2  and  C_3
REMARK    3  A    between atoms: C_3  and  C_5
REMARK    4  A    between atoms: C_5  and  C_6
REMARK    5  A    between atoms: C_6  and  N_7
REMARK    6  A    between atoms: C_11  and  C_12
REMARK    7  A    between atoms: C_12  and  C_13
REMARK    8  A    between atoms: C_12  and  N_23
REMARK    9  A    between atoms: C_13  and  C_14
REMARK   10  A    between atoms: C_24  and  C_26
REMARK   11  A    between atoms: C_26  and  C_27
REMARK   12  A    between atoms: C_26  and  C_28
REMARK   13  A    between atoms: C_26  and  N_29
REMARK                            x       y       z     vdW  Elec       q    Type
REMARK                         _______ _______ _______ _____ _____    ______ ____
ROOT
ATOM      1  C   UNL     1       4.577   5.640  17.635  0.00  0.00    +0.000 C 
ENDROOT
BRANCH   1   6
ATOM      2  N   UNL     1       6.888   5.275  16.581  0.00  0.00    +0.000 N 
ATOM      3  N   UNL     1       7.407   5.168  15.344  0.00  0.00    +0.000 NA
ATOM      4  N   UNL     1       6.378   5.254  14.520  0.00  0.00    +0.000 NA
ATOM      5  N   UNL     1       5.206   5.392  15.212  0.00  0.00    +0.000 NA
ATOM      6  C   UNL     1       5.529   5.453  16.493  0.00  0.00    +0.000 A 
BRANCH   2   7
ATOM      7  C   UNL     1       7.775   5.197  17.719  0.00  0.00    +0.000 C 
BRANCH   7   8
ATOM      8  C   UNL     1       7.603   6.340  18.714  0.00  0.00    +0.000 C 
BRANCH   8   9
ATOM      9  C   UNL     1       7.945   7.648  18.057  0.00  0.00    +0.000 C 
ATOM     10  O   UNL     1       7.514   8.028  16.985  0.00  0.00    +0.000 OA
BRANCH   9  12
ATOM     11  C   UNL     1       8.825   9.755  18.591  0.00  0.00    +0.000 C 
ATOM     12  O   UNL     1       8.797   8.352  18.861  0.00  0.00    +0.000 OA
ENDBRANCH   9  12
ENDBRANCH   8   9
ENDBRANCH   7   8
ENDBRANCH   2   7
ENDBRANCH   1   6
BRANCH   1  13
ATOM     13  N   UNL     1       3.836   4.381  17.771  0.00  0.00    +0.000 N 
ATOM     14  C   UNL     1       4.195   3.419  18.690  0.00  0.00    +0.000 C 
ATOM     15  O   UNL     1       5.183   3.555  19.412  0.00  0.00    +0.000 OA
ATOM     16  H   UNL     1       2.900   4.361  17.381  0.00  0.00    +0.000 HD
BRANCH  14  17
ATOM     17  C   UNL     1       3.338   2.109  18.687  0.00  0.00    +0.000 C 
ATOM     18  C   UNL     1       2.496   1.963  19.957  0.00  0.00    +0.000 C 
ATOM     19  C   UNL     1       2.448   2.097  17.441  0.00  0.00    +0.000 C 
BRANCH  17  20
ATOM     20  N   UNL     1       4.241   0.936  18.612  0.00  0.00    +0.000 NA
ATOM     21  H   UNL     1       4.026   0.310  19.391  0.00  0.00    +0.000 HD
ATOM     22  H   UNL     1       5.192   1.254  18.816  0.00  0.00    +0.000 HD
ENDBRANCH  17  20
ENDBRANCH  14  17
ENDBRANCH   1  13
BRANCH   1  23
ATOM     23  C   UNL     1       3.598   6.812  17.393  0.00  0.00    +0.000 C 
BRANCH  23  24
ATOM     24  C   UNL     1       2.804   7.219  18.599  0.00  0.00    +0.000 A 
ATOM     25  C   UNL     1       2.692   6.502  19.775  0.00  0.00    +0.000 A 
ATOM     26  N   UNL     1       1.928   7.221  20.651  0.00  0.00    +0.000 N 
ATOM     27  C   UNL     1       1.458   8.359  20.043  0.00  0.00    +0.000 A 
ATOM     28  C   UNL     1       0.586   9.341  20.529  0.00  0.00    +0.000 A 
ATOM     29  C   UNL     1       0.242  10.382  19.665  0.00  0.00    +0.000 A 
ATOM     30  C   UNL     1       0.793  10.465  18.387  0.00  0.00    +0.000 A 
ATOM     31  C   UNL     1       1.692   9.493  17.930  0.00  0.00    +0.000 A 
ATOM     32  C   UNL     1       2.009   8.400  18.761  0.00  0.00    +0.000 A 
ATOM     33  H   UNL     1       1.706   6.940  21.597  0.00  0.00    +0.000 HD
ENDBRANCH  23  24
ENDBRANCH   1  23
TORSDOF 10
ENDMDL
MODEL 2
REMARK VINA RESULT:      -8.4      2.191      5.056
REMARK  Name = 
REMARK  13 active torsions:
REMARK  status: ('A' for Active; 'I' for Inactive)
REMARK    1  A    between atoms: C_1  and  O_2
REMARK    2  A    between atoms: O_2  and  C_3
REMARK    3  A    between atoms: C_3  and  C_5
REMARK    4  A    between atoms: C_5  and  C_6
REMARK    5  A    between atoms: C_6  and  N_7
REMARK    6  A    between atoms: C_11  and  C_12
REMARK    7  A    between atoms: C_12  and  C_13
REMARK    8  A    between atoms: C_12  and  N_23
REMARK    9  A    between atoms: C_13  and  C_14
REMARK   10  A    between atoms: C_24  and  C_26
REMARK   11  A    between atoms: C_26  and  C_27
REMARK   12  A    between atoms: C_26  and  C_28
REMARK   13  A    between atoms: C_26  and  N_29
REMARK                            x       y       z     vdW  Elec       q    Type
REMARK                         _______ _______ _______ _____ _____    ______ ____
ROOT
ATOM      1  C   UNL     1       2.936   5.729  17.746  0.00  0.00    +0.000 C 
ENDROOT
BRANCH   1   6
ATOM      2  N   UNL     1       1.934   3.926  19.274  0.00  0.00    +0.000 N 
ATOM      3  N   UNL     1       0.975   2.986  19.200  0.00  0.00    +0.000 NA
ATOM      4  N   UNL     1       0.438   3.122  18.000  0.00  0.00    +0.000 NA
ATOM      5  N   UNL     1       1.026   4.149  17.314  0.00  0.00    +0.000 NA
ATOM      6  C   UNL     1       1.989   4.618  18.089  0.00  0.00    +0.000 A 
BRANCH   2   7
ATOM      7  C   UNL     1       2.701   4.046  20.493  0.00  0.00    +0.000 C 
BRANCH   7   8
ATOM      8  C   UNL     1       3.066   2.707  21.126  0.00  0.00    +0.000 C 
BRANCH   8   9
ATOM      9  C   UNL     1       4.357   2.201  20.546  0.00  0.00    +0.000 C 
ATOM     10  O   UNL     1       5.251   1.671  21.178  0.00  0.00    +0.000 OA
BRANCH   9  12
ATOM     11  C   UNL     1       3.935   1.277  18.432  0.00  0.00    +0.000 C 
ATOM     12  O   UNL     1       4.361   2.408  19.194  0.00  0.00    +0.000 OA
ENDBRANCH   9  12
ENDBRANCH   8   9
ENDBRANCH   7   8
ENDBRANCH   2   7
ENDBRANCH   1   6
BRANCH   1  13
ATOM     13  N   UNL     1       4.221   5.096  17.425  0.00  0.00    +0.000 N 
ATOM     14  C   UNL     1       5.153   5.707  16.615  0.00  0.00    +0.000 C 
ATOM     15  O   UNL     1       4.931   6.796  16.087  0.00  0.00    +0.000 OA
ATOM     16  H   UNL     1       4.521   4.343  18.036  0.00  0.00    +0.000 HD
BRANCH  14  17
ATOM     17  C   UNL     1       6.457   4.889  16.326  0.00  0.00    +0.000 C 
ATOM     18  C   UNL     1       7.250   4.593  17.601  0.00  0.00    +0.000 C 
ATOM     19  C   UNL     1       6.083   3.591  15.605  0.00  0.00    +0.000 C 
BRANCH  17  20
ATOM     20  N   UNL     1       7.334   5.674  15.426  0.00  0.00    +0.000 NA
ATOM     21  H   UNL     1       7.859   6.347  15.989  0.00  0.00    +0.000 HD
ATOM     22  H   UNL     1       6.740   6.264  14.839  0.00  0.00    +0.000 HD
ENDBRANCH  17  20
ENDBRANCH  14  17
ENDBRANCH   1  13
BRANCH   1  23
ATOM     23  C   UNL     1       3.110   6.729  18.912  0.00  0.00    +0.000 C 
BRANCH  23  24
ATOM     24  C   UNL     1       2.266   7.965  18.803  0.00  0.00    +0.000 A 
ATOM     25  C   UNL     1       2.170   8.784  17.695  0.00  0.00    +0.000 A 
ATOM     26  N   UNL     1       1.267   9.774  17.964  0.00  0.00    +0.000 N 
ATOM     27  C   UNL     1       0.833   9.676  19.263  0.00  0.00    +0.000 A 
ATOM     28  C   UNL     1      -0.026  10.511  19.988  0.00  0.00    +0.000 A 
ATOM     29  C   UNL     1      -0.264  10.187  21.325  0.00  0.00    +0.000 A 
ATOM     30  C   UNL     1       0.292   9.043  21.896  0.00  0.00    +0.000 A 
ATOM     31  C   UNL     1       1.119   8.199  21.145  0.00  0.00    +0.000 A 
ATOM     32  C   UNL     1       1.423   8.535  19.810  0.00  0.00    +0.000 A 
ATOM     33  H   UNL     1       0.987  10.499  17.317  0.00  0.00    +0.000 HD
ENDBRANCH  23  24
ENDBRANCH   1  23
TORSDOF 10
ENDMDL
MODEL 3
REMARK VINA RESULT:      -8.3      2.010      5.227
REMARK  Name = 
REMARK  13 active torsions:
REMARK  status: ('A' for Active; 'I' for Inactive)
REMARK    1  A    between atoms: C_1  and  O_2
REMARK    2  A    between atoms: O_2  and  C_3
REMARK    3  A    between atoms: C_3  and  C_5
REMARK    4  A    between atoms: C_5  and  C_6
REMARK    5  A    between atoms: C_6  and  N_7
REMARK    6  A    between atoms: C_11  and  C_12
REMARK    7  A    between atoms: C_12  and  C_13
REMARK    8  A    between atoms: C_12  and  N_23
REMARK    9  A    between atoms: C_13  and  C_14
REMARK   10  A    between atoms: C_24  and  C_26
REMARK   11  A    between atoms: C_26  and  C_27
REMARK   12  A    between atoms: C_26  and  C_28
REMARK   13  A    between atoms: C_26  and  N_29
REMARK                            x       y       z     vdW  Elec       q    Type
REMARK                         _______ _______ _______ _____ _____    ______ ____
ROOT
ATOM      1  C   UNL     1       3.351   5.506  17.857  0.00  0.00    +0.000 C 
ENDROOT
BRANCH   1   6
ATOM      2  N   UNL     1       3.458   3.038  18.552  0.00  0.00    +0.000 N 
ATOM      3  N   UNL     1       2.985   1.861  18.104  0.00  0.00    +0.000 NA
ATOM      4  N   UNL     1       2.256   2.154  17.041  0.00  0.00    +0.000 NA
ATOM      5  N   UNL     1       2.239   3.503  16.816  0.00  0.00    +0.000 NA
ATOM      6  C   UNL     1       3.027   4.048  17.728  0.00  0.00    +0.000 A 
BRANCH   2   7
ATOM      7  C   UNL     1       4.289   3.051  19.735  0.00  0.00    +0.000 C 
BRANCH   7   8
ATOM      8  C   UNL     1       3.758   2.182  20.871  0.00  0.00    +0.000 C 
BRANCH   8   9
ATOM      9  C   UNL     1       2.540   2.822  21.478  0.00  0.00    +0.000 C 
ATOM     10  O   UNL     1       2.554   3.672  22.347  0.00  0.00    +0.000 OA
BRANCH   9  12
ATOM     11  C   UNL     1       0.572   3.307  20.299  0.00  0.00    +0.000 C 
ATOM     12  O   UNL     1       1.417   2.315  20.886  0.00  0.00    +0.000 OA
ENDBRANCH   9  12
ENDBRANCH   8   9
ENDBRANCH   7   8
ENDBRANCH   2   7
ENDBRANCH   1   6
BRANCH   1  13
ATOM     13  N   UNL     1       4.815   5.607  17.871  0.00  0.00    +0.000 N 
ATOM     14  C   UNL     1       5.520   6.131  16.810  0.00  0.00    +0.000 C 
ATOM     15  O   UNL     1       4.955   6.498  15.780  0.00  0.00    +0.000 OA
ATOM     16  H   UNL     1       5.264   5.552  18.779  0.00  0.00    +0.000 HD
BRANCH  14  17
ATOM     17  C   UNL     1       7.080   6.131  16.952  0.00  0.00    +0.000 C 
ATOM     18  C   UNL     1       7.611   7.460  17.493  0.00  0.00    +0.000 C 
ATOM     19  C   UNL     1       7.500   4.969  17.856  0.00  0.00    +0.000 C 
BRANCH  17  20
ATOM     20  N   UNL     1       7.690   5.915  15.619  0.00  0.00    +0.000 NA
ATOM     21  H   UNL     1       8.641   5.564  15.750  0.00  0.00    +0.000 HD
ATOM     22  H   UNL     1       7.830   6.829  15.182  0.00  0.00    +0.000 HD
ENDBRANCH  17  20
ENDBRANCH  14  17
ENDBRANCH   1  13
BRANCH   1  23
ATOM     23  C   UNL     1       2.760   6.124  19.145  0.00  0.00    +0.000 C 
BRANCH  23  24
ATOM     24  C   UNL     1       2.229   7.517  18.981  0.00  0.00    +0.000 A 
ATOM     25  C   UNL     1       2.356   8.304  17.852  0.00  0.00    +0.000 A 
ATOM     26  N   UNL     1       1.699   9.483  18.068  0.00  0.00    +0.000 N 
ATOM     27  C   UNL     1       1.217   9.525  19.353  0.00  0.00    +0.000 A 
ATOM     28  C   UNL     1       0.555  10.557  20.030  0.00  0.00    +0.000 A 
ATOM     29  C   UNL     1       0.211  10.336  21.365  0.00  0.00    +0.000 A 
ATOM     30  C   UNL     1       0.470   9.112  21.979  0.00  0.00    +0.000 A 
ATOM     31  C   UNL     1       1.101   8.077  21.276  0.00  0.00    +0.000 A 
ATOM     32  C   UNL     1       1.512   8.296  19.945  0.00  0.00    +0.000 A 
ATOM     33  H   UNL     1       1.613  10.234  17.396  0.00  0.00    +0.000 HD
ENDBRANCH  23  24
ENDBRANCH   1  23
TORSDOF 10
ENDMDL
MODEL 4
REMARK VINA RESULT:      -8.1      0.795      1.091
REMARK  Name = 
REMARK  13 active torsions:
REMARK  status: ('A' for Active; 'I' for Inactive)
REMARK    1  A    between atoms: C_1  and  O_2
REMARK    2  A    between atoms: O_2  and  C_3
REMARK    3  A    between atoms: C_3  and  C_5
REMARK    4  A    between atoms: C_5  and  C_6
REMARK    5  A    between atoms: C_6  and  N_7
REMARK    6  A    between atoms: C_11  and  C_12
REMARK    7  A    between atoms: C_12  and  C_13
REMARK    8  A    between atoms: C_12  and  N_23
REMARK    9  A    between atoms: C_13  and  C_14
REMARK   10  A    between atoms: C_24  and  C_26
REMARK   11  A    between atoms: C_26  and  C_27
REMARK   12  A    between atoms: C_26  and  C_28
REMARK   13  A    between atoms: C_26  and  N_29
REMARK                            x       y       z     vdW  Elec       q    Type
REMARK                         _______ _______ _______ _____ _____    ______ ____
ROOT
ATOM      1  C   UNL     1       4.568   5.839  17.875  0.00  0.00    +0.000 C 
ENDROOT
BRANCH   1   6
ATOM      2  N   UNL     1       6.870   6.254  16.821  0.00  0.00    +0.000 N 
ATOM      3  N   UNL     1       7.512   5.931  15.683  0.00  0.00    +0.000 NA
ATOM      4  N   UNL     1       6.669   5.171  15.005  0.00  0.00    +0.000 NA
ATOM      5  N   UNL     1       5.507   4.987  15.702  0.00  0.00    +0.000 NA
ATOM      6  C   UNL     1       5.614   5.700  16.811  0.00  0.00    +0.000 A 
BRANCH   2   7
ATOM      7  C   UNL     1       7.551   7.076  17.795  0.00  0.00    +0.000 C 
BRANCH   7   8
ATOM      8  C   UNL     1       7.456   8.572  17.515  0.00  0.00    +0.000 C 
BRANCH   8   9
ATOM      9  C   UNL     1       8.507   9.308  18.298  0.00  0.00    +0.000 C 
ATOM     10  O   UNL     1       9.095   8.869  19.268  0.00  0.00    +0.000 OA
BRANCH   9  12
ATOM     11  C   UNL     1       9.213  11.516  18.650  0.00  0.00    +0.000 C 
ATOM     12  O   UNL     1       8.715  10.537  17.737  0.00  0.00    +0.000 OA
ENDBRANCH   9  12
ENDBRANCH   8   9
ENDBRANCH   7   8
ENDBRANCH   2   7
ENDBRANCH   1   6
BRANCH   1  13
ATOM     13  N   UNL     1       3.832   4.570  17.905  0.00  0.00    +0.000 N 
ATOM     14  C   UNL     1       4.211   3.526  18.720  0.00  0.00    +0.000 C 
ATOM     15  O   UNL     1       5.213   3.595  19.431  0.00  0.00    +0.000 OA
ATOM     16  H   UNL     1       2.888   4.585  17.534  0.00  0.00    +0.000 HD
BRANCH  14  17
ATOM     17  C   UNL     1       3.355   2.219  18.608  0.00  0.00    +0.000 C 
ATOM     18  C   UNL     1       2.388   2.057  19.783  0.00  0.00    +0.000 C 
ATOM     19  C   UNL     1       2.597   2.231  17.278  0.00  0.00    +0.000 C 
BRANCH  17  20
ATOM     20  N   UNL     1       4.258   1.044  18.607  0.00  0.00    +0.000 NA
ATOM     21  H   UNL     1       4.695   0.970  17.685  0.00  0.00    +0.000 HD
ATOM     22  H   UNL     1       3.683   0.201  18.668  0.00  0.00    +0.000 HD
ENDBRANCH  17  20
ENDBRANCH  14  17
ENDBRANCH   1  13
BRANCH   1  23
ATOM     23  C   UNL     1       3.601   7.011  17.594  0.00  0.00    +0.000 C 
BRANCH  23  24
ATOM     24  C   UNL     1       2.739   7.402  18.758  0.00  0.00    +0.000 A 
ATOM     25  C   UNL     1       2.560   6.667  19.915  0.00  0.00    +0.000 A 
ATOM     26  N   UNL     1       1.748   7.373  20.757  0.00  0.00    +0.000 N 
ATOM     27  C   UNL     1       1.313   8.521  20.140  0.00  0.00    +0.000 A 
ATOM     28  C   UNL     1       0.415   9.496  20.590  0.00  0.00    +0.000 A 
ATOM     29  C   UNL     1       0.121  10.551  19.723  0.00  0.00    +0.000 A 
ATOM     30  C   UNL     1       0.744  10.652  18.480  0.00  0.00    +0.000 A 
ATOM     31  C   UNL     1       1.668   9.686  18.061  0.00  0.00    +0.000 A 
ATOM     32  C   UNL     1       1.937   8.581  18.893  0.00  0.00    +0.000 A 
ATOM     33  H   UNL     1       1.472   7.078  21.684  0.00  0.00    +0.000 HD
ENDBRANCH  23  24
ENDBRANCH   1  23
TORSDOF 10
ENDMDL
MODEL 5
REMARK VINA RESULT:      -8.1      2.228      4.789
REMARK  Name = 
REMARK  13 active torsions:
REMARK  status: ('A' for Active; 'I' for Inactive)
REMARK    1  A    between atoms: C_1  and  O_2
REMARK    2  A    between atoms: O_2  and  C_3
REMARK    3  A    between atoms: C_3  and  C_5
REMARK    4  A    between atoms: C_5  and  C_6
REMARK    5  A    between atoms: C_6  and  N_7
REMARK    6  A    between atoms: C_11  and  C_12
REMARK    7  A    between atoms: C_12  and  C_13
REMARK    8  A    between atoms: C_12  and  N_23
REMARK    9  A    between atoms: C_13  and  C_14
REMARK   10  A    between atoms: C_24  and  C_26
REMARK   11  A    between atoms: C_26  and  C_27
REMARK   12  A    between atoms: C_26  and  C_28
REMARK   13  A    between atoms: C_26  and  N_29
REMARK                            x       y       z     vdW  Elec       q    Type
REMARK                         _______ _______ _______ _____ _____    ______ ____
ROOT
ATOM      1  C   UNL     1       3.665   5.751  18.328  0.00  0.00    +0.000 C 
ENDROOT
BRANCH   1   6
ATOM      2  N   UNL     1       3.897   3.421  17.278  0.00  0.00    +0.000 N 
ATOM      3  N   UNL     1       3.714   2.143  17.654  0.00  0.00    +0.000 NA
ATOM      4  N   UNL     1       3.350   2.196  18.924  0.00  0.00    +0.000 NA
ATOM      5  N   UNL     1       3.318   3.488  19.370  0.00  0.00    +0.000 NA
ATOM      6  C   UNL     1       3.613   4.253  18.333  0.00  0.00    +0.000 A 
BRANCH   2   7
ATOM      7  C   UNL     1       4.326   3.695  15.925  0.00  0.00    +0.000 C 
BRANCH   7   8
ATOM      8  C   UNL     1       5.840   3.688  15.744  0.00  0.00    +0.000 C 
BRANCH   8   9
ATOM      9  C   UNL     1       6.198   4.261  14.401  0.00  0.00    +0.000 C 
ATOM     10  O   UNL     1       7.085   5.067  14.196  0.00  0.00    +0.000 OA
BRANCH   9  12
ATOM     11  C   UNL     1       6.072   3.335  12.250  0.00  0.00    +0.000 C 
ATOM     12  O   UNL     1       5.387   3.718  13.444  0.00  0.00    +0.000 OA
ENDBRANCH   9  12
ENDBRANCH   8   9
ENDBRANCH   7   8
ENDBRANCH   2   7
ENDBRANCH   1   6
BRANCH   1  13
ATOM     13  N   UNL     1       5.085   6.119  18.387  0.00  0.00    +0.000 N 
ATOM     14  C   UNL     1       5.703   6.808  17.367  0.00  0.00    +0.000 C 
ATOM     15  O   UNL     1       5.101   7.111  16.337  0.00  0.00    +0.000 OA
ATOM     16  H   UNL     1       5.518   6.108  19.304  0.00  0.00    +0.000 HD
BRANCH  14  17
ATOM     17  C   UNL     1       7.233   7.089  17.553  0.00  0.00    +0.000 C 
ATOM     18  C   UNL     1       7.530   8.579  17.739  0.00  0.00    +0.000 C 
ATOM     19  C   UNL     1       7.748   6.278  18.745  0.00  0.00    +0.000 C 
BRANCH  17  20
ATOM     20  N   UNL     1       7.961   6.635  16.345  0.00  0.00    +0.000 NA
ATOM     21  H   UNL     1       7.277   6.369  15.633  0.00  0.00    +0.000 HD
ATOM     22  H   UNL     1       8.430   5.754  16.569  0.00  0.00    +0.000 HD
ENDBRANCH  17  20
ENDBRANCH  14  17
ENDBRANCH   1  13
BRANCH   1  23
ATOM     23  C   UNL     1       2.904   6.367  19.523  0.00  0.00    +0.000 C 
BRANCH  23  24
ATOM     24  C   UNL     1       2.206   7.659  19.220  0.00  0.00    +0.000 A 
ATOM     25  C   UNL     1       2.198   8.307  18.000  0.00  0.00    +0.000 A 
ATOM     26  N   UNL     1       1.416   9.423  18.105  0.00  0.00    +0.000 N 
ATOM     27  C   UNL     1       0.980   9.572  19.399  0.00  0.00    +0.000 A 
ATOM     28  C   UNL     1       0.226  10.600  19.979  0.00  0.00    +0.000 A 
ATOM     29  C   UNL     1      -0.041  10.511  21.347  0.00  0.00    +0.000 A 
ATOM     30  C   UNL     1       0.384   9.411  22.090  0.00  0.00    +0.000 A 
ATOM     31  C   UNL     1       1.106   8.374  21.486  0.00  0.00    +0.000 A 
ATOM     32  C   UNL     1       1.439   8.468  20.119  0.00  0.00    +0.000 A 
ATOM     33  H   UNL     1       1.217  10.069  17.353  0.00  0.00    +0.000 HD
ENDBRANCH  23  24
ENDBRANCH   1  23
TORSDOF 10
ENDMDL
MODEL 6
REMARK VINA RESULT:      -8.0      2.185      5.122
REMARK  Name = 
REMARK  13 active torsions:
REMARK  status: ('A' for Active; 'I' for Inactive)
REMARK    1  A    between atoms: C_1  and  O_2
REMARK    2  A    between atoms: O_2  and  C_3
REMARK    3  A    between atoms: C_3  and  C_5
REMARK    4  A    between atoms: C_5  and  C_6
REMARK    5  A    between atoms: C_6  and  N_7
REMARK    6  A    between atoms: C_11  and  C_12
REMARK    7  A    between atoms: C_12  and  C_13
REMARK    8  A    between atoms: C_12  and  N_23
REMARK    9  A    between atoms: C_13  and  C_14
REMARK   10  A    between atoms: C_24  and  C_26
REMARK   11  A    between atoms: C_26  and  C_27
REMARK   12  A    between atoms: C_26  and  C_28
REMARK   13  A    between atoms: C_26  and  N_29
REMARK                            x       y       z     vdW  Elec       q    Type
REMARK                         _______ _______ _______ _____ _____    ______ ____
ROOT
ATOM      1  C   UNL     1       2.814   6.085  18.213  0.00  0.00    +0.000 C 
ENDROOT
BRANCH   1   6
ATOM      2  N   UNL     1       1.799   4.053  19.407  0.00  0.00    +0.000 N 
ATOM      3  N   UNL     1       0.941   3.059  19.115  0.00  0.00    +0.000 NA
ATOM      4  N   UNL     1       0.543   3.287  17.876  0.00  0.00    +0.000 NA
ATOM      5  N   UNL     1       1.117   4.425  17.380  0.00  0.00    +0.000 NA
ATOM      6  C   UNL     1       1.935   4.875  18.316  0.00  0.00    +0.000 A 
BRANCH   2   7
ATOM      7  C   UNL     1       2.400   4.092  20.721  0.00  0.00    +0.000 C 
BRANCH   7   8
ATOM      8  C   UNL     1       2.984   2.757  21.172  0.00  0.00    +0.000 C 
BRANCH   8   9
ATOM      9  C   UNL     1       4.093   2.344  20.245  0.00  0.00    +0.000 C 
ATOM     10  O   UNL     1       5.202   2.842  20.213  0.00  0.00    +0.000 OA
BRANCH   9  12
ATOM     11  C   UNL     1       3.828   1.534  18.061  0.00  0.00    +0.000 C 
ATOM     12  O   UNL     1       3.668   1.307  19.462  0.00  0.00    +0.000 OA
ENDBRANCH   9  12
ENDBRANCH   8   9
ENDBRANCH   7   8
ENDBRANCH   2   7
ENDBRANCH   1   6
BRANCH   1  13
ATOM     13  N   UNL     1       4.195   5.591  18.150  0.00  0.00    +0.000 N 
ATOM     14  C   UNL     1       5.065   5.980  17.155  0.00  0.00    +0.000 C 
ATOM     15  O   UNL     1       4.708   6.728  16.245  0.00  0.00    +0.000 OA
ATOM     16  H   UNL     1       4.573   5.193  19.004  0.00  0.00    +0.000 HD
BRANCH  14  17
ATOM     17  C   UNL     1       6.491   5.334  17.195  0.00  0.00    +0.000 C 
ATOM     18  C   UNL     1       6.950   4.858  15.814  0.00  0.00    +0.000 C 
ATOM     19  C   UNL     1       7.482   6.345  17.778  0.00  0.00    +0.000 C 
BRANCH  17  20
ATOM     20  N   UNL     1       6.465   4.153  18.089  0.00  0.00    +0.000 NA
ATOM     21  H   UNL     1       6.548   3.309  17.517  0.00  0.00    +0.000 HD
ATOM     22  H   UNL     1       5.528   4.079  18.492  0.00  0.00    +0.000 HD
ENDBRANCH  17  20
ENDBRANCH  14  17
ENDBRANCH   1  13
BRANCH   1  23
ATOM     23  C   UNL     1       2.642   7.037  19.417  0.00  0.00    +0.000 C 
BRANCH  23  24
ATOM     24  C   UNL     1       1.881   8.294  19.114  0.00  0.00    +0.000 A 
ATOM     25  C   UNL     1       1.870   8.961  17.904  0.00  0.00    +0.000 A 
ATOM     26  N   UNL     1       1.024  10.030  18.005  0.00  0.00    +0.000 N 
ATOM     27  C   UNL     1       0.546  10.133  19.288  0.00  0.00    +0.000 A 
ATOM     28  C   UNL     1      -0.279  11.108  19.862  0.00  0.00    +0.000 A 
ATOM     29  C   UNL     1      -0.577  10.982  21.221  0.00  0.00    +0.000 A 
ATOM     30  C   UNL     1      -0.111   9.895  21.959  0.00  0.00    +0.000 A 
ATOM     31  C   UNL     1       0.683   8.909  21.359  0.00  0.00    +0.000 A 
ATOM     32  C   UNL     1       1.046   9.044  20.004  0.00  0.00    +0.000 A 
ATOM     33  H   UNL     1       0.809  10.676  17.257  0.00  0.00    +0.000 HD
ENDBRANCH  23  24
ENDBRANCH   1  23
TORSDOF 10
ENDMDL
MODEL 7
REMARK VINA RESULT:      -8.0      2.001      5.339
REMARK  Name = 
REMARK  13 active torsions:
REMARK  status: ('A' for Active; 'I' for Inactive)
REMARK    1  A    between atoms: C_1  and  O_2
REMARK    2  A    between atoms: O_2  and  C_3
REMARK    3  A    between atoms: C_3  and  C_5
REMARK    4  A    between atoms: C_5  and  C_6
REMARK    5  A    between atoms: C_6  and  N_7
REMARK    6  A    between atoms: C_11  and  C_12
REMARK    7  A    between atoms: C_12  and  C_13
REMARK    8  A    between atoms: C_12  and  N_23
REMARK    9  A    between atoms: C_13  and  C_14
REMARK   10  A    between atoms: C_24  and  C_26
REMARK   11  A    between atoms: C_26  and  C_27
REMARK   12  A    between atoms: C_26  and  C_28
REMARK   13  A    between atoms: C_26  and  N_29
REMARK                            x       y       z     vdW  Elec       q    Type
REMARK                         _______ _______ _______ _____ _____    ______ ____
ROOT
ATOM      1  C   UNL     1       2.655   6.232  19.147  0.00  0.00    +0.000 C 
ENDROOT
BRANCH   1   6
ATOM      2  N   UNL     1       1.564   3.911  19.229  0.00  0.00    +0.000 N 
ATOM      3  N   UNL     1       1.101   3.067  20.168  0.00  0.00    +0.000 NA
ATOM      4  N   UNL     1       1.345   3.656  21.326  0.00  0.00    +0.000 NA
ATOM      5  N   UNL     1       1.975   4.856  21.140  0.00  0.00    +0.000 NA
ATOM      6  C   UNL     1       2.068   5.036  19.834  0.00  0.00    +0.000 A 
BRANCH   2   7
ATOM      7  C   UNL     1       1.458   3.533  17.838  0.00  0.00    +0.000 C 
BRANCH   7   8
ATOM      8  C   UNL     1       2.209   2.252  17.488  0.00  0.00    +0.000 C 
BRANCH   8   9
ATOM      9  C   UNL     1       3.657   2.388  17.867  0.00  0.00    +0.000 C 
ATOM     10  O   UNL     1       4.446   3.160  17.357  0.00  0.00    +0.000 OA
BRANCH   9  12
ATOM     11  C   UNL     1       4.506   2.155  20.040  0.00  0.00    +0.000 C 
ATOM     12  O   UNL     1       3.943   1.525  18.888  0.00  0.00    +0.000 OA
ENDBRANCH   9  12
ENDBRANCH   8   9
ENDBRANCH   7   8
ENDBRANCH   2   7
ENDBRANCH   1   6
BRANCH   1  13
ATOM     13  N   UNL     1       4.090   5.961  18.993  0.00  0.00    +0.000 N 
ATOM     14  C   UNL     1       4.798   6.388  17.891  0.00  0.00    +0.000 C 
ATOM     15  O   UNL     1       4.249   6.980  16.962  0.00  0.00    +0.000 OA
ATOM     16  H   UNL     1       4.597   5.711  19.835  0.00  0.00    +0.000 HD
BRANCH  14  17
ATOM     17  C   UNL     1       6.311   5.984  17.846  0.00  0.00    +0.000 C 
ATOM     18  C   UNL     1       7.219   7.174  17.528  0.00  0.00    +0.000 C 
ATOM     19  C   UNL     1       6.698   5.346  19.183  0.00  0.00    +0.000 C 
BRANCH  17  20
ATOM     20  N   UNL     1       6.513   4.971  16.783  0.00  0.00    +0.000 NA
ATOM     21  H   UNL     1       6.421   4.041  17.197  0.00  0.00    +0.000 HD
ATOM     22  H   UNL     1       7.493   5.008  16.491  0.00  0.00    +0.000 HD
ENDBRANCH  17  20
ENDBRANCH  14  17
ENDBRANCH   1  13
BRANCH   1  23
ATOM     23  C   UNL     1       2.441   7.533  19.954  0.00  0.00    +0.000 C 
BRANCH  23  24
ATOM     24  C   UNL     1       1.649   8.587  19.239  0.00  0.00    +0.000 A 
ATOM     25  C   UNL     1       1.683   8.843  17.882  0.00  0.00    +0.000 A 
ATOM     26  N   UNL     1       0.789   9.839  17.605  0.00  0.00    +0.000 N 
ATOM     27  C   UNL     1       0.229  10.306  18.768  0.00  0.00    +0.000 A 
ATOM     28  C   UNL     1      -0.670  11.360  18.971  0.00  0.00    +0.000 A 
ATOM     29  C   UNL     1      -1.045  11.644  20.286  0.00  0.00    +0.000 A 
ATOM     30  C   UNL     1      -0.580  10.869  21.347  0.00  0.00    +0.000 A 
ATOM     31  C   UNL     1       0.290   9.795  21.122  0.00  0.00    +0.000 A 
ATOM     32  C   UNL     1       0.730   9.524  19.811  0.00  0.00    +0.000 A 
ATOM     33  H   UNL     1       0.593  10.207  16.683  0.00  0.00    +0.000 HD
ENDBRANCH  23  24
ENDBRANCH   1  23
TORSDOF 10
ENDMDL
MODEL 8
REMARK VINA RESULT:      -7.8      2.193      3.046
REMARK  Name = 
REMARK  13 active torsions:
REMARK  status: ('A' for Active; 'I' for Inactive)
REMARK    1  A    between atoms: C_1  and  O_2
REMARK    2  A    between atoms: O_2  and  C_3
REMARK    3  A    between atoms: C_3  and  C_5
REMARK    4  A    between atoms: C_5  and  C_6
REMARK    5  A    between atoms: C_6  and  N_7
REMARK    6  A    between atoms: C_11  and  C_12
REMARK    7  A    between atoms: C_12  and  C_13
REMARK    8  A    between atoms: C_12  and  N_23
REMARK    9  A    between atoms: C_13  and  C_14
REMARK   10  A    between atoms: C_24  and  C_26
REMARK   11  A    between atoms: C_26  and  C_27
REMARK   12  A    between atoms: C_26  and  C_28
REMARK   13  A    between atoms: C_26  and  N_29
REMARK                            x       y       z     vdW  Elec       q    Type
REMARK                         _______ _______ _______ _____ _____    ______ ____
ROOT
ATOM      1  C   UNL     1       4.395   5.389  19.173  0.00  0.00    +0.000 C 
ENDROOT
BRANCH   1   6
ATOM      2  N   UNL     1       6.339   4.758  17.621  0.00  0.00    +0.000 N 
ATOM      3  N   UNL     1       7.681   4.697  17.689  0.00  0.00    +0.000 NA
ATOM      4  N   UNL     1       7.994   5.124  18.900  0.00  0.00    +0.000 NA
ATOM      5  N   UNL     1       6.873   5.477  19.599  0.00  0.00    +0.000 NA
ATOM      6  C   UNL     1       5.840   5.204  18.820  0.00  0.00    +0.000 A 
BRANCH   2   7
ATOM      7  C   UNL     1       5.684   4.368  16.393  0.00  0.00    +0.000 C 
BRANCH   7   8
ATOM      8  C   UNL     1       5.847   5.376  15.260  0.00  0.00    +0.000 C 
BRANCH   8   9
ATOM      9  C   UNL     1       6.846   4.866  14.259  0.00  0.00    +0.000 C 
ATOM     10  O   UNL     1       7.842   5.461  13.895  0.00  0.00    +0.000 OA
BRANCH   9  12
ATOM     11  C   UNL     1       6.208   3.533  12.438  0.00  0.00    +0.000 C 
ATOM     12  O   UNL     1       6.472   3.619  13.839  0.00  0.00    +0.000 OA
ENDBRANCH   9  12
ENDBRANCH   8   9
ENDBRANCH   7   8
ENDBRANCH   2   7
ENDBRANCH   1   6
BRANCH   1  13
ATOM     13  N   UNL     1       3.688   4.206  18.667  0.00  0.00    +0.000 N 
ATOM     14  C   UNL     1       3.750   2.989  19.309  0.00  0.00    +0.000 C 
ATOM     15  O   UNL     1       4.439   2.827  20.316  0.00  0.00    +0.000 OA
ATOM     16  H   UNL     1       2.935   4.375  18.009  0.00  0.00    +0.000 HD
BRANCH  14  17
ATOM     17  C   UNL     1       2.981   1.809  18.626  0.00  0.00    +0.000 C 
ATOM     18  C   UNL     1       1.708   1.429  19.386  0.00  0.00    +0.000 C 
ATOM     19  C   UNL     1       2.656   2.195  17.180  0.00  0.00    +0.000 C 
BRANCH  17  20
ATOM     20  N   UNL     1       3.855   0.613  18.592  0.00  0.00    +0.000 NA
ATOM     21  H   UNL     1       3.285  -0.213  18.788  0.00  0.00    +0.000 HD
ATOM     22  H   UNL     1       4.491   0.661  19.392  0.00  0.00    +0.000 HD
ENDBRANCH  17  20
ENDBRANCH  14  17
ENDBRANCH   1  13
BRANCH   1  23
ATOM     23  C   UNL     1       3.801   6.673  18.550  0.00  0.00    +0.000 C 
BRANCH  23  24
ATOM     24  C   UNL     1       2.717   7.316  19.362  0.00  0.00    +0.000 A 
ATOM     25  C   UNL     1       2.233   6.859  20.573  0.00  0.00    +0.000 A 
ATOM     26  N   UNL     1       1.289   7.738  21.024  0.00  0.00    +0.000 N 
ATOM     27  C   UNL     1       1.077   8.722  20.090  0.00  0.00    +0.000 A 
ATOM     28  C   UNL     1       0.157   9.778  20.092  0.00  0.00    +0.000 A 
ATOM     29  C   UNL     1       0.134  10.615  18.974  0.00  0.00    +0.000 A 
ATOM     30  C   UNL     1       1.032  10.434  17.924  0.00  0.00    +0.000 A 
ATOM     31  C   UNL     1       1.970   9.394  17.956  0.00  0.00    +0.000 A 
ATOM     32  C   UNL     1       1.975   8.500  19.045  0.00  0.00    +0.000 A 
ATOM     33  H   UNL     1       0.789   7.658  21.900  0.00  0.00    +0.000 HD
ENDBRANCH  23  24
ENDBRANCH   1  23
TORSDOF 10
ENDMDL
MODEL 9
REMARK VINA RESULT:      -7.8      2.614      3.698
REMARK  Name = 
REMARK  13 active torsions:
REMARK  status: ('A' for Active; 'I' for Inactive)
REMARK    1  A    between atoms: C_1  and  O_2
REMARK    2  A    between atoms: O_2  and  C_3
REMARK    3  A    between atoms: C_3  and  C_5
REMARK    4  A    between atoms: C_5  and  C_6
REMARK    5  A    between atoms: C_6  and  N_7
REMARK    6  A    between atoms: C_11  and  C_12
REMARK    7  A    between atoms: C_12  and  C_13
REMARK    8  A    between atoms: C_12  and  N_23
REMARK    9  A    between atoms: C_13  and  C_14
REMARK   10  A    between atoms: C_24  and  C_26
REMARK   11  A    between atoms: C_26  and  C_27
REMARK   12  A    between atoms: C_26  and  C_28
REMARK   13  A    between atoms: C_26  and  N_29
REMARK                            x       y       z     vdW  Elec       q    Type
REMARK                         _______ _______ _______ _____ _____    ______ ____
ROOT
ATOM      1  C   UNL     1       3.668   5.954  18.976  0.00  0.00    +0.000 C 
ENDROOT
BRANCH   1   6
ATOM      2  N   UNL     1       5.629   4.857  17.737  0.00  0.00    +0.000 N 
ATOM      3  N   UNL     1       6.913   4.548  17.992  0.00  0.00    +0.000 NA
ATOM      4  N   UNL     1       7.150   4.995  19.213  0.00  0.00    +0.000 NA
ATOM      5  N   UNL     1       6.041   5.603  19.734  0.00  0.00    +0.000 NA
ATOM      6  C   UNL     1       5.081   5.474  18.834  0.00  0.00    +0.000 A 
BRANCH   2   7
ATOM      7  C   UNL     1       5.070   4.510  16.450  0.00  0.00    +0.000 C 
BRANCH   7   8
ATOM      8  C   UNL     1       5.441   5.481  15.334  0.00  0.00    +0.000 C 
BRANCH   8   9
ATOM      9  C   UNL     1       6.494   4.871  14.453  0.00  0.00    +0.000 C 
ATOM     10  O   UNL     1       7.634   5.278  14.336  0.00  0.00    +0.000 OA
BRANCH   9  12
ATOM     11  C   UNL     1       6.471   3.582  12.494  0.00  0.00    +0.000 C 
ATOM     12  O   UNL     1       5.978   3.773  13.820  0.00  0.00    +0.000 OA
ENDBRANCH   9  12
ENDBRANCH   8   9
ENDBRANCH   7   8
ENDBRANCH   2   7
ENDBRANCH   1   6
BRANCH   1  13
ATOM     13  N   UNL     1       2.830   4.754  19.084  0.00  0.00    +0.000 N 
ATOM     14  C   UNL     1       2.379   4.285  20.298  0.00  0.00    +0.000 C 
ATOM     15  O   UNL     1       2.696   4.829  21.356  0.00  0.00    +0.000 OA
ATOM     16  H   UNL     1       2.360   4.452  18.237  0.00  0.00    +0.000 HD
BRANCH  14  17
ATOM     17  C   UNL     1       1.532   2.969  20.257  0.00  0.00    +0.000 C 
ATOM     18  C   UNL     1       2.052   1.978  19.213  0.00  0.00    +0.000 C 
ATOM     19  C   UNL     1       1.525   2.335  21.651  0.00  0.00    +0.000 C 
BRANCH  17  20
ATOM     20  N   UNL     1       0.132   3.301  19.900  0.00  0.00    +0.000 NA
ATOM     21  H   UNL     1      -0.124   2.773  19.063  0.00  0.00    +0.000 HD
ATOM     22  H   UNL     1       0.107   4.274  19.588  0.00  0.00    +0.000 HD
ENDBRANCH  17  20
ENDBRANCH  14  17
ENDBRANCH   1  13
BRANCH   1  23
ATOM     23  C   UNL     1       3.219   6.814  17.773  0.00  0.00    +0.000 C 
BRANCH  23  24
ATOM     24  C   UNL     1       2.468   8.059  18.142  0.00  0.00    +0.000 A 
ATOM     25  C   UNL     1       2.292   9.166  17.334  0.00  0.00    +0.000 A 
ATOM     26  N   UNL     1       1.513  10.070  18.001  0.00  0.00    +0.000 N 
ATOM     27  C   UNL     1       1.247   9.618  19.270  0.00  0.00    +0.000 A 
ATOM     28  C   UNL     1       0.559  10.241  20.319  0.00  0.00    +0.000 A 
ATOM     29  C   UNL     1       0.474   9.554  21.532  0.00  0.00    +0.000 A 
ATOM     30  C   UNL     1       1.008   8.274  21.670  0.00  0.00    +0.000 A 
ATOM     31  C   UNL     1       1.661   7.651  20.598  0.00  0.00    +0.000 A 
ATOM     32  C   UNL     1       1.812   8.346  19.382  0.00  0.00    +0.000 A 
ATOM     33  H   UNL     1       1.209  10.961  17.632  0.00  0.00    +0.000 HD
ENDBRANCH  23  24
ENDBRANCH   1  23
TORSDOF 10
ENDMDL
