MODEL 1
REMARK VINA RESULT:      -6.9      0.000      0.000
REMARK  Name = 
REMARK  9 active torsions:
REMARK  status: ('A' for Active; 'I' for Inactive)
REMARK    1  A    between atoms: C_1  and  C_2
REMARK    2  A    between atoms: C_2  and  C_3
REMARK    3  A    between atoms: C_3  and  C_4
REMARK    4  A    between atoms: N_6  and  C_7
REMARK    5  A    between atoms: N_14  and  N_15
REMARK    6  A    between atoms: C_16  and  C_18
REMARK    7  A    between atoms: N_20  and  C_21
REMARK    8  A    between atoms: C_21  and  C_22
REMARK    9  A    between atoms: C_22  and  O_23
REMARK                            x       y       z     vdW  Elec       q    Type
REMARK                         _______ _______ _______ _____ _____    ______ ____
ROOT
ATOM      1  C   UNL     1       3.682   2.274  18.230  0.00  0.00    +0.000 C 
ATOM      2  C   UNL     1       3.916   3.496  19.089  0.00  0.00    +0.000 C 
ATOM      3  N   UNL     1       4.847   4.379  18.859  0.00  0.00    +0.000 NA
ENDROOT
BRANCH   3   4
ATOM      4  N   UNL     1       5.651   4.187  17.763  0.00  0.00    +0.000 N 
ATOM      5  C   UNL     1       5.548   4.975  16.631  0.00  0.00    +0.000 C 
ATOM      6  O   UNL     1       4.788   5.909  16.414  0.00  0.00    +0.000 OA
ATOM      7  H   UNL     1       6.363   3.457  17.746  0.00  0.00    +0.000 HD
BRANCH   5   8
ATOM      8  C   UNL     1       6.573   4.547  15.552  0.00  0.00    +0.000 C 
ATOM      9  O   UNL     1       7.740   4.370  15.855  0.00  0.00    +0.000 OA
ATOM     10  N   UNL     1       6.031   4.398  14.294  0.00  0.00    +0.000 N 
ATOM     11  H   UNL     1       5.036   4.599  14.191  0.00  0.00    +0.000 HD
BRANCH  10  12
ATOM     12  C   UNL     1       6.818   4.031  13.130  0.00  0.00    +0.000 C 
BRANCH  12  13
ATOM     13  C   UNL     1       5.962   3.416  12.023  0.00  0.00    +0.000 C 
BRANCH  13  14
ATOM     14  O   UNL     1       5.887   2.000  12.182  0.00  0.00    +0.000 OA
ATOM     15  H   UNL     1       5.701   1.632  11.300  0.00  0.00    +0.000 HD
ENDBRANCH  13  14
ENDBRANCH  12  13
ENDBRANCH  10  12
ENDBRANCH   5   8
ENDBRANCH   3   4
BRANCH   2  16
ATOM     16  C   UNL     1       3.044   3.687  20.322  0.00  0.00    +0.000 C 
BRANCH  16  17
ATOM     17  C   UNL     1       2.148   4.901  20.281  0.00  0.00    +0.000 C 
ATOM     18  O   UNL     1       0.939   4.812  20.489  0.00  0.00    +0.000 OA
ATOM     19  N   UNL     1       2.802   6.099  20.004  0.00  0.00    +0.000 N 
ATOM     20  H   UNL     1       3.644   6.024  19.445  0.00  0.00    +0.000 HD
BRANCH  19  21
ATOM     21  C   UNL     1       2.082   7.308  19.911  0.00  0.00    +0.000 A 
ATOM     22  C   UNL     1       2.008   8.023  18.710  0.00  0.00    +0.000 A 
ATOM     23  C   UNL     1       1.412   9.285  18.676  0.00  0.00    +0.000 A 
ATOM     24  C   UNL     1       0.907   9.837  19.849  0.00  0.00    +0.000 A 
ATOM     25 CL   UNL     1       0.279  11.439  19.838  0.00  0.00    +0.000 Cl
ATOM     26  C   UNL     1       0.930   9.109  21.038  0.00  0.00    +0.000 A 
ATOM     27  C   UNL     1       1.488   7.826  21.062  0.00  0.00    +0.000 A 
ENDBRANCH  19  21
ENDBRANCH  16  17
ENDBRANCH   2  16
TORSDOF 8
ENDMDL
MODEL 2
REMARK VINA RESULT:      -6.9      1.018      1.033
REMARK  Name = 
REMARK  9 active torsions:
REMARK  status: ('A' for Active; 'I' for Inactive)
REMARK    1  A    between atoms: C_1  and  C_2
REMARK    2  A    between atoms: C_2  and  C_3
REMARK    3  A    between atoms: C_3  and  C_4
REMARK    4  A    between atoms: N_6  and  C_7
REMARK    5  A    between atoms: N_14  and  N_15
REMARK    6  A    between atoms: C_16  and  C_18
REMARK    7  A    between atoms: N_20  and  C_21
REMARK    8  A    between atoms: C_21  and  C_22
REMARK    9  A    between atoms: C_22  and  O_23
REMARK                            x       y       z     vdW  Elec       q    Type
REMARK                         _______ _______ _______ _____ _____    ______ ____
ROOT
ATOM      1  C   UNL     1       3.779   2.766  17.605  0.00  0.00    +0.000 C 
ATOM      2  C   UNL     1       4.082   4.008  18.411  0.00  0.00    +0.000 C 
ATOM      3  N   UNL     1       4.828   4.988  17.985  0.00  0.00    +0.000 NA
ENDROOT
BRANCH   3   4
ATOM      4  N   UNL     1       5.359   4.883  16.723  0.00  0.00    +0.000 N 
ATOM      5  C   UNL     1       6.716   4.996  16.487  0.00  0.00    +0.000 C 
ATOM      6  O   UNL     1       7.620   5.194  17.288  0.00  0.00    +0.000 OA
ATOM      7  H   UNL     1       4.769   4.708  15.911  0.00  0.00    +0.000 HD
BRANCH   5   8
ATOM      8  C   UNL     1       7.042   4.832  14.982  0.00  0.00    +0.000 C 
ATOM      9  O   UNL     1       7.956   5.466  14.483  0.00  0.00    +0.000 OA
ATOM     10  N   UNL     1       6.225   3.936  14.327  0.00  0.00    +0.000 N 
ATOM     11  H   UNL     1       5.489   3.493  14.877  0.00  0.00    +0.000 HD
BRANCH  10  12
ATOM     12  C   UNL     1       6.338   3.653  12.907  0.00  0.00    +0.000 C 
BRANCH  12  13
ATOM     13  C   UNL     1       4.982   3.355  12.268  0.00  0.00    +0.000 C 
BRANCH  13  14
ATOM     14  O   UNL     1       5.085   2.239  11.384  0.00  0.00    +0.000 OA
ATOM     15  H   UNL     1       4.810   2.557  10.505  0.00  0.00    +0.000 HD
ENDBRANCH  13  14
ENDBRANCH  12  13
ENDBRANCH  10  12
ENDBRANCH   5   8
ENDBRANCH   3   4
BRANCH   2  16
ATOM     16  C   UNL     1       3.519   4.104  19.822  0.00  0.00    +0.000 C 
BRANCH  16  17
ATOM     17  C   UNL     1       2.488   5.190  20.019  0.00  0.00    +0.000 C 
ATOM     18  O   UNL     1       1.356   4.932  20.427  0.00  0.00    +0.000 OA
ATOM     19  N   UNL     1       2.930   6.476  19.713  0.00  0.00    +0.000 N 
ATOM     20  H   UNL     1       3.659   6.537  19.013  0.00  0.00    +0.000 HD
BRANCH  19  21
ATOM     21  C   UNL     1       2.062   7.581  19.829  0.00  0.00    +0.000 A 
ATOM     22  C   UNL     1       1.849   8.456  18.757  0.00  0.00    +0.000 A 
ATOM     23  C   UNL     1       1.101   9.621  18.936  0.00  0.00    +0.000 A 
ATOM     24  C   UNL     1       0.581   9.917  20.193  0.00  0.00    +0.000 A 
ATOM     25 CL   UNL     1      -0.241  11.407  20.448  0.00  0.00    +0.000 Cl
ATOM     26  C   UNL     1       0.745   9.023  21.252  0.00  0.00    +0.000 A 
ATOM     27  C   UNL     1       1.457   7.835  21.060  0.00  0.00    +0.000 A 
ENDBRANCH  19  21
ENDBRANCH  16  17
ENDBRANCH   2  16
TORSDOF 8
ENDMDL
MODEL 3
REMARK VINA RESULT:      -6.8      1.142      1.563
REMARK  Name = 
REMARK  9 active torsions:
REMARK  status: ('A' for Active; 'I' for Inactive)
REMARK    1  A    between atoms: C_1  and  C_2
REMARK    2  A    between atoms: C_2  and  C_3
REMARK    3  A    between atoms: C_3  and  C_4
REMARK    4  A    between atoms: N_6  and  C_7
REMARK    5  A    between atoms: N_14  and  N_15
REMARK    6  A    between atoms: C_16  and  C_18
REMARK    7  A    between atoms: N_20  and  C_21
REMARK    8  A    between atoms: C_21  and  C_22
REMARK    9  A    between atoms: C_22  and  O_23
REMARK                            x       y       z     vdW  Elec       q    Type
REMARK                         _______ _______ _______ _____ _____    ______ ____
ROOT
ATOM      1  C   UNL     1       3.078   3.362  17.013  0.00  0.00    +0.000 C 
ATOM      2  C   UNL     1       3.870   4.050  18.102  0.00  0.00    +0.000 C 
ATOM      3  N   UNL     1       4.997   4.673  17.900  0.00  0.00    +0.000 NA
ENDROOT
BRANCH   3   4
ATOM      4  N   UNL     1       5.483   4.710  16.616  0.00  0.00    +0.000 N 
ATOM      5  C   UNL     1       6.833   4.603  16.340  0.00  0.00    +0.000 C 
ATOM      6  O   UNL     1       7.766   4.467  17.120  0.00  0.00    +0.000 OA
ATOM      7  H   UNL     1       4.861   4.810  15.814  0.00  0.00    +0.000 HD
BRANCH   5   8
ATOM      8  C   UNL     1       7.104   4.670  14.817  0.00  0.00    +0.000 C 
ATOM      9  O   UNL     1       7.998   5.377  14.387  0.00  0.00    +0.000 OA
ATOM     10  N   UNL     1       6.265   3.877  14.064  0.00  0.00    +0.000 N 
ATOM     11  H   UNL     1       5.550   3.351  14.567  0.00  0.00    +0.000 HD
BRANCH  10  12
ATOM     12  C   UNL     1       6.326   3.812  12.614  0.00  0.00    +0.000 C 
BRANCH  12  13
ATOM     13  C   UNL     1       5.856   2.461  12.076  0.00  0.00    +0.000 C 
BRANCH  13  14
ATOM     14  O   UNL     1       4.678   2.624  11.287  0.00  0.00    +0.000 OA
ATOM     15  H   UNL     1       4.974   2.694  10.361  0.00  0.00    +0.000 HD
ENDBRANCH  13  14
ENDBRANCH  12  13
ENDBRANCH  10  12
ENDBRANCH   5   8
ENDBRANCH   3   4
BRANCH   2  16
ATOM     16  C   UNL     1       3.344   3.976  19.528  0.00  0.00    +0.000 C 
BRANCH  16  17
ATOM     17  C   UNL     1       2.463   5.133  19.938  0.00  0.00    +0.000 C 
ATOM     18  O   UNL     1       1.504   4.972  20.692  0.00  0.00    +0.000 OA
ATOM     19  N   UNL     1       2.833   6.365  19.404  0.00  0.00    +0.000 N 
ATOM     20  H   UNL     1       3.312   6.334  18.512  0.00  0.00    +0.000 HD
BRANCH  19  21
ATOM     21  C   UNL     1       2.082   7.526  19.686  0.00  0.00    +0.000 A 
ATOM     22  C   UNL     1       1.457   7.706  20.925  0.00  0.00    +0.000 A 
ATOM     23  C   UNL     1       0.604   8.791  21.132  0.00  0.00    +0.000 A 
ATOM     24  C   UNL     1       0.364   9.684  20.092  0.00  0.00    +0.000 A 
ATOM     25 CL   UNL     1      -0.777  10.955  20.303  0.00  0.00    +0.000 Cl
ATOM     26  C   UNL     1       1.024   9.539  18.872  0.00  0.00    +0.000 A 
ATOM     27  C   UNL     1       1.913   8.477  18.680  0.00  0.00    +0.000 A 
ENDBRANCH  19  21
ENDBRANCH  16  17
ENDBRANCH   2  16
TORSDOF 8
ENDMDL
MODEL 4
REMARK VINA RESULT:      -6.6      1.033      1.143
REMARK  Name = 
REMARK  9 active torsions:
REMARK  status: ('A' for Active; 'I' for Inactive)
REMARK    1  A    between atoms: C_1  and  C_2
REMARK    2  A    between atoms: C_2  and  C_3
REMARK    3  A    between atoms: C_3  and  C_4
REMARK    4  A    between atoms: N_6  and  C_7
REMARK    5  A    between atoms: N_14  and  N_15
REMARK    6  A    between atoms: C_16  and  C_18
REMARK    7  A    between atoms: N_20  and  C_21
REMARK    8  A    between atoms: C_21  and  C_22
REMARK    9  A    between atoms: C_22  and  O_23
REMARK                            x       y       z     vdW  Elec       q    Type
REMARK                         _______ _______ _______ _____ _____    ______ ____
ROOT
ATOM      1  C   UNL     1       6.027   4.396  19.106  0.00  0.00    +0.000 C 
ATOM      2  C   UNL     1       4.553   4.191  18.841  0.00  0.00    +0.000 C 
ATOM      3  N   UNL     1       4.044   4.016  17.654  0.00  0.00    +0.000 NA
ENDROOT
BRANCH   3   4
ATOM      4  N   UNL     1       4.907   4.010  16.585  0.00  0.00    +0.000 N 
ATOM      5  C   UNL     1       5.277   5.173  15.936  0.00  0.00    +0.000 C 
ATOM      6  O   UNL     1       4.934   6.324  16.169  0.00  0.00    +0.000 OA
ATOM      7  H   UNL     1       5.316   3.144  16.237  0.00  0.00    +0.000 HD
BRANCH   5   8
ATOM      8  C   UNL     1       6.260   4.881  14.775  0.00  0.00    +0.000 C 
ATOM      9  O   UNL     1       7.388   5.340  14.801  0.00  0.00    +0.000 OA
ATOM     10  N   UNL     1       5.731   4.087  13.781  0.00  0.00    +0.000 N 
ATOM     11  H   UNL     1       4.761   3.791  13.891  0.00  0.00    +0.000 HD
BRANCH  10  12
ATOM     12  C   UNL     1       6.470   3.715  12.587  0.00  0.00    +0.000 C 
BRANCH  12  13
ATOM     13  C   UNL     1       5.760   2.625  11.784  0.00  0.00    +0.000 C 
BRANCH  13  14
ATOM     14  O   UNL     1       4.418   3.015  11.496  0.00  0.00    +0.000 OA
ATOM     15  H   UNL     1       4.385   3.984  11.590  0.00  0.00    +0.000 HD
ENDBRANCH  13  14
ENDBRANCH  12  13
ENDBRANCH  10  12
ENDBRANCH   5   8
ENDBRANCH   3   4
BRANCH   2  16
ATOM     16  C   UNL     1       3.597   4.232  20.025  0.00  0.00    +0.000 C 
BRANCH  16  17
ATOM     17  C   UNL     1       2.553   5.321  19.957  0.00  0.00    +0.000 C 
ATOM     18  O   UNL     1       1.380   5.103  20.259  0.00  0.00    +0.000 OA
ATOM     19  N   UNL     1       3.031   6.562  19.542  0.00  0.00    +0.000 N 
ATOM     20  H   UNL     1       3.838   6.542  18.930  0.00  0.00    +0.000 HD
BRANCH  19  21
ATOM     21  C   UNL     1       2.157   7.662  19.411  0.00  0.00    +0.000 A 
ATOM     22  C   UNL     1       1.964   8.296  18.177  0.00  0.00    +0.000 A 
ATOM     23  C   UNL     1       1.209   9.467  18.098  0.00  0.00    +0.000 A 
ATOM     24  C   UNL     1       0.664  10.013  19.256  0.00  0.00    +0.000 A 
ATOM     25 CL   UNL     1      -0.166  11.518  19.183  0.00  0.00    +0.000 Cl
ATOM     26  C   UNL     1       0.809   9.358  20.480  0.00  0.00    +0.000 A 
ATOM     27  C   UNL     1       1.528   8.160  20.551  0.00  0.00    +0.000 A 
ENDBRANCH  19  21
ENDBRANCH  16  17
ENDBRANCH   2  16
TORSDOF 8
ENDMDL
MODEL 5
REMARK VINA RESULT:      -6.6      5.390      6.440
REMARK  Name = 
REMARK  9 active torsions:
REMARK  status: ('A' for Active; 'I' for Inactive)
REMARK    1  A    between atoms: C_1  and  C_2
REMARK    2  A    between atoms: C_2  and  C_3
REMARK    3  A    between atoms: C_3  and  C_4
REMARK    4  A    between atoms: N_6  and  C_7
REMARK    5  A    between atoms: N_14  and  N_15
REMARK    6  A    between atoms: C_16  and  C_18
REMARK    7  A    between atoms: N_20  and  C_21
REMARK    8  A    between atoms: C_21  and  C_22
REMARK    9  A    between atoms: C_22  and  O_23
REMARK                            x       y       z     vdW  Elec       q    Type
REMARK                         _______ _______ _______ _____ _____    ______ ____
ROOT
ATOM      1  C   UNL     1       5.734   6.889  17.280  0.00  0.00    +0.000 C 
ATOM      2  C   UNL     1       7.166   6.434  17.442  0.00  0.00    +0.000 C 
ATOM      3  N   UNL     1       7.696   5.447  16.775  0.00  0.00    +0.000 NA
ENDROOT
BRANCH   3   4
ATOM      4  N   UNL     1       6.902   4.795  15.864  0.00  0.00    +0.000 N 
ATOM      5  C   UNL     1       7.119   4.889  14.502  0.00  0.00    +0.000 C 
ATOM      6  O   UNL     1       7.984   5.516  13.905  0.00  0.00    +0.000 OA
ATOM      7  H   UNL     1       6.124   4.207  16.162  0.00  0.00    +0.000 HD
BRANCH   5   8
ATOM      8  C   UNL     1       6.085   4.053  13.708  0.00  0.00    +0.000 C 
ATOM      9  O   UNL     1       4.915   4.050  14.045  0.00  0.00    +0.000 OA
ATOM     10  N   UNL     1       6.623   3.366  12.641  0.00  0.00    +0.000 N 
ATOM     11  H   UNL     1       7.628   3.454  12.492  0.00  0.00    +0.000 HD
BRANCH  10  12
ATOM     12  C   UNL     1       5.837   2.499  11.780  0.00  0.00    +0.000 C 
BRANCH  12  13
ATOM     13  C   UNL     1       6.690   1.423  11.110  0.00  0.00    +0.000 C 
BRANCH  13  14
ATOM     14  O   UNL     1       6.182   0.125  11.415  0.00  0.00    +0.000 OA
ATOM     15  H   UNL     1       5.337   0.040  10.939  0.00  0.00    +0.000 HD
ENDBRANCH  13  14
ENDBRANCH  12  13
ENDBRANCH  10  12
ENDBRANCH   5   8
ENDBRANCH   3   4
BRANCH   2  16
ATOM     16  C   UNL     1       8.032   7.138  18.477  0.00  0.00    +0.000 C 
BRANCH  16  17
ATOM     17  C   UNL     1       8.250   8.611  18.222  0.00  0.00    +0.000 C 
ATOM     18  O   UNL     1       7.701   9.186  17.283  0.00  0.00    +0.000 OA
ATOM     19  N   UNL     1       9.098   9.240  19.130  0.00  0.00    +0.000 N 
ATOM     20  H   UNL     1       9.803   8.652  19.557  0.00  0.00    +0.000 HD
BRANCH  19  21
ATOM     21  C   UNL     1       9.408  10.610  18.995  0.00  0.00    +0.000 A 
ATOM     22  C   UNL     1       8.960  11.553  19.928  0.00  0.00    +0.000 A 
ATOM     23  C   UNL     1       9.155  12.917  19.700  0.00  0.00    +0.000 A 
ATOM     24  C   UNL     1       9.781  13.335  18.530  0.00  0.00    +0.000 A 
ATOM     25 CL   UNL     1       9.918  15.015  18.188  0.00  0.00    +0.000 Cl
ATOM     26  C   UNL     1      10.276  12.398  17.622  0.00  0.00    +0.000 A 
ATOM     27  C   UNL     1      10.120  11.031  17.872  0.00  0.00    +0.000 A 
ENDBRANCH  19  21
ENDBRANCH  16  17
ENDBRANCH   2  16
TORSDOF 8
ENDMDL
MODEL 6
REMARK VINA RESULT:      -6.5      3.388      7.440
REMARK  Name = 
REMARK  9 active torsions:
REMARK  status: ('A' for Active; 'I' for Inactive)
REMARK    1  A    between atoms: C_1  and  C_2
REMARK    2  A    between atoms: C_2  and  C_3
REMARK    3  A    between atoms: C_3  and  C_4
REMARK    4  A    between atoms: N_6  and  C_7
REMARK    5  A    between atoms: N_14  and  N_15
REMARK    6  A    between atoms: C_16  and  C_18
REMARK    7  A    between atoms: N_20  and  C_21
REMARK    8  A    between atoms: C_21  and  C_22
REMARK    9  A    between atoms: C_22  and  O_23
REMARK                            x       y       z     vdW  Elec       q    Type
REMARK                         _______ _______ _______ _____ _____    ______ ____
ROOT
ATOM      1  C   UNL     1       1.078   3.892  20.564  0.00  0.00    +0.000 C 
ATOM      2  C   UNL     1       2.544   4.104  20.263  0.00  0.00    +0.000 C 
ATOM      3  N   UNL     1       3.123   5.272  20.246  0.00  0.00    +0.000 NA
ENDROOT
BRANCH   3   4
ATOM      4  N   UNL     1       2.348   6.370  20.530  0.00  0.00    +0.000 N 
ATOM      5  C   UNL     1       2.243   7.437  19.657  0.00  0.00    +0.000 C 
ATOM      6  O   UNL     1       2.773   7.590  18.565  0.00  0.00    +0.000 OA
ATOM      7  H   UNL     1       1.813   6.435  21.395  0.00  0.00    +0.000 HD
BRANCH   5   8
ATOM      8  C   UNL     1       1.305   8.534  20.219  0.00  0.00    +0.000 C 
ATOM      9  O   UNL     1       1.070   8.582  21.414  0.00  0.00    +0.000 OA
ATOM     10  N   UNL     1       0.810   9.391  19.261  0.00  0.00    +0.000 N 
ATOM     11  H   UNL     1       1.084   9.214  18.294  0.00  0.00    +0.000 HD
BRANCH  10  12
ATOM     12  C   UNL     1      -0.110  10.473  19.565  0.00  0.00    +0.000 C 
BRANCH  12  13
ATOM     13  C   UNL     1      -1.331  10.470  18.646  0.00  0.00    +0.000 C 
BRANCH  13  14
ATOM     14  O   UNL     1      -0.951  10.120  17.316  0.00  0.00    +0.000 OA
ATOM     15  H   UNL     1      -1.752  10.203  16.769  0.00  0.00    +0.000 HD
ENDBRANCH  13  14
ENDBRANCH  12  13
ENDBRANCH  10  12
ENDBRANCH   5   8
ENDBRANCH   3   4
BRANCH   2  16
ATOM     16  C   UNL     1       3.391   2.887  19.917  0.00  0.00    +0.000 C 
BRANCH  16  17
ATOM     17  C   UNL     1       4.038   2.934  18.553  0.00  0.00    +0.000 C 
ATOM     18  O   UNL     1       3.827   2.060  17.713  0.00  0.00    +0.000 OA
ATOM     19  N   UNL     1       4.865   4.035  18.338  0.00  0.00    +0.000 N 
ATOM     20  H   UNL     1       5.304   4.425  19.163  0.00  0.00    +0.000 HD
BRANCH  19  21
ATOM     21  C   UNL     1       5.551   4.191  17.116  0.00  0.00    +0.000 A 
ATOM     22  C   UNL     1       6.930   4.432  17.080  0.00  0.00    +0.000 A 
ATOM     23  C   UNL     1       7.563   4.726  15.871  0.00  0.00    +0.000 A 
ATOM     24  C   UNL     1       6.811   4.795  14.702  0.00  0.00    +0.000 A 
ATOM     25 CL   UNL     1       7.564   5.272  13.230  0.00  0.00    +0.000 Cl
ATOM     26  C   UNL     1       5.447   4.505  14.723  0.00  0.00    +0.000 A 
ATOM     27  C   UNL     1       4.822   4.167  15.927  0.00  0.00    +0.000 A 
ENDBRANCH  19  21
ENDBRANCH  16  17
ENDBRANCH   2  16
TORSDOF 8
ENDMDL
MODEL 7
REMARK VINA RESULT:      -6.5      5.975      7.647
REMARK  Name = 
REMARK  9 active torsions:
REMARK  status: ('A' for Active; 'I' for Inactive)
REMARK    1  A    between atoms: C_1  and  C_2
REMARK    2  A    between atoms: C_2  and  C_3
REMARK    3  A    between atoms: C_3  and  C_4
REMARK    4  A    between atoms: N_6  and  C_7
REMARK    5  A    between atoms: N_14  and  N_15
REMARK    6  A    between atoms: C_16  and  C_18
REMARK    7  A    between atoms: N_20  and  C_21
REMARK    8  A    between atoms: C_21  and  C_22
REMARK    9  A    between atoms: C_22  and  O_23
REMARK                            x       y       z     vdW  Elec       q    Type
REMARK                         _______ _______ _______ _____ _____    ______ ____
ROOT
ATOM      1  C   UNL     1       8.001   6.492  18.750  0.00  0.00    +0.000 C 
ATOM      2  C   UNL     1       7.467   7.317  17.602  0.00  0.00    +0.000 C 
ATOM      3  N   UNL     1       7.765   8.571  17.405  0.00  0.00    +0.000 NA
ENDROOT
BRANCH   3   4
ATOM      4  N   UNL     1       8.626   9.167  18.294  0.00  0.00    +0.000 N 
ATOM      5  C   UNL     1       8.837  10.534  18.304  0.00  0.00    +0.000 C 
ATOM      6  O   UNL     1       8.342  11.392  17.586  0.00  0.00    +0.000 OA
ATOM      7  H   UNL     1       9.136   8.622  18.988  0.00  0.00    +0.000 HD
BRANCH   5   8
ATOM      8  C   UNL     1       9.848  10.939  19.406  0.00  0.00    +0.000 C 
ATOM      9  O   UNL     1       9.599  10.707  20.576  0.00  0.00    +0.000 OA
ATOM     10  N   UNL     1      10.986  11.548  18.925  0.00  0.00    +0.000 N 
ATOM     11  H   UNL     1      11.045  11.690  17.916  0.00  0.00    +0.000 HD
BRANCH  10  12
ATOM     12  C   UNL     1      12.050  12.034  19.786  0.00  0.00    +0.000 C 
BRANCH  12  13
ATOM     13  C   UNL     1      12.331  13.521  19.576  0.00  0.00    +0.000 C 
BRANCH  13  14
ATOM     14  O   UNL     1      11.760  13.965  18.346  0.00  0.00    +0.000 OA
ATOM     15  H   UNL     1      12.504  14.129  17.739  0.00  0.00    +0.000 HD
ENDBRANCH  13  14
ENDBRANCH  12  13
ENDBRANCH  10  12
ENDBRANCH   5   8
ENDBRANCH   3   4
BRANCH   2  16
ATOM     16  C   UNL     1       6.487   6.661  16.639  0.00  0.00    +0.000 C 
BRANCH  16  17
ATOM     17  C   UNL     1       5.220   6.146  17.280  0.00  0.00    +0.000 C 
ATOM     18  O   UNL     1       4.323   6.911  17.631  0.00  0.00    +0.000 OA
ATOM     19  N   UNL     1       5.161   4.761  17.422  0.00  0.00    +0.000 N 
ATOM     20  H   UNL     1       6.051   4.288  17.519  0.00  0.00    +0.000 HD
BRANCH  19  21
ATOM     21  C   UNL     1       4.044   4.148  18.027  0.00  0.00    +0.000 A 
ATOM     22  C   UNL     1       2.891   3.846  17.292  0.00  0.00    +0.000 A 
ATOM     23  C   UNL     1       1.747   3.372  17.937  0.00  0.00    +0.000 A 
ATOM     24  C   UNL     1       1.754   3.217  19.320  0.00  0.00    +0.000 A 
ATOM     25 CL   UNL     1       0.313   2.747  20.134  0.00  0.00    +0.000 Cl
ATOM     26  C   UNL     1       2.916   3.466  20.052  0.00  0.00    +0.000 A 
ATOM     27  C   UNL     1       4.074   3.899  19.399  0.00  0.00    +0.000 A 
ENDBRANCH  19  21
ENDBRANCH  16  17
ENDBRANCH   2  16
TORSDOF 8
ENDMDL
MODEL 8
REMARK VINA RESULT:      -6.5      1.644      1.710
REMARK  Name = 
REMARK  9 active torsions:
REMARK  status: ('A' for Active; 'I' for Inactive)
REMARK    1  A    between atoms: C_1  and  C_2
REMARK    2  A    between atoms: C_2  and  C_3
REMARK    3  A    between atoms: C_3  and  C_4
REMARK    4  A    between atoms: N_6  and  C_7
REMARK    5  A    between atoms: N_14  and  N_15
REMARK    6  A    between atoms: C_16  and  C_18
REMARK    7  A    between atoms: N_20  and  C_21
REMARK    8  A    between atoms: C_21  and  C_22
REMARK    9  A    between atoms: C_22  and  O_23
REMARK                            x       y       z     vdW  Elec       q    Type
REMARK                         _______ _______ _______ _____ _____    ______ ____
ROOT
ATOM      1  C   UNL     1       3.544   2.644  19.258  0.00  0.00    +0.000 C 
ATOM      2  C   UNL     1       3.361   4.086  19.673  0.00  0.00    +0.000 C 
ATOM      3  N   UNL     1       3.967   5.090  19.104  0.00  0.00    +0.000 NA
ENDROOT
BRANCH   3   4
ATOM      4  N   UNL     1       4.813   4.813  18.059  0.00  0.00    +0.000 N 
ATOM      5  C   UNL     1       6.183   4.728  18.228  0.00  0.00    +0.000 C 
ATOM      6  O   UNL     1       6.840   4.872  19.250  0.00  0.00    +0.000 OA
ATOM      7  H   UNL     1       4.460   4.650  17.116  0.00  0.00    +0.000 HD
BRANCH   5   8
ATOM      8  C   UNL     1       6.896   4.400  16.892  0.00  0.00    +0.000 C 
ATOM      9  O   UNL     1       8.113   4.411  16.832  0.00  0.00    +0.000 OA
ATOM     10  N   UNL     1       6.036   4.110  15.856  0.00  0.00    +0.000 N 
ATOM     11  H   UNL     1       5.036   4.157  16.055  0.00  0.00    +0.000 HD
BRANCH  10  12
ATOM     12  C   UNL     1       6.491   3.803  14.511  0.00  0.00    +0.000 C 
BRANCH  12  13
ATOM     13  C   UNL     1       6.808   5.063  13.706  0.00  0.00    +0.000 C 
BRANCH  13  14
ATOM     14  O   UNL     1       8.111   5.545  14.032  0.00  0.00    +0.000 OA
ATOM     15  H   UNL     1       8.606   4.786  14.388  0.00  0.00    +0.000 HD
ENDBRANCH  13  14
ENDBRANCH  12  13
ENDBRANCH  10  12
ENDBRANCH   5   8
ENDBRANCH   3   4
BRANCH   2  16
ATOM     16  C   UNL     1       2.448   4.384  20.854  0.00  0.00    +0.000 C 
BRANCH  16  17
ATOM     17  C   UNL     1       1.569   5.600  20.682  0.00  0.00    +0.000 C 
ATOM     18  O   UNL     1       0.349   5.497  20.558  0.00  0.00    +0.000 OA
ATOM     19  N   UNL     1       2.249   6.816  20.689  0.00  0.00    +0.000 N 
ATOM     20  H   UNL     1       3.208   6.787  20.365  0.00  0.00    +0.000 HD
BRANCH  19  21
ATOM     21  C   UNL     1       1.553   8.031  20.514  0.00  0.00    +0.000 A 
ATOM     22  C   UNL     1       1.476   8.652  19.262  0.00  0.00    +0.000 A 
ATOM     23  C   UNL     1       0.907   9.921  19.139  0.00  0.00    +0.000 A 
ATOM     24  C   UNL     1       0.432  10.573  20.273  0.00  0.00    +0.000 A 
ATOM     25 CL   UNL     1      -0.162  12.183  20.147  0.00  0.00    +0.000 Cl
ATOM     26  C   UNL     1       0.458   9.937  21.514  0.00  0.00    +0.000 A 
ATOM     27  C   UNL     1       0.988   8.648  21.629  0.00  0.00    +0.000 A 
ENDBRANCH  19  21
ENDBRANCH  16  17
ENDBRANCH   2  16
TORSDOF 8
ENDMDL
MODEL 9
REMARK VINA RESULT:      -6.4      5.733      7.947
REMARK  Name = 
REMARK  9 active torsions:
REMARK  status: ('A' for Active; 'I' for Inactive)
REMARK    1  A    between atoms: C_1  and  C_2
REMARK    2  A    between atoms: C_2  and  C_3
REMARK    3  A    between atoms: C_3  and  C_4
REMARK    4  A    between atoms: N_6  and  C_7
REMARK    5  A    between atoms: N_14  and  N_15
REMARK    6  A    between atoms: C_16  and  C_18
REMARK    7  A    between atoms: N_20  and  C_21
REMARK    8  A    between atoms: C_21  and  C_22
REMARK    9  A    between atoms: C_22  and  O_23
REMARK                            x       y       z     vdW  Elec       q    Type
REMARK                         _______ _______ _______ _____ _____    ______ ____
ROOT
ATOM      1  C   UNL     1       8.251   6.783  18.979  0.00  0.00    +0.000 C 
ATOM      2  C   UNL     1       7.776   7.572  17.781  0.00  0.00    +0.000 C 
ATOM      3  N   UNL     1       7.976   8.851  17.626  0.00  0.00    +0.000 NA
ENDROOT
BRANCH   3   4
ATOM      4  N   UNL     1       8.669   9.511  18.611  0.00  0.00    +0.000 N 
ATOM      5  C   UNL     1       8.916  10.870  18.548  0.00  0.00    +0.000 C 
ATOM      6  O   UNL     1       8.593  11.669  17.679  0.00  0.00    +0.000 OA
ATOM      7  H   UNL     1       9.020   9.022  19.434  0.00  0.00    +0.000 HD
BRANCH   5   8
ATOM      8  C   UNL     1       9.709  11.356  19.787  0.00  0.00    +0.000 C 
ATOM      9  O   UNL     1      10.871  11.021  19.937  0.00  0.00    +0.000 OA
ATOM     10  N   UNL     1       8.983  12.164  20.634  0.00  0.00    +0.000 N 
ATOM     11  H   UNL     1       8.010  12.345  20.382  0.00  0.00    +0.000 HD
BRANCH  10  12
ATOM     12  C   UNL     1       9.523  12.707  21.868  0.00  0.00    +0.000 C 
BRANCH  12  13
ATOM     13  C   UNL     1       8.645  12.381  23.076  0.00  0.00    +0.000 C 
BRANCH  13  14
ATOM     14  O   UNL     1       8.567  10.970  23.266  0.00  0.00    +0.000 OA
ATOM     15  H   UNL     1       8.579  10.570  22.378  0.00  0.00    +0.000 HD
ENDBRANCH  13  14
ENDBRANCH  12  13
ENDBRANCH  10  12
ENDBRANCH   5   8
ENDBRANCH   3   4
BRANCH   2  16
ATOM     16  C   UNL     1       6.980   6.843  16.708  0.00  0.00    +0.000 C 
BRANCH  16  17
ATOM     17  C   UNL     1       5.669   6.259  17.181  0.00  0.00    +0.000 C 
ATOM     18  O   UNL     1       4.663   6.958  17.300  0.00  0.00    +0.000 OA
ATOM     19  N   UNL     1       5.703   4.893  17.451  0.00  0.00    +0.000 N 
ATOM     20  H   UNL     1       6.600   4.522  17.741  0.00  0.00    +0.000 HD
BRANCH  19  21
ATOM     21  C   UNL     1       4.554   4.224  17.923  0.00  0.00    +0.000 A 
ATOM     22  C   UNL     1       3.581   3.738  17.043  0.00  0.00    +0.000 A 
ATOM     23  C   UNL     1       2.387   3.208  17.534  0.00  0.00    +0.000 A 
ATOM     24  C   UNL     1       2.161   3.183  18.908  0.00  0.00    +0.000 A 
ATOM     25 CL   UNL     1       0.645   2.641  19.514  0.00  0.00    +0.000 Cl
ATOM     26  C   UNL     1       3.148   3.618  19.792  0.00  0.00    +0.000 A 
ATOM     27  C   UNL     1       4.362   4.107  19.300  0.00  0.00    +0.000 A 
ENDBRANCH  19  21
ENDBRANCH  16  17
ENDBRANCH   2  16
TORSDOF 8
ENDMDL
