MODEL 1
REMARK VINA RESULT:      -8.8      0.000      0.000
REMARK  Name = 
REMARK  7 active torsions:
REMARK  status: ('A' for Active; 'I' for Inactive)
REMARK    1  A    between atoms: C_1  and  C_2
REMARK    2  A    between atoms: C_6  and  N_7
REMARK    3  A    between atoms: C_11  and  C_13
REMARK    4  A    between atoms: C_13  and  C_14
REMARK    5  A    between atoms: C_14  and  C_15
REMARK    6  A    between atoms: C_15  and  N_16
REMARK    7  A    between atoms: C_29  and  C_30
REMARK                            x       y       z     vdW  Elec       q    Type
REMARK                         _______ _______ _______ _____ _____    ______ ____
ROOT
ATOM      1  N   UNL     1       4.923   4.995  17.788  0.00  0.00    +0.000 N 
ATOM      2  C   UNL     1       5.997   4.944  18.811  0.00  0.00    +0.000 C 
ATOM      3  C   UNL     1       7.327   5.331  18.172  0.00  0.00    +0.000 C 
ATOM      4  N   UNL     1       7.236   6.692  17.653  0.00  0.00    +0.000 N 
ATOM      5  C   UNL     1       8.047   7.652  18.213  0.00  0.00    +0.000 C 
ATOM      6  O   UNL     1       8.819   7.399  19.146  0.00  0.00    +0.000 OA
ATOM      7  C   UNL     1       6.135   6.889  16.688  0.00  0.00    +0.000 C 
ATOM      8  C   UNL     1       4.762   6.362  17.212  0.00  0.00    +0.000 C 
ENDROOT
BRANCH   1  14
ATOM      9  C   UNL     1       0.747   3.994  20.436  0.00  0.00    +0.000 C 
ATOM     10  C   UNL     1       1.710   3.704  19.310  0.00  0.00    +0.000 A 
ATOM     11  C   UNL     1       1.579   2.501  18.610  0.00  0.00    +0.000 A 
ATOM     12  C   UNL     1       2.464   2.195  17.588  0.00  0.00    +0.000 A 
ATOM     13  C   UNL     1       3.522   3.056  17.302  0.00  0.00    +0.000 A 
ATOM     14  C   UNL     1       3.753   4.247  18.031  0.00  0.00    +0.000 A 
ATOM     15  C   UNL     1       2.767   4.608  18.991  0.00  0.00    +0.000 A 
ATOM     16  C   UNL     1       2.774   5.915  19.757  0.00  0.00    +0.000 C 
ENDBRANCH   1  14
BRANCH   5  17
ATOM     17  C   UNL     1       7.951   9.070  17.694  0.00  0.00    +0.000 C 
BRANCH  17  18
ATOM     18  C   UNL     1       8.693  10.043  18.606  0.00  0.00    +0.000 C 
BRANCH  18  19
ATOM     19  C   UNL     1       9.677  10.935  17.841  0.00  0.00    +0.000 C 
BRANCH  19  20
ATOM     20  N   UNL     1       9.486  12.357  18.131  0.00  0.00    +0.000 N 
ATOM     21  C   UNL     1       8.379  12.994  17.562  0.00  0.00    +0.000 A 
ATOM     22  O   UNL     1       7.545  12.425  16.861  0.00  0.00    +0.000 OA
ATOM     23  N   UNL     1       8.210  14.332  17.843  0.00  0.00    +0.000 N 
ATOM     24  C   UNL     1       9.078  15.032  18.644  0.00  0.00    +0.000 A 
ATOM     25  C   UNL     1       9.053  16.406  18.988  0.00  0.00    +0.000 A 
ATOM     26  C   UNL     1      10.111  16.736  19.812  0.00  0.00    +0.000 A 
ATOM     27  S   UNL     1      11.097  15.378  20.174  0.00  0.00    +0.000 S 
ATOM     28  C   UNL     1      10.107  14.364  19.246  0.00  0.00    +0.000 A 
ATOM     29  C   UNL     1      10.297  12.949  19.104  0.00  0.00    +0.000 A 
ATOM     30  O   UNL     1      11.072  12.289  19.821  0.00  0.00    +0.000 OA
ATOM     31  H   UNL     1       7.409  14.790  17.428  0.00  0.00    +0.000 HD
ENDBRANCH  19  20
ENDBRANCH  18  19
ENDBRANCH  17  18
ENDBRANCH   5  17
TORSDOF 5
ENDMDL
MODEL 2
REMARK VINA RESULT:      -8.7      0.970      1.720
REMARK  Name = 
REMARK  7 active torsions:
REMARK  status: ('A' for Active; 'I' for Inactive)
REMARK    1  A    between atoms: C_1  and  C_2
REMARK    2  A    between atoms: C_6  and  N_7
REMARK    3  A    between atoms: C_11  and  C_13
REMARK    4  A    between atoms: C_13  and  C_14
REMARK    5  A    between atoms: C_14  and  C_15
REMARK    6  A    between atoms: C_15  and  N_16
REMARK    7  A    between atoms: C_29  and  C_30
REMARK                            x       y       z     vdW  Elec       q    Type
REMARK                         _______ _______ _______ _____ _____    ______ ____
ROOT
ATOM      1  N   UNL     1       4.732   4.874  17.794  0.00  0.00    +0.000 N 
ATOM      2  C   UNL     1       5.860   4.767  18.753  0.00  0.00    +0.000 C 
ATOM      3  C   UNL     1       7.157   5.172  18.060  0.00  0.00    +0.000 C 
ATOM      4  N   UNL     1       7.053   6.556  17.610  0.00  0.00    +0.000 N 
ATOM      5  C   UNL     1       7.904   7.483  18.169  0.00  0.00    +0.000 C 
ATOM      6  O   UNL     1       8.723   7.179  19.046  0.00  0.00    +0.000 OA
ATOM      7  C   UNL     1       5.903   6.807  16.718  0.00  0.00    +0.000 C 
ATOM      8  C   UNL     1       4.556   6.268  17.291  0.00  0.00    +0.000 C 
ENDROOT
BRANCH   1  14
ATOM      9  C   UNL     1       0.721   3.757  20.642  0.00  0.00    +0.000 C 
ATOM     10  C   UNL     1       1.605   3.527  19.440  0.00  0.00    +0.000 A 
ATOM     11  C   UNL     1       1.410   2.372  18.678  0.00  0.00    +0.000 A 
ATOM     12  C   UNL     1       2.224   2.120  17.583  0.00  0.00    +0.000 A 
ATOM     13  C   UNL     1       3.274   2.986  17.282  0.00  0.00    +0.000 A 
ATOM     14  C   UNL     1       3.569   4.126  18.066  0.00  0.00    +0.000 A 
ATOM     15  C   UNL     1       2.652   4.437  19.109  0.00  0.00    +0.000 A 
ATOM     16  C   UNL     1       2.729   5.694  19.953  0.00  0.00    +0.000 C 
ENDBRANCH   1  14
BRANCH   5  17
ATOM     17  C   UNL     1       7.796   8.924  17.722  0.00  0.00    +0.000 C 
BRANCH  17  18
ATOM     18  C   UNL     1       8.655   9.837  18.592  0.00  0.00    +0.000 C 
BRANCH  18  19
ATOM     19  C   UNL     1       9.603  10.716  17.767  0.00  0.00    +0.000 C 
BRANCH  19  20
ATOM     20  N   UNL     1       9.669  12.091  18.267  0.00  0.00    +0.000 N 
ATOM     21  C   UNL     1      10.821  12.476  18.960  0.00  0.00    +0.000 A 
ATOM     22  O   UNL     1      11.787  11.740  19.147  0.00  0.00    +0.000 OA
ATOM     23  N   UNL     1      10.871  13.772  19.424  0.00  0.00    +0.000 N 
ATOM     24  C   UNL     1       9.849  14.665  19.227  0.00  0.00    +0.000 A 
ATOM     25  C   UNL     1       9.745  16.006  19.674  0.00  0.00    +0.000 A 
ATOM     26  C   UNL     1       8.549  16.575  19.280  0.00  0.00    +0.000 A 
ATOM     27  S   UNL     1       7.589  15.490  18.359  0.00  0.00    +0.000 S 
ATOM     28  C   UNL     1       8.769  14.282  18.480  0.00  0.00    +0.000 A 
ATOM     29  C   UNL     1       8.680  12.990  17.861  0.00  0.00    +0.000 A 
ATOM     30  O   UNL     1       7.831  12.707  16.995  0.00  0.00    +0.000 OA
ATOM     31  H   UNL     1      11.706  14.047  19.927  0.00  0.00    +0.000 HD
ENDBRANCH  19  20
ENDBRANCH  18  19
ENDBRANCH  17  18
ENDBRANCH   5  17
TORSDOF 5
ENDMDL
MODEL 3
REMARK VINA RESULT:      -8.7      0.584      1.522
REMARK  Name = 
REMARK  7 active torsions:
REMARK  status: ('A' for Active; 'I' for Inactive)
REMARK    1  A    between atoms: C_1  and  C_2
REMARK    2  A    between atoms: C_6  and  N_7
REMARK    3  A    between atoms: C_11  and  C_13
REMARK    4  A    between atoms: C_13  and  C_14
REMARK    5  A    between atoms: C_14  and  C_15
REMARK    6  A    between atoms: C_15  and  N_16
REMARK    7  A    between atoms: C_29  and  C_30
REMARK                            x       y       z     vdW  Elec       q    Type
REMARK                         _______ _______ _______ _____ _____    ______ ____
ROOT
ATOM      1  N   UNL     1       4.412   5.278  18.564  0.00  0.00    +0.000 N 
ATOM      2  C   UNL     1       5.667   5.152  19.346  0.00  0.00    +0.000 C 
ATOM      3  C   UNL     1       6.864   5.311  18.415  0.00  0.00    +0.000 C 
ATOM      4  N   UNL     1       6.825   6.634  17.799  0.00  0.00    +0.000 N 
ATOM      5  C   UNL     1       7.845   7.512  18.089  0.00  0.00    +0.000 C 
ATOM      6  O   UNL     1       8.764   7.220  18.864  0.00  0.00    +0.000 OA
ATOM      7  C   UNL     1       5.573   6.912  17.066  0.00  0.00    +0.000 C 
ATOM      8  C   UNL     1       4.293   6.612  17.906  0.00  0.00    +0.000 C 
ENDROOT
BRANCH   1  14
ATOM      9  C   UNL     1       0.743   1.816  18.615  0.00  0.00    +0.000 C 
ATOM     10  C   UNL     1       1.411   3.054  19.161  0.00  0.00    +0.000 A 
ATOM     11  C   UNL     1       0.724   3.826  20.103  0.00  0.00    +0.000 A 
ATOM     12  C   UNL     1       1.301   4.983  20.604  0.00  0.00    +0.000 A 
ATOM     13  C   UNL     1       2.537   5.409  20.122  0.00  0.00    +0.000 A 
ATOM     14  C   UNL     1       3.241   4.713  19.111  0.00  0.00    +0.000 A 
ATOM     15  C   UNL     1       2.696   3.466  18.698  0.00  0.00    +0.000 A 
ATOM     16  C   UNL     1       3.385   2.520  17.735  0.00  0.00    +0.000 C 
ENDBRANCH   1  14
BRANCH   5  17
ATOM     17  C   UNL     1       7.807   8.891  17.469  0.00  0.00    +0.000 C 
BRANCH  17  18
ATOM     18  C   UNL     1       8.369   9.941  18.424  0.00  0.00    +0.000 C 
BRANCH  18  19
ATOM     19  C   UNL     1       9.542  10.721  17.818  0.00  0.00    +0.000 C 
BRANCH  19  20
ATOM     20  N   UNL     1       9.465  12.156  18.100  0.00  0.00    +0.000 N 
ATOM     21  C   UNL     1       8.398  12.871  17.548  0.00  0.00    +0.000 A 
ATOM     22  O   UNL     1       7.510  12.362  16.868  0.00  0.00    +0.000 OA
ATOM     23  N   UNL     1       8.337  14.220  17.821  0.00  0.00    +0.000 N 
ATOM     24  C   UNL     1       9.271  14.857  18.599  0.00  0.00    +0.000 A 
ATOM     25  C   UNL     1       9.357  16.231  18.932  0.00  0.00    +0.000 A 
ATOM     26  C   UNL     1      10.454  16.485  19.734  0.00  0.00    +0.000 A 
ATOM     27  S   UNL     1      11.341  15.059  20.087  0.00  0.00    +0.000 S 
ATOM     28  C   UNL     1      10.258  14.117  19.187  0.00  0.00    +0.000 A 
ATOM     29  C   UNL     1      10.337  12.690  19.053  0.00  0.00    +0.000 A 
ATOM     30  O   UNL     1      11.074  11.978  19.759  0.00  0.00    +0.000 OA
ATOM     31  H   UNL     1       7.564  14.735  17.418  0.00  0.00    +0.000 HD
ENDBRANCH  19  20
ENDBRANCH  18  19
ENDBRANCH  17  18
ENDBRANCH   5  17
TORSDOF 5
ENDMDL
MODEL 4
REMARK VINA RESULT:      -8.6      1.090      2.284
REMARK  Name = 
REMARK  7 active torsions:
REMARK  status: ('A' for Active; 'I' for Inactive)
REMARK    1  A    between atoms: C_1  and  C_2
REMARK    2  A    between atoms: C_6  and  N_7
REMARK    3  A    between atoms: C_11  and  C_13
REMARK    4  A    between atoms: C_13  and  C_14
REMARK    5  A    between atoms: C_14  and  C_15
REMARK    6  A    between atoms: C_15  and  N_16
REMARK    7  A    between atoms: C_29  and  C_30
REMARK                            x       y       z     vdW  Elec       q    Type
REMARK                         _______ _______ _______ _____ _____    ______ ____
ROOT
ATOM      1  N   UNL     1       4.406   5.249  18.620  0.00  0.00    +0.000 N 
ATOM      2  C   UNL     1       5.662   5.078  19.391  0.00  0.00    +0.000 C 
ATOM      3  C   UNL     1       6.858   5.241  18.459  0.00  0.00    +0.000 C 
ATOM      4  N   UNL     1       6.840   6.581  17.881  0.00  0.00    +0.000 N 
ATOM      5  C   UNL     1       7.878   7.432  18.189  0.00  0.00    +0.000 C 
ATOM      6  O   UNL     1       8.795   7.102  18.952  0.00  0.00    +0.000 OA
ATOM      7  C   UNL     1       5.591   6.902  17.161  0.00  0.00    +0.000 C 
ATOM      8  C   UNL     1       4.309   6.603  17.999  0.00  0.00    +0.000 C 
ENDROOT
BRANCH   1  14
ATOM      9  C   UNL     1       0.665   1.865  18.583  0.00  0.00    +0.000 C 
ATOM     10  C   UNL     1       1.363   3.070  19.165  0.00  0.00    +0.000 A 
ATOM     11  C   UNL     1       0.699   3.823  20.137  0.00  0.00    +0.000 A 
ATOM     12  C   UNL     1       1.304   4.951  20.672  0.00  0.00    +0.000 A 
ATOM     13  C   UNL     1       2.546   5.367  20.195  0.00  0.00    +0.000 A 
ATOM     14  C   UNL     1       3.228   4.691  19.156  0.00  0.00    +0.000 A 
ATOM     15  C   UNL     1       2.653   3.470  18.705  0.00  0.00    +0.000 A 
ATOM     16  C   UNL     1       3.316   2.543  17.706  0.00  0.00    +0.000 C 
ENDBRANCH   1  14
BRANCH   5  17
ATOM     17  C   UNL     1       7.863   8.828  17.608  0.00  0.00    +0.000 C 
BRANCH  17  18
ATOM     18  C   UNL     1       8.566   9.819  18.532  0.00  0.00    +0.000 C 
BRANCH  18  19
ATOM     19  C   UNL     1       9.559  10.718  17.787  0.00  0.00    +0.000 C 
BRANCH  19  20
ATOM     20  N   UNL     1       9.716  12.027  18.423  0.00  0.00    +0.000 N 
ATOM     21  C   UNL     1      10.895  12.267  19.135  0.00  0.00    +0.000 A 
ATOM     22  O   UNL     1      11.815  11.457  19.232  0.00  0.00    +0.000 OA
ATOM     23  N   UNL     1      11.031  13.502  19.729  0.00  0.00    +0.000 N 
ATOM     24  C   UNL     1      10.065  14.473  19.639  0.00  0.00    +0.000 A 
ATOM     25  C   UNL     1      10.050  15.764  20.222  0.00  0.00    +0.000 A 
ATOM     26  C   UNL     1       8.889  16.444  19.906  0.00  0.00    +0.000 A 
ATOM     27  S   UNL     1       7.855  15.521  18.892  0.00  0.00    +0.000 S 
ATOM     28  C   UNL     1       8.958  14.236  18.872  0.00  0.00    +0.000 A 
ATOM     29  C   UNL     1       8.782  13.024  18.126  0.00  0.00    +0.000 A 
ATOM     30  O   UNL     1       7.911  12.884  17.247  0.00  0.00    +0.000 OA
ATOM     31  H   UNL     1      11.885  13.672  20.245  0.00  0.00    +0.000 HD
ENDBRANCH  19  20
ENDBRANCH  18  19
ENDBRANCH  17  18
ENDBRANCH   5  17
TORSDOF 5
ENDMDL
MODEL 5
REMARK VINA RESULT:      -8.2      1.241      1.619
REMARK  Name = 
REMARK  7 active torsions:
REMARK  status: ('A' for Active; 'I' for Inactive)
REMARK    1  A    between atoms: C_1  and  C_2
REMARK    2  A    between atoms: C_6  and  N_7
REMARK    3  A    between atoms: C_11  and  C_13
REMARK    4  A    between atoms: C_13  and  C_14
REMARK    5  A    between atoms: C_14  and  C_15
REMARK    6  A    between atoms: C_15  and  N_16
REMARK    7  A    between atoms: C_29  and  C_30
REMARK                            x       y       z     vdW  Elec       q    Type
REMARK                         _______ _______ _______ _____ _____    ______ ____
ROOT
ATOM      1  N   UNL     1       4.916   4.986  17.768  0.00  0.00    +0.000 N 
ATOM      2  C   UNL     1       5.962   4.992  18.819  0.00  0.00    +0.000 C 
ATOM      3  C   UNL     1       7.307   5.354  18.197  0.00  0.00    +0.000 C 
ATOM      4  N   UNL     1       7.224   6.687  17.608  0.00  0.00    +0.000 N 
ATOM      5  C   UNL     1       8.016   7.679  18.141  0.00  0.00    +0.000 C 
ATOM      6  O   UNL     1       8.764   7.477  19.105  0.00  0.00    +0.000 OA
ATOM      7  C   UNL     1       6.148   6.829  16.606  0.00  0.00    +0.000 C 
ATOM      8  C   UNL     1       4.764   6.322  17.119  0.00  0.00    +0.000 C 
ENDROOT
BRANCH   1  14
ATOM      9  C   UNL     1       0.724   4.039  20.409  0.00  0.00    +0.000 C 
ATOM     10  C   UNL     1       1.692   3.728  19.294  0.00  0.00    +0.000 A 
ATOM     11  C   UNL     1       1.562   2.513  18.614  0.00  0.00    +0.000 A 
ATOM     12  C   UNL     1       2.452   2.188  17.602  0.00  0.00    +0.000 A 
ATOM     13  C   UNL     1       3.513   3.042  17.307  0.00  0.00    +0.000 A 
ATOM     14  C   UNL     1       3.743   4.245  18.016  0.00  0.00    +0.000 A 
ATOM     15  C   UNL     1       2.752   4.624  18.965  0.00  0.00    +0.000 A 
ATOM     16  C   UNL     1       2.758   5.943  19.710  0.00  0.00    +0.000 C 
ENDBRANCH   1  14
BRANCH   5  17
ATOM     17  C   UNL     1       7.927   9.068  17.549  0.00  0.00    +0.000 C 
BRANCH  17  18
ATOM     18  C   UNL     1       8.446  10.119  18.527  0.00  0.00    +0.000 C 
BRANCH  18  19
ATOM     19  C   UNL     1       9.697  10.838  18.011  0.00  0.00    +0.000 C 
BRANCH  19  20
ATOM     20  N   UNL     1      10.016  12.036  18.791  0.00  0.00    +0.000 N 
ATOM     21  C   UNL     1       9.986  11.931  20.185  0.00  0.00    +0.000 A 
ATOM     22  O   UNL     1       9.738  10.891  20.790  0.00  0.00    +0.000 OA
ATOM     23  N   UNL     1      10.289  13.065  20.907  0.00  0.00    +0.000 N 
ATOM     24  C   UNL     1      10.610  14.256  20.307  0.00  0.00    +0.000 A 
ATOM     25  C   UNL     1      10.905  15.502  20.914  0.00  0.00    +0.000 A 
ATOM     26  C   UNL     1      11.169  16.472  19.966  0.00  0.00    +0.000 A 
ATOM     27  S   UNL     1      11.081  15.854  18.367  0.00  0.00    +0.000 S 
ATOM     28  C   UNL     1      10.706  14.307  18.944  0.00  0.00    +0.000 A 
ATOM     29  C   UNL     1      10.519  13.151  18.115  0.00  0.00    +0.000 A 
ATOM     30  O   UNL     1      10.829  13.119  16.910  0.00  0.00    +0.000 OA
ATOM     31  H   UNL     1      10.265  12.986  21.916  0.00  0.00    +0.000 HD
ENDBRANCH  19  20
ENDBRANCH  18  19
ENDBRANCH  17  18
ENDBRANCH   5  17
TORSDOF 5
ENDMDL
MODEL 6
REMARK VINA RESULT:      -8.1      7.806     10.221
REMARK  Name = 
REMARK  7 active torsions:
REMARK  status: ('A' for Active; 'I' for Inactive)
REMARK    1  A    between atoms: C_1  and  C_2
REMARK    2  A    between atoms: C_6  and  N_7
REMARK    3  A    between atoms: C_11  and  C_13
REMARK    4  A    between atoms: C_13  and  C_14
REMARK    5  A    between atoms: C_14  and  C_15
REMARK    6  A    between atoms: C_15  and  N_16
REMARK    7  A    between atoms: C_29  and  C_30
REMARK                            x       y       z     vdW  Elec       q    Type
REMARK                         _______ _______ _______ _____ _____    ______ ____
ROOT
ATOM      1  N   UNL     1       2.286   7.346  18.474  0.00  0.00    +0.000 N 
ATOM      2  C   UNL     1       2.216   8.656  17.782  0.00  0.00    +0.000 C 
ATOM      3  C   UNL     1       0.899   9.344  18.127  0.00  0.00    +0.000 C 
ATOM      4  N   UNL     1       0.835   9.570  19.568  0.00  0.00    +0.000 N 
ATOM      5  C   UNL     1       0.803  10.870  20.018  0.00  0.00    +0.000 C 
ATOM      6  O   UNL     1       0.852  11.835  19.245  0.00  0.00    +0.000 OA
ATOM      7  C   UNL     1       0.988   8.339  20.370  0.00  0.00    +0.000 C 
ATOM      8  C   UNL     1       2.232   7.492  19.959  0.00  0.00    +0.000 C 
ENDROOT
BRANCH   1  14
ATOM      9  C   UNL     1       3.644   2.556  17.659  0.00  0.00    +0.000 C 
ATOM     10  C   UNL     1       3.876   4.043  17.542  0.00  0.00    +0.000 A 
ATOM     11  C   UNL     1       5.124   4.493  17.102  0.00  0.00    +0.000 A 
ATOM     12  C   UNL     1       5.376   5.853  17.009  0.00  0.00    +0.000 A 
ATOM     13  C   UNL     1       4.408   6.770  17.415  0.00  0.00    +0.000 A 
ATOM     14  C   UNL     1       3.158   6.372  17.945  0.00  0.00    +0.000 A 
ATOM     15  C   UNL     1       2.868   4.980  17.918  0.00  0.00    +0.000 A 
ATOM     16  C   UNL     1       1.529   4.389  18.309  0.00  0.00    +0.000 C 
ENDBRANCH   1  14
BRANCH   5  17
ATOM     17  C   UNL     1       0.751  11.117  21.510  0.00  0.00    +0.000 C 
BRANCH  17  18
ATOM     18  C   UNL     1      -0.689  11.158  22.012  0.00  0.00    +0.000 C 
BRANCH  18  19
ATOM     19  C   UNL     1      -1.306  12.558  21.921  0.00  0.00    +0.000 C 
BRANCH  19  20
ATOM     20  N   UNL     1      -2.744  12.521  21.648  0.00  0.00    +0.000 N 
ATOM     21  C   UNL     1      -3.615  12.650  22.734  0.00  0.00    +0.000 A 
ATOM     22  O   UNL     1      -3.247  12.822  23.893  0.00  0.00    +0.000 OA
ATOM     23  N   UNL     1      -4.966  12.614  22.463  0.00  0.00    +0.000 N 
ATOM     24  C   UNL     1      -5.459  12.459  21.192  0.00  0.00    +0.000 A 
ATOM     25  C   UNL     1      -6.808  12.368  20.770  0.00  0.00    +0.000 A 
ATOM     26  C   UNL     1      -6.896  12.205  19.401  0.00  0.00    +0.000 A 
ATOM     27  S   UNL     1      -5.352  12.191  18.651  0.00  0.00    +0.000 S 
ATOM     28  C   UNL     1      -4.582  12.413  20.143  0.00  0.00    +0.000 A 
ATOM     29  C   UNL     1      -3.165  12.556  20.316  0.00  0.00    +0.000 A 
ATOM     30  O   UNL     1      -2.380  12.752  19.370  0.00  0.00    +0.000 OA
ATOM     31  H   UNL     1      -5.594  12.706  23.252  0.00  0.00    +0.000 HD
ENDBRANCH  19  20
ENDBRANCH  18  19
ENDBRANCH  17  18
ENDBRANCH   5  17
TORSDOF 5
ENDMDL
MODEL 7
REMARK VINA RESULT:      -8.1      6.451      9.747
REMARK  Name = 
REMARK  7 active torsions:
REMARK  status: ('A' for Active; 'I' for Inactive)
REMARK    1  A    between atoms: C_1  and  C_2
REMARK    2  A    between atoms: C_6  and  N_7
REMARK    3  A    between atoms: C_11  and  C_13
REMARK    4  A    between atoms: C_13  and  C_14
REMARK    5  A    between atoms: C_14  and  C_15
REMARK    6  A    between atoms: C_15  and  N_16
REMARK    7  A    between atoms: C_29  and  C_30
REMARK                            x       y       z     vdW  Elec       q    Type
REMARK                         _______ _______ _______ _____ _____    ______ ____
ROOT
ATOM      1  N   UNL     1      -0.105  10.145  19.668  0.00  0.00    +0.000 N 
ATOM      2  C   UNL     1       0.445   9.687  18.369  0.00  0.00    +0.000 C 
ATOM      3  C   UNL     1       1.884   9.220  18.561  0.00  0.00    +0.000 C 
ATOM      4  N   UNL     1       1.909   8.104  19.501  0.00  0.00    +0.000 N 
ATOM      5  C   UNL     1       2.332   6.879  19.037  0.00  0.00    +0.000 C 
ATOM      6  O   UNL     1       2.663   6.699  17.858  0.00  0.00    +0.000 OA
ATOM      7  C   UNL     1       1.298   8.414  20.809  0.00  0.00    +0.000 C 
ATOM      8  C   UNL     1      -0.120   9.053  20.686  0.00  0.00    +0.000 C 
ENDROOT
BRANCH   1  14
ATOM      9  C   UNL     1      -3.009  13.710  21.741  0.00  0.00    +0.000 C 
ATOM     10  C   UNL     1      -2.671  12.754  20.623  0.00  0.00    +0.000 A 
ATOM     11  C   UNL     1      -3.612  12.548  19.610  0.00  0.00    +0.000 A 
ATOM     12  C   UNL     1      -3.340  11.656  18.584  0.00  0.00    +0.000 A 
ATOM     13  C   UNL     1      -2.157  10.919  18.598  0.00  0.00    +0.000 A 
ATOM     14  C   UNL     1      -1.205  11.025  19.640  0.00  0.00    +0.000 A 
ATOM     15  C   UNL     1      -1.440  12.032  20.617  0.00  0.00    +0.000 A 
ATOM     16  C   UNL     1      -0.461  12.384  21.718  0.00  0.00    +0.000 C 
ENDBRANCH   1  14
BRANCH   5  17
ATOM     17  C   UNL     1       2.347   5.710  19.998  0.00  0.00    +0.000 C 
BRANCH  17  18
ATOM     18  C   UNL     1       1.537   4.537  19.453  0.00  0.00    +0.000 C 
BRANCH  18  19
ATOM     19  C   UNL     1       2.395   3.290  19.212  0.00  0.00    +0.000 C 
BRANCH  19  20
ATOM     20  N   UNL     1       3.664   3.602  18.551  0.00  0.00    +0.000 N 
ATOM     21  C   UNL     1       4.834   3.509  19.312  0.00  0.00    +0.000 A 
ATOM     22  O   UNL     1       4.860   3.155  20.488  0.00  0.00    +0.000 OA
ATOM     23  N   UNL     1       6.021   3.805  18.679  0.00  0.00    +0.000 N 
ATOM     24  C   UNL     1       6.079   4.176  17.359  0.00  0.00    +0.000 A 
ATOM     25  C   UNL     1       7.212   4.541  16.591  0.00  0.00    +0.000 A 
ATOM     26  C   UNL     1       6.858   4.862  15.295  0.00  0.00    +0.000 A 
ATOM     27  S   UNL     1       5.171   4.691  15.024  0.00  0.00    +0.000 S 
ATOM     28  C   UNL     1       4.928   4.183  16.622  0.00  0.00    +0.000 A 
ATOM     29  C   UNL     1       3.662   3.781  17.165  0.00  0.00    +0.000 A 
ATOM     30  O   UNL     1       2.659   3.556  16.462  0.00  0.00    +0.000 OA
ATOM     31  H   UNL     1       6.865   3.738  19.233  0.00  0.00    +0.000 HD
ENDBRANCH  19  20
ENDBRANCH  18  19
ENDBRANCH  17  18
ENDBRANCH   5  17
TORSDOF 5
ENDMDL
MODEL 8
REMARK VINA RESULT:      -8.0      8.041     10.521
REMARK  Name = 
REMARK  7 active torsions:
REMARK  status: ('A' for Active; 'I' for Inactive)
REMARK    1  A    between atoms: C_1  and  C_2
REMARK    2  A    between atoms: C_6  and  N_7
REMARK    3  A    between atoms: C_11  and  C_13
REMARK    4  A    between atoms: C_13  and  C_14
REMARK    5  A    between atoms: C_14  and  C_15
REMARK    6  A    between atoms: C_15  and  N_16
REMARK    7  A    between atoms: C_29  and  C_30
REMARK                            x       y       z     vdW  Elec       q    Type
REMARK                         _______ _______ _______ _____ _____    ______ ____
ROOT
ATOM      1  N   UNL     1       2.812   6.946  19.026  0.00  0.00    +0.000 N 
ATOM      2  C   UNL     1       1.831   7.055  20.133  0.00  0.00    +0.000 C 
ATOM      3  C   UNL     1       1.669   8.519  20.528  0.00  0.00    +0.000 C 
ATOM      4  N   UNL     1       1.171   9.276  19.383  0.00  0.00    +0.000 N 
ATOM      5  C   UNL     1      -0.073   9.856  19.484  0.00  0.00    +0.000 C 
ATOM      6  O   UNL     1      -0.777   9.733  20.494  0.00  0.00    +0.000 OA
ATOM      7  C   UNL     1       2.024   9.167  18.182  0.00  0.00    +0.000 C 
ATOM      8  C   UNL     1       2.371   7.692  17.811  0.00  0.00    +0.000 C 
ENDROOT
BRANCH   1  14
ATOM      9  C   UNL     1       2.728   2.033  17.886  0.00  0.00    +0.000 C 
ATOM     10  C   UNL     1       3.452   3.289  18.306  0.00  0.00    +0.000 A 
ATOM     11  C   UNL     1       4.770   3.181  18.759  0.00  0.00    +0.000 A 
ATOM     12  C   UNL     1       5.453   4.314  19.176  0.00  0.00    +0.000 A 
ATOM     13  C   UNL     1       4.805   5.548  19.203  0.00  0.00    +0.000 A 
ATOM     14  C   UNL     1       3.447   5.702  18.834  0.00  0.00    +0.000 A 
ATOM     15  C   UNL     1       2.800   4.557  18.292  0.00  0.00    +0.000 A 
ATOM     16  C   UNL     1       1.399   4.575  17.714  0.00  0.00    +0.000 C 
ENDBRANCH   1  14
BRANCH   5  17
ATOM     17  C   UNL     1      -0.606  10.631  18.298  0.00  0.00    +0.000 C 
BRANCH  17  18
ATOM     18  C   UNL     1      -2.086  10.337  18.068  0.00  0.00    +0.000 C 
BRANCH  18  19
ATOM     19  C   UNL     1      -2.910  11.609  17.838  0.00  0.00    +0.000 C 
BRANCH  19  20
ATOM     20  N   UNL     1      -3.806  11.907  18.957  0.00  0.00    +0.000 N 
ATOM     21  C   UNL     1      -3.297  12.672  20.011  0.00  0.00    +0.000 A 
ATOM     22  O   UNL     1      -2.157  13.131  20.038  0.00  0.00    +0.000 OA
ATOM     23  N   UNL     1      -4.150  12.946  21.057  0.00  0.00    +0.000 N 
ATOM     24  C   UNL     1      -5.447  12.499  21.087  0.00  0.00    +0.000 A 
ATOM     25  C   UNL     1      -6.419  12.670  22.103  0.00  0.00    +0.000 A 
ATOM     26  C   UNL     1      -7.612  12.059  21.764  0.00  0.00    +0.000 A 
ATOM     27  S   UNL     1      -7.541  11.316  20.218  0.00  0.00    +0.000 S 
ATOM     28  C   UNL     1      -5.938  11.819  20.007  0.00  0.00    +0.000 A 
ATOM     29  C   UNL     1      -5.159  11.585  18.825  0.00  0.00    +0.000 A 
ATOM     30  O   UNL     1      -5.650  11.183  17.754  0.00  0.00    +0.000 OA
ATOM     31  H   UNL     1      -3.778  13.499  21.820  0.00  0.00    +0.000 HD
ENDBRANCH  19  20
ENDBRANCH  18  19
ENDBRANCH  17  18
ENDBRANCH   5  17
TORSDOF 5
ENDMDL
MODEL 9
REMARK VINA RESULT:      -8.0      7.796     10.089
REMARK  Name = 
REMARK  7 active torsions:
REMARK  status: ('A' for Active; 'I' for Inactive)
REMARK    1  A    between atoms: C_1  and  C_2
REMARK    2  A    between atoms: C_6  and  N_7
REMARK    3  A    between atoms: C_11  and  C_13
REMARK    4  A    between atoms: C_13  and  C_14
REMARK    5  A    between atoms: C_14  and  C_15
REMARK    6  A    between atoms: C_15  and  N_16
REMARK    7  A    between atoms: C_29  and  C_30
REMARK                            x       y       z     vdW  Elec       q    Type
REMARK                         _______ _______ _______ _____ _____    ______ ____
ROOT
ATOM      1  N   UNL     1       2.372   7.269  18.404  0.00  0.00    +0.000 N 
ATOM      2  C   UNL     1       2.415   8.584  17.717  0.00  0.00    +0.000 C 
ATOM      3  C   UNL     1       1.110   9.332  17.968  0.00  0.00    +0.000 C 
ATOM      4  N   UNL     1       0.948   9.556  19.401  0.00  0.00    +0.000 N 
ATOM      5  C   UNL     1       0.943  10.855  19.855  0.00  0.00    +0.000 C 
ATOM      6  O   UNL     1       1.095  11.819  19.094  0.00  0.00    +0.000 OA
ATOM      7  C   UNL     1       0.984   8.317  20.204  0.00  0.00    +0.000 C 
ATOM      8  C   UNL     1       2.214   7.414  19.882  0.00  0.00    +0.000 C 
ENDROOT
BRANCH   1  14
ATOM      9  C   UNL     1       3.603   2.423  17.740  0.00  0.00    +0.000 C 
ATOM     10  C   UNL     1       3.892   3.899  17.609  0.00  0.00    +0.000 A 
ATOM     11  C   UNL     1       5.175   4.298  17.223  0.00  0.00    +0.000 A 
ATOM     12  C   UNL     1       5.477   5.647  17.120  0.00  0.00    +0.000 A 
ATOM     13  C   UNL     1       4.522   6.604  17.462  0.00  0.00    +0.000 A 
ATOM     14  C   UNL     1       3.235   6.258  17.936  0.00  0.00    +0.000 A 
ATOM     15  C   UNL     1       2.899   4.875  17.918  0.00  0.00    +0.000 A 
ATOM     16  C   UNL     1       1.523   4.337  18.253  0.00  0.00    +0.000 C 
ENDBRANCH   1  14
BRANCH   5  17
ATOM     17  C   UNL     1       0.791  11.099  21.340  0.00  0.00    +0.000 C 
BRANCH  17  18
ATOM     18  C   UNL     1      -0.679  11.220  21.732  0.00  0.00    +0.000 C 
BRANCH  18  19
ATOM     19  C   UNL     1      -1.226  12.638  21.538  0.00  0.00    +0.000 C 
BRANCH  19  20
ATOM     20  N   UNL     1      -2.634  12.645  21.133  0.00  0.00    +0.000 N 
ATOM     21  C   UNL     1      -2.920  12.482  19.774  0.00  0.00    +0.000 A 
ATOM     22  O   UNL     1      -2.066  12.304  18.909  0.00  0.00    +0.000 OA
ATOM     23  N   UNL     1      -4.248  12.490  19.406  0.00  0.00    +0.000 N 
ATOM     24  C   UNL     1      -5.263  12.649  20.316  0.00  0.00    +0.000 A 
ATOM     25  C   UNL     1      -6.659  12.714  20.082  0.00  0.00    +0.000 A 
ATOM     26  C   UNL     1      -7.357  12.893  21.261  0.00  0.00    +0.000 A 
ATOM     27  S   UNL     1      -6.317  12.953  22.626  0.00  0.00    +0.000 S 
ATOM     28  C   UNL     1      -4.955  12.730  21.645  0.00  0.00    +0.000 A 
ATOM     29  C   UNL     1      -3.610  12.618  22.133  0.00  0.00    +0.000 A 
ATOM     30  O   UNL     1      -3.332  12.453  23.335  0.00  0.00    +0.000 OA
ATOM     31  H   UNL     1      -4.452  12.373  18.422  0.00  0.00    +0.000 HD
ENDBRANCH  19  20
ENDBRANCH  18  19
ENDBRANCH  17  18
ENDBRANCH   5  17
TORSDOF 5
ENDMDL
