MODEL 1
REMARK VINA RESULT:      -8.4      0.000      0.000
REMARK  Name = 
REMARK  8 active torsions:
REMARK  status: ('A' for Active; 'I' for Inactive)
REMARK    1  A    between atoms: C_1  and  C_2
REMARK    2  A    between atoms: C_5  and  N_6
REMARK    3  A    between atoms: C_7  and  C_9
REMARK    4  A    between atoms: C_9  and  N_10
REMARK    5  A    between atoms: N_10  and  C_11
REMARK    6  A    between atoms: C_12  and  C_14
REMARK    7  A    between atoms: C_14  and  N_15
REMARK    8  A    between atoms: C_16  and  C_18
REMARK                            x       y       z     vdW  Elec       q    Type
REMARK                         _______ _______ _______ _____ _____    ______ ____
ROOT
ATOM      1  N   UNL     1       2.386   2.475  19.501  0.00  0.00    +0.000 N 
ATOM      2  C   UNL     1       1.581   1.614  18.643  0.00  0.00    +0.000 C 
ATOM      3  C   UNL     1       1.748   3.632  19.966  0.00  0.00    +0.000 C 
ATOM      4  O   UNL     1       0.536   3.818  19.795  0.00  0.00    +0.000 OA
ENDROOT
BRANCH   1   5
ATOM      5  C   UNL     1       3.844   2.421  19.305  0.00  0.00    +0.000 C 
BRANCH   5   7
ATOM      6  N   UNL     1       5.642   4.095  19.143  0.00  0.00    +0.000 N 
ATOM      7  C   UNL     1       4.473   3.617  18.573  0.00  0.00    +0.000 C 
ATOM      8  O   UNL     1       3.977   4.018  17.522  0.00  0.00    +0.000 OA
ATOM      9  H   UNL     1       6.088   3.501  19.832  0.00  0.00    +0.000 HD
BRANCH   6  14
ATOM     10  C   UNL     1       8.281   8.884  17.415  0.00  0.00    +0.000 C 
ATOM     11  C   UNL     1       7.628   7.603  17.843  0.00  0.00    +0.000 A 
ATOM     12  C   UNL     1       8.165   6.843  18.882  0.00  0.00    +0.000 A 
ATOM     13  C   UNL     1       7.527   5.675  19.309  0.00  0.00    +0.000 A 
ATOM     14  C   UNL     1       6.342   5.245  18.709  0.00  0.00    +0.000 A 
ATOM     15  C   UNL     1       5.832   5.971  17.629  0.00  0.00    +0.000 A 
ATOM     16  C   UNL     1       6.463   7.152  17.211  0.00  0.00    +0.000 A 
ENDBRANCH   6  14
ENDBRANCH   5   7
ENDBRANCH   1   5
BRANCH   3  17
ATOM     17  C   UNL     1       2.566   4.670  20.761  0.00  0.00    +0.000 C 
BRANCH  17  18
ATOM     18  N   UNL     1       1.882   5.938  20.871  0.00  0.00    +0.000 N 
ATOM     19  C   UNL     1       2.190   6.981  20.024  0.00  0.00    +0.000 C 
ATOM     20  O   UNL     1       2.988   6.823  19.103  0.00  0.00    +0.000 OA
ATOM     21  H   UNL     1       1.126   6.030  21.538  0.00  0.00    +0.000 HD
BRANCH  19  22
ATOM     22  C   UNL     1       1.503   8.231  20.288  0.00  0.00    +0.000 A 
ATOM     23  S   UNL     1       0.927   8.498  21.875  0.00  0.00    +0.000 S 
ATOM     24  C   UNL     1       0.299  10.044  21.481  0.00  0.00    +0.000 A 
ATOM     25  C   UNL     1      -0.347  10.935  22.361  0.00  0.00    +0.000 A 
ATOM     26  C   UNL     1      -0.808  12.155  21.867  0.00  0.00    +0.000 A 
ATOM     27  C   UNL     1      -0.639  12.485  20.532  0.00  0.00    +0.000 A 
ATOM     28  C   UNL     1       0.001  11.596  19.662  0.00  0.00    +0.000 A 
ATOM     29  C   UNL     1       0.493  10.349  20.133  0.00  0.00    +0.000 A 
ATOM     30  C   UNL     1       1.185   9.283  19.455  0.00  0.00    +0.000 A 
ATOM     31 CL   UNL     1       1.528   9.369  17.769  0.00  0.00    +0.000 Cl
ENDBRANCH  19  22
ENDBRANCH  17  18
ENDBRANCH   3  17
TORSDOF 6
ENDMDL
MODEL 2
REMARK VINA RESULT:      -8.0      1.999      2.468
REMARK  Name = 
REMARK  8 active torsions:
REMARK  status: ('A' for Active; 'I' for Inactive)
REMARK    1  A    between atoms: C_1  and  C_2
REMARK    2  A    between atoms: C_5  and  N_6
REMARK    3  A    between atoms: C_7  and  C_9
REMARK    4  A    between atoms: C_9  and  N_10
REMARK    5  A    between atoms: N_10  and  C_11
REMARK    6  A    between atoms: C_12  and  C_14
REMARK    7  A    between atoms: C_14  and  N_15
REMARK    8  A    between atoms: C_16  and  C_18
REMARK                            x       y       z     vdW  Elec       q    Type
REMARK                         _______ _______ _______ _____ _____    ______ ____
ROOT
ATOM      1  N   UNL     1       2.458   3.258  19.893  0.00  0.00    +0.000 N 
ATOM      2  C   UNL     1       1.600   2.191  19.391  0.00  0.00    +0.000 C 
ATOM      3  C   UNL     1       1.807   4.454  20.222  0.00  0.00    +0.000 C 
ATOM      4  O   UNL     1       0.572   4.535  20.244  0.00  0.00    +0.000 OA
ENDROOT
BRANCH   1   5
ATOM      5  C   UNL     1       3.861   3.238  19.446  0.00  0.00    +0.000 C 
BRANCH   5   7
ATOM      6  N   UNL     1       5.401   3.494  17.542  0.00  0.00    +0.000 N 
ATOM      7  C   UNL     1       4.123   3.743  18.019  0.00  0.00    +0.000 C 
ATOM      8  O   UNL     1       3.207   4.245  17.371  0.00  0.00    +0.000 OA
ATOM      9  H   UNL     1       5.959   2.829  18.064  0.00  0.00    +0.000 HD
BRANCH   6  14
ATOM     10  C   UNL     1       7.654   5.262  12.574  0.00  0.00    +0.000 C 
ATOM     11  C   UNL     1       7.026   4.835  13.868  0.00  0.00    +0.000 A 
ATOM     12  C   UNL     1       5.878   4.042  13.874  0.00  0.00    +0.000 A 
ATOM     13  C   UNL     1       5.323   3.608  15.081  0.00  0.00    +0.000 A 
ATOM     14  C   UNL     1       5.905   3.953  16.302  0.00  0.00    +0.000 A 
ATOM     15  C   UNL     1       7.020   4.795  16.303  0.00  0.00    +0.000 A 
ATOM     16  C   UNL     1       7.586   5.219  15.092  0.00  0.00    +0.000 A 
ENDBRANCH   6  14
ENDBRANCH   5   7
ENDBRANCH   1   5
BRANCH   3  17
ATOM     17  C   UNL     1       2.652   5.680  20.624  0.00  0.00    +0.000 C 
BRANCH  17  18
ATOM     18  N   UNL     1       1.832   6.817  20.977  0.00  0.00    +0.000 N 
ATOM     19  C   UNL     1       1.713   7.892  20.121  0.00  0.00    +0.000 C 
ATOM     20  O   UNL     1       2.229   7.863  19.006  0.00  0.00    +0.000 OA
ATOM     21  H   UNL     1       1.294   6.786  21.833  0.00  0.00    +0.000 HD
BRANCH  19  22
ATOM     22  C   UNL     1       0.938   9.011  20.621  0.00  0.00    +0.000 A 
ATOM     23  S   UNL     1       0.182   8.835  22.144  0.00  0.00    +0.000 S 
ATOM     24  C   UNL     1      -0.479  10.416  22.098  0.00  0.00    +0.000 A 
ATOM     25  C   UNL     1      -1.261  11.026  23.098  0.00  0.00    +0.000 A 
ATOM     26  C   UNL     1      -1.729  12.324  22.891  0.00  0.00    +0.000 A 
ATOM     27  C   UNL     1      -1.436  13.000  21.717  0.00  0.00    +0.000 A 
ATOM     28  C   UNL     1      -0.661  12.388  20.726  0.00  0.00    +0.000 A 
ATOM     29  C   UNL     1      -0.159  11.072  20.909  0.00  0.00    +0.000 A 
ATOM     30  C   UNL     1       0.657  10.240  20.062  0.00  0.00    +0.000 A 
ATOM     31 CL   UNL     1       1.172  10.778  18.509  0.00  0.00    +0.000 Cl
ENDBRANCH  19  22
ENDBRANCH  17  18
ENDBRANCH   3  17
TORSDOF 6
ENDMDL
MODEL 3
REMARK VINA RESULT:      -8.0      3.376      4.367
REMARK  Name = 
REMARK  8 active torsions:
REMARK  status: ('A' for Active; 'I' for Inactive)
REMARK    1  A    between atoms: C_1  and  C_2
REMARK    2  A    between atoms: C_5  and  N_6
REMARK    3  A    between atoms: C_7  and  C_9
REMARK    4  A    between atoms: C_9  and  N_10
REMARK    5  A    between atoms: N_10  and  C_11
REMARK    6  A    between atoms: C_12  and  C_14
REMARK    7  A    between atoms: C_14  and  N_15
REMARK    8  A    between atoms: C_16  and  C_18
REMARK                            x       y       z     vdW  Elec       q    Type
REMARK                         _______ _______ _______ _____ _____    ______ ____
ROOT
ATOM      1  N   UNL     1       4.922   5.838  18.622  0.00  0.00    +0.000 N 
ATOM      2  C   UNL     1       5.334   4.528  19.110  0.00  0.00    +0.000 C 
ATOM      3  C   UNL     1       3.539   6.048  18.544  0.00  0.00    +0.000 C 
ATOM      4  O   UNL     1       2.732   5.238  19.017  0.00  0.00    +0.000 OA
ENDROOT
BRANCH   1   5
ATOM      5  C   UNL     1       5.862   6.530  17.723  0.00  0.00    +0.000 C 
BRANCH   5   7
ATOM      6  N   UNL     1       5.771   5.699  15.408  0.00  0.00    +0.000 N 
ATOM      7  C   UNL     1       6.475   5.678  16.601  0.00  0.00    +0.000 C 
ATOM      8  O   UNL     1       7.553   5.115  16.783  0.00  0.00    +0.000 OA
ATOM      9  H   UNL     1       5.066   6.421  15.308  0.00  0.00    +0.000 HD
BRANCH   6  14
ATOM     10  C   UNL     1       7.240   2.469  10.903  0.00  0.00    +0.000 C 
ATOM     11  C   UNL     1       6.822   3.340  12.051  0.00  0.00    +0.000 A 
ATOM     12  C   UNL     1       5.602   3.132  12.694  0.00  0.00    +0.000 A 
ATOM     13  C   UNL     1       5.237   3.915  13.792  0.00  0.00    +0.000 A 
ATOM     14  C   UNL     1       6.083   4.917  14.271  0.00  0.00    +0.000 A 
ATOM     15  C   UNL     1       7.280   5.169  13.593  0.00  0.00    +0.000 A 
ATOM     16  C   UNL     1       7.654   4.373  12.501  0.00  0.00    +0.000 A 
ENDBRANCH   6  14
ENDBRANCH   5   7
ENDBRANCH   1   5
BRANCH   3  17
ATOM     17  C   UNL     1       3.015   7.351  17.906  0.00  0.00    +0.000 C 
BRANCH  17  18
ATOM     18  N   UNL     1       2.075   8.040  18.762  0.00  0.00    +0.000 N 
ATOM     19  C   UNL     1       1.699   9.338  18.495  0.00  0.00    +0.000 C 
ATOM     20  O   UNL     1       2.086   9.903  17.474  0.00  0.00    +0.000 OA
ATOM     21  H   UNL     1       1.647   7.532  19.526  0.00  0.00    +0.000 HD
BRANCH  19  22
ATOM     22  C   UNL     1       0.822   9.954  19.472  0.00  0.00    +0.000 A 
ATOM     23  S   UNL     1      -0.173  11.240  18.946  0.00  0.00    +0.000 S 
ATOM     24  C   UNL     1      -0.883  11.441  20.494  0.00  0.00    +0.000 A 
ATOM     25  C   UNL     1      -1.884  12.369  20.843  0.00  0.00    +0.000 A 
ATOM     26  C   UNL     1      -2.343  12.403  22.159  0.00  0.00    +0.000 A 
ATOM     27  C   UNL     1      -1.819  11.543  23.111  0.00  0.00    +0.000 A 
ATOM     28  C   UNL     1      -0.824  10.625  22.760  0.00  0.00    +0.000 A 
ATOM     29  C   UNL     1      -0.341  10.555  21.427  0.00  0.00    +0.000 A 
ATOM     30  C   UNL     1       0.651   9.706  20.818  0.00  0.00    +0.000 A 
ATOM     31 CL   UNL     1       1.516   8.538  21.743  0.00  0.00    +0.000 Cl
ENDBRANCH  19  22
ENDBRANCH  17  18
ENDBRANCH   3  17
TORSDOF 6
ENDMDL
MODEL 4
REMARK VINA RESULT:      -7.9      2.798      3.486
REMARK  Name = 
REMARK  8 active torsions:
REMARK  status: ('A' for Active; 'I' for Inactive)
REMARK    1  A    between atoms: C_1  and  C_2
REMARK    2  A    between atoms: C_5  and  N_6
REMARK    3  A    between atoms: C_7  and  C_9
REMARK    4  A    between atoms: C_9  and  N_10
REMARK    5  A    between atoms: N_10  and  C_11
REMARK    6  A    between atoms: C_12  and  C_14
REMARK    7  A    between atoms: C_14  and  N_15
REMARK    8  A    between atoms: C_16  and  C_18
REMARK                            x       y       z     vdW  Elec       q    Type
REMARK                         _______ _______ _______ _____ _____    ______ ____
ROOT
ATOM      1  N   UNL     1       3.504   4.909  19.343  0.00  0.00    +0.000 N 
ATOM      2  C   UNL     1       3.222   3.486  19.494  0.00  0.00    +0.000 C 
ATOM      3  C   UNL     1       2.547   5.643  18.630  0.00  0.00    +0.000 C 
ATOM      4  O   UNL     1       1.461   5.148  18.302  0.00  0.00    +0.000 OA
ENDROOT
BRANCH   1   5
ATOM      5  C   UNL     1       4.923   5.303  19.366  0.00  0.00    +0.000 C 
BRANCH   5   7
ATOM      6  N   UNL     1       5.259   5.281  16.927  0.00  0.00    +0.000 N 
ATOM      7  C   UNL     1       5.764   4.877  18.153  0.00  0.00    +0.000 C 
ATOM      8  O   UNL     1       6.834   4.297  18.327  0.00  0.00    +0.000 OA
ATOM      9  H   UNL     1       4.532   5.987  16.946  0.00  0.00    +0.000 HD
BRANCH   6  14
ATOM     10  C   UNL     1       7.253   3.886  11.735  0.00  0.00    +0.000 C 
ATOM     11  C   UNL     1       6.768   4.221  13.114  0.00  0.00    +0.000 A 
ATOM     12  C   UNL     1       7.472   5.118  13.918  0.00  0.00    +0.000 A 
ATOM     13  C   UNL     1       6.992   5.463  15.185  0.00  0.00    +0.000 A 
ATOM     14  C   UNL     1       5.801   4.922  15.671  0.00  0.00    +0.000 A 
ATOM     15  C   UNL     1       5.124   3.977  14.895  0.00  0.00    +0.000 A 
ATOM     16  C   UNL     1       5.596   3.643  13.618  0.00  0.00    +0.000 A 
ENDBRANCH   6  14
ENDBRANCH   5   7
ENDBRANCH   1   5
BRANCH   3  17
ATOM     17  C   UNL     1       2.833   7.122  18.300  0.00  0.00    +0.000 C 
BRANCH  17  18
ATOM     18  N   UNL     1       2.104   8.025  19.162  0.00  0.00    +0.000 N 
ATOM     19  C   UNL     1       1.585   9.204  18.670  0.00  0.00    +0.000 C 
ATOM     20  O   UNL     1       1.656   9.465  17.471  0.00  0.00    +0.000 OA
ATOM     21  H   UNL     1       1.924   7.750  20.118  0.00  0.00    +0.000 HD
BRANCH  19  22
ATOM     22  C   UNL     1       0.954  10.070  19.647  0.00  0.00    +0.000 A 
ATOM     23  S   UNL     1       1.156  11.757  19.459  0.00  0.00    +0.000 S 
ATOM     24  C   UNL     1       0.205  12.114  20.841  0.00  0.00    +0.000 A 
ATOM     25  C   UNL     1      -0.113  13.396  21.330  0.00  0.00    +0.000 A 
ATOM     26  C   UNL     1      -0.896  13.504  22.480  0.00  0.00    +0.000 A 
ATOM     27  C   UNL     1      -1.348  12.369  23.134  0.00  0.00    +0.000 A 
ATOM     28  C   UNL     1      -1.026  11.099  22.646  0.00  0.00    +0.000 A 
ATOM     29  C   UNL     1      -0.242  10.951  21.471  0.00  0.00    +0.000 A 
ATOM     30  C   UNL     1       0.209   9.776  20.770  0.00  0.00    +0.000 A 
ATOM     31 CL   UNL     1      -0.161   8.195  21.345  0.00  0.00    +0.000 Cl
ENDBRANCH  19  22
ENDBRANCH  17  18
ENDBRANCH   3  17
TORSDOF 6
ENDMDL
MODEL 5
REMARK VINA RESULT:      -7.8      3.335      7.587
REMARK  Name = 
REMARK  8 active torsions:
REMARK  status: ('A' for Active; 'I' for Inactive)
REMARK    1  A    between atoms: C_1  and  C_2
REMARK    2  A    between atoms: C_5  and  N_6
REMARK    3  A    between atoms: C_7  and  C_9
REMARK    4  A    between atoms: C_9  and  N_10
REMARK    5  A    between atoms: N_10  and  C_11
REMARK    6  A    between atoms: C_12  and  C_14
REMARK    7  A    between atoms: C_14  and  N_15
REMARK    8  A    between atoms: C_16  and  C_18
REMARK                            x       y       z     vdW  Elec       q    Type
REMARK                         _______ _______ _______ _____ _____    ______ ____
ROOT
ATOM      1  N   UNL     1       2.118   3.235  20.027  0.00  0.00    +0.000 N 
ATOM      2  C   UNL     1       0.830   2.552  20.022  0.00  0.00    +0.000 C 
ATOM      3  C   UNL     1       3.214   2.462  19.623  0.00  0.00    +0.000 C 
ATOM      4  O   UNL     1       3.069   1.334  19.136  0.00  0.00    +0.000 OA
ENDROOT
BRANCH   1   5
ATOM      5  C   UNL     1       2.265   4.352  20.975  0.00  0.00    +0.000 C 
BRANCH   5   7
ATOM      6  N   UNL     1       2.347   6.576  19.924  0.00  0.00    +0.000 N 
ATOM      7  C   UNL     1       1.554   5.660  20.596  0.00  0.00    +0.000 C 
ATOM      8  O   UNL     1       0.353   5.789  20.824  0.00  0.00    +0.000 OA
ATOM      9  H   UNL     1       3.225   6.232  19.554  0.00  0.00    +0.000 HD
BRANCH   6  14
ATOM     10  C   UNL     1       0.835  11.960  18.654  0.00  0.00    +0.000 C 
ATOM     11  C   UNL     1       1.190  10.535  18.958  0.00  0.00    +0.000 A 
ATOM     12  C   UNL     1       1.814   9.738  17.998  0.00  0.00    +0.000 A 
ATOM     13  C   UNL     1       2.186   8.424  18.301  0.00  0.00    +0.000 A 
ATOM     14  C   UNL     1       1.944   7.884  19.565  0.00  0.00    +0.000 A 
ATOM     15  C   UNL     1       1.265   8.659  20.510  0.00  0.00    +0.000 A 
ATOM     16  C   UNL     1       0.907   9.982  20.213  0.00  0.00    +0.000 A 
ENDBRANCH   6  14
ENDBRANCH   5   7
ENDBRANCH   1   5
BRANCH   3  17
ATOM     17  C   UNL     1       4.632   3.060  19.734  0.00  0.00    +0.000 C 
BRANCH  17  18
ATOM     18  N   UNL     1       5.241   3.266  18.439  0.00  0.00    +0.000 N 
ATOM     19  C   UNL     1       5.155   4.488  17.806  0.00  0.00    +0.000 C 
ATOM     20  O   UNL     1       4.635   5.449  18.371  0.00  0.00    +0.000 OA
ATOM     21  H   UNL     1       5.789   2.519  18.032  0.00  0.00    +0.000 HD
BRANCH  19  22
ATOM     22  C   UNL     1       5.725   4.549  16.474  0.00  0.00    +0.000 A 
ATOM     23  S   UNL     1       5.150   3.434  15.314  0.00  0.00    +0.000 S 
ATOM     24  C   UNL     1       6.170   4.053  14.083  0.00  0.00    +0.000 A 
ATOM     25  C   UNL     1       6.235   3.610  12.747  0.00  0.00    +0.000 A 
ATOM     26  C   UNL     1       7.135   4.224  11.876  0.00  0.00    +0.000 A 
ATOM     27  C   UNL     1       7.959   5.247  12.319  0.00  0.00    +0.000 A 
ATOM     28  C   UNL     1       7.892   5.680  13.647  0.00  0.00    +0.000 A 
ATOM     29  C   UNL     1       6.979   5.087  14.558  0.00  0.00    +0.000 A 
ATOM     30  C   UNL     1       6.713   5.355  15.948  0.00  0.00    +0.000 A 
ATOM     31 CL   UNL     1       7.593   6.558  16.810  0.00  0.00    +0.000 Cl
ENDBRANCH  19  22
ENDBRANCH  17  18
ENDBRANCH   3  17
TORSDOF 6
ENDMDL
MODEL 6
REMARK VINA RESULT:      -7.8      3.298      4.484
REMARK  Name = 
REMARK  8 active torsions:
REMARK  status: ('A' for Active; 'I' for Inactive)
REMARK    1  A    between atoms: C_1  and  C_2
REMARK    2  A    between atoms: C_5  and  N_6
REMARK    3  A    between atoms: C_7  and  C_9
REMARK    4  A    between atoms: C_9  and  N_10
REMARK    5  A    between atoms: N_10  and  C_11
REMARK    6  A    between atoms: C_12  and  C_14
REMARK    7  A    between atoms: C_14  and  N_15
REMARK    8  A    between atoms: C_16  and  C_18
REMARK                            x       y       z     vdW  Elec       q    Type
REMARK                         _______ _______ _______ _____ _____    ______ ____
ROOT
ATOM      1  N   UNL     1       6.724   6.011  18.686  0.00  0.00    +0.000 N 
ATOM      2  C   UNL     1       7.923   5.618  19.416  0.00  0.00    +0.000 C 
ATOM      3  C   UNL     1       5.542   5.363  19.070  0.00  0.00    +0.000 C 
ATOM      4  O   UNL     1       5.497   4.637  20.072  0.00  0.00    +0.000 OA
ENDROOT
BRANCH   1   5
ATOM      5  C   UNL     1       6.922   6.508  17.314  0.00  0.00    +0.000 C 
BRANCH   5   7
ATOM      6  N   UNL     1       6.473   5.666  15.044  0.00  0.00    +0.000 N 
ATOM      7  C   UNL     1       7.148   5.439  16.233  0.00  0.00    +0.000 C 
ATOM      8  O   UNL     1       7.943   4.524  16.437  0.00  0.00    +0.000 OA
ATOM      9  H   UNL     1       6.084   6.592  14.912  0.00  0.00    +0.000 HD
BRANCH   6  14
ATOM     10  C   UNL     1       6.574   1.972  10.659  0.00  0.00    +0.000 C 
ATOM     11  C   UNL     1       6.510   2.965  11.781  0.00  0.00    +0.000 A 
ATOM     12  C   UNL     1       5.458   2.937  12.697  0.00  0.00    +0.000 A 
ATOM     13  C   UNL     1       5.427   3.835  13.768  0.00  0.00    +0.000 A 
ATOM     14  C   UNL     1       6.445   4.773  13.948  0.00  0.00    +0.000 A 
ATOM     15  C   UNL     1       7.470   4.844  12.999  0.00  0.00    +0.000 A 
ATOM     16  C   UNL     1       7.510   3.934  11.933  0.00  0.00    +0.000 A 
ENDBRANCH   6  14
ENDBRANCH   5   7
ENDBRANCH   1   5
BRANCH   3  17
ATOM     17  C   UNL     1       4.255   5.611  18.258  0.00  0.00    +0.000 C 
BRANCH  17  18
ATOM     18  N   UNL     1       3.536   6.778  18.716  0.00  0.00    +0.000 N 
ATOM     19  C   UNL     1       2.465   6.654  19.576  0.00  0.00    +0.000 C 
ATOM     20  O   UNL     1       2.160   5.557  20.039  0.00  0.00    +0.000 OA
ATOM     21  H   UNL     1       3.870   7.695  18.448  0.00  0.00    +0.000 HD
BRANCH  19  22
ATOM     22  C   UNL     1       1.767   7.885  19.894  0.00  0.00    +0.000 A 
ATOM     23  S   UNL     1       1.110   8.041  21.464  0.00  0.00    +0.000 S 
ATOM     24  C   UNL     1       0.506   9.615  21.150  0.00  0.00    +0.000 A 
ATOM     25  C   UNL     1      -0.184  10.443  22.057  0.00  0.00    +0.000 A 
ATOM     26  C   UNL     1      -0.617  11.698  21.629  0.00  0.00    +0.000 A 
ATOM     27  C   UNL     1      -0.378  12.122  20.331  0.00  0.00    +0.000 A 
ATOM     28  C   UNL     1       0.305  11.294  19.434  0.00  0.00    +0.000 A 
ATOM     29  C   UNL     1       0.769  10.015  19.839  0.00  0.00    +0.000 A 
ATOM     30  C   UNL     1       1.495   8.996  19.124  0.00  0.00    +0.000 A 
ATOM     31 CL   UNL     1       1.924   9.201  17.468  0.00  0.00    +0.000 Cl
ENDBRANCH  19  22
ENDBRANCH  17  18
ENDBRANCH   3  17
TORSDOF 6
ENDMDL
MODEL 7
REMARK VINA RESULT:      -7.7      3.140      3.980
REMARK  Name = 
REMARK  8 active torsions:
REMARK  status: ('A' for Active; 'I' for Inactive)
REMARK    1  A    between atoms: C_1  and  C_2
REMARK    2  A    between atoms: C_5  and  N_6
REMARK    3  A    between atoms: C_7  and  C_9
REMARK    4  A    between atoms: C_9  and  N_10
REMARK    5  A    between atoms: N_10  and  C_11
REMARK    6  A    between atoms: C_12  and  C_14
REMARK    7  A    between atoms: C_14  and  N_15
REMARK    8  A    between atoms: C_16  and  C_18
REMARK                            x       y       z     vdW  Elec       q    Type
REMARK                         _______ _______ _______ _____ _____    ______ ____
ROOT
ATOM      1  N   UNL     1       4.727   5.512  18.779  0.00  0.00    +0.000 N 
ATOM      2  C   UNL     1       4.915   4.098  19.080  0.00  0.00    +0.000 C 
ATOM      3  C   UNL     1       3.401   5.917  18.579  0.00  0.00    +0.000 C 
ATOM      4  O   UNL     1       2.450   5.160  18.811  0.00  0.00    +0.000 OA
ENDROOT
BRANCH   1   5
ATOM      5  C   UNL     1       5.853   6.201  18.126  0.00  0.00    +0.000 C 
BRANCH   5   7
ATOM      6  N   UNL     1       5.920   5.625  15.733  0.00  0.00    +0.000 N 
ATOM      7  C   UNL     1       6.526   5.449  16.967  0.00  0.00    +0.000 C 
ATOM      8  O   UNL     1       7.566   4.825  17.168  0.00  0.00    +0.000 OA
ATOM      9  H   UNL     1       5.250   6.381  15.660  0.00  0.00    +0.000 HD
BRANCH   6  14
ATOM     10  C   UNL     1       7.230   2.956  10.830  0.00  0.00    +0.000 C 
ATOM     11  C   UNL     1       6.926   3.629  12.136  0.00  0.00    +0.000 A 
ATOM     12  C   UNL     1       7.729   4.669  12.603  0.00  0.00    +0.000 A 
ATOM     13  C   UNL     1       7.416   5.324  13.798  0.00  0.00    +0.000 A 
ATOM     14  C   UNL     1       6.296   4.956  14.545  0.00  0.00    +0.000 A 
ATOM     15  C   UNL     1       5.523   3.875  14.111  0.00  0.00    +0.000 A 
ATOM     16  C   UNL     1       5.827   3.228  12.905  0.00  0.00    +0.000 A 
ENDBRANCH   6  14
ENDBRANCH   5   7
ENDBRANCH   1   5
BRANCH   3  17
ATOM     17  C   UNL     1       3.121   7.362  18.117  0.00  0.00    +0.000 C 
BRANCH  17  18
ATOM     18  N   UNL     1       2.169   8.035  18.972  0.00  0.00    +0.000 N 
ATOM     19  C   UNL     1       1.631   9.251  18.607  0.00  0.00    +0.000 C 
ATOM     20  O   UNL     1       1.884   9.741  17.509  0.00  0.00    +0.000 OA
ATOM     21  H   UNL     1       1.852   7.569  19.813  0.00  0.00    +0.000 HD
BRANCH  19  22
ATOM     22  C   UNL     1       0.758   9.871  19.585  0.00  0.00    +0.000 A 
ATOM     23  S   UNL     1       0.748   9.219  21.165  0.00  0.00    +0.000 S 
ATOM     24  C   UNL     1      -0.399  10.365  21.725  0.00  0.00    +0.000 A 
ATOM     25  C   UNL     1      -0.909  10.468  23.034  0.00  0.00    +0.000 A 
ATOM     26  C   UNL     1      -1.849  11.459  23.315  0.00  0.00    +0.000 A 
ATOM     27  C   UNL     1      -2.281  12.324  22.323  0.00  0.00    +0.000 A 
ATOM     28  C   UNL     1      -1.773  12.215  21.024  0.00  0.00    +0.000 A 
ATOM     29  C   UNL     1      -0.806  11.225  20.704  0.00  0.00    +0.000 A 
ATOM     30  C   UNL     1      -0.131  10.919  19.469  0.00  0.00    +0.000 A 
ATOM     31 CL   UNL     1      -0.466  11.798  18.026  0.00  0.00    +0.000 Cl
ENDBRANCH  19  22
ENDBRANCH  17  18
ENDBRANCH   3  17
TORSDOF 6
ENDMDL
MODEL 8
REMARK VINA RESULT:      -7.7      2.038      2.661
REMARK  Name = 
REMARK  8 active torsions:
REMARK  status: ('A' for Active; 'I' for Inactive)
REMARK    1  A    between atoms: C_1  and  C_2
REMARK    2  A    between atoms: C_5  and  N_6
REMARK    3  A    between atoms: C_7  and  C_9
REMARK    4  A    between atoms: C_9  and  N_10
REMARK    5  A    between atoms: N_10  and  C_11
REMARK    6  A    between atoms: C_12  and  C_14
REMARK    7  A    between atoms: C_14  and  N_15
REMARK    8  A    between atoms: C_16  and  C_18
REMARK                            x       y       z     vdW  Elec       q    Type
REMARK                         _______ _______ _______ _____ _____    ______ ____
ROOT
ATOM      1  N   UNL     1       2.207   3.287  20.843  0.00  0.00    +0.000 N 
ATOM      2  C   UNL     1       1.349   2.151  20.533  0.00  0.00    +0.000 C 
ATOM      3  C   UNL     1       1.637   4.550  20.639  0.00  0.00    +0.000 C 
ATOM      4  O   UNL     1       0.434   4.684  20.378  0.00  0.00    +0.000 OA
ENDROOT
BRANCH   1   5
ATOM      5  C   UNL     1       3.658   3.066  20.726  0.00  0.00    +0.000 C 
BRANCH   5   7
ATOM      6  N   UNL     1       4.965   4.120  18.925  0.00  0.00    +0.000 N 
ATOM      7  C   UNL     1       4.221   3.011  19.297  0.00  0.00    +0.000 C 
ATOM      8  O   UNL     1       4.061   2.000  18.617  0.00  0.00    +0.000 OA
ATOM      9  H   UNL     1       5.253   4.744  19.669  0.00  0.00    +0.000 HD
BRANCH   6  14
ATOM     10  C   UNL     1       7.253   4.833  13.715  0.00  0.00    +0.000 C 
ATOM     11  C   UNL     1       6.639   4.696  15.077  0.00  0.00    +0.000 A 
ATOM     12  C   UNL     1       5.257   4.575  15.224  0.00  0.00    +0.000 A 
ATOM     13  C   UNL     1       4.692   4.401  16.491  0.00  0.00    +0.000 A 
ATOM     14  C   UNL     1       5.494   4.342  17.632  0.00  0.00    +0.000 A 
ATOM     15  C   UNL     1       6.874   4.523  17.495  0.00  0.00    +0.000 A 
ATOM     16  C   UNL     1       7.442   4.682  16.223  0.00  0.00    +0.000 A 
ENDBRANCH   6  14
ENDBRANCH   5   7
ENDBRANCH   1   5
BRANCH   3  17
ATOM     17  C   UNL     1       2.518   5.805  20.805  0.00  0.00    +0.000 C 
BRANCH  17  18
ATOM     18  N   UNL     1       1.738   7.022  20.826  0.00  0.00    +0.000 N 
ATOM     19  C   UNL     1       1.847   7.946  19.809  0.00  0.00    +0.000 C 
ATOM     20  O   UNL     1       2.542   7.711  18.823  0.00  0.00    +0.000 OA
ATOM     21  H   UNL     1       1.061   7.156  21.566  0.00  0.00    +0.000 HD
BRANCH  19  22
ATOM     22  C   UNL     1       1.085   9.168  19.984  0.00  0.00    +0.000 A 
ATOM     23  S   UNL     1       0.688  10.063  18.583  0.00  0.00    +0.000 S 
ATOM     24  C   UNL     1      -0.155  11.258  19.478  0.00  0.00    +0.000 A 
ATOM     25  C   UNL     1      -0.822  12.382  18.952  0.00  0.00    +0.000 A 
ATOM     26  C   UNL     1      -1.452  13.264  19.830  0.00  0.00    +0.000 A 
ATOM     27  C   UNL     1      -1.417  13.042  21.198  0.00  0.00    +0.000 A 
ATOM     28  C   UNL     1      -0.751  11.926  21.714  0.00  0.00    +0.000 A 
ATOM     29  C   UNL     1      -0.108  11.001  20.849  0.00  0.00    +0.000 A 
ATOM     30  C   UNL     1       0.621   9.790  21.124  0.00  0.00    +0.000 A 
ATOM     31 CL   UNL     1       0.872   9.245  22.739  0.00  0.00    +0.000 Cl
ENDBRANCH  19  22
ENDBRANCH  17  18
ENDBRANCH   3  17
TORSDOF 6
ENDMDL
MODEL 9
REMARK VINA RESULT:      -7.6      3.268      4.369
REMARK  Name = 
REMARK  8 active torsions:
REMARK  status: ('A' for Active; 'I' for Inactive)
REMARK    1  A    between atoms: C_1  and  C_2
REMARK    2  A    between atoms: C_5  and  N_6
REMARK    3  A    between atoms: C_7  and  C_9
REMARK    4  A    between atoms: C_9  and  N_10
REMARK    5  A    between atoms: N_10  and  C_11
REMARK    6  A    between atoms: C_12  and  C_14
REMARK    7  A    between atoms: C_14  and  N_15
REMARK    8  A    between atoms: C_16  and  C_18
REMARK                            x       y       z     vdW  Elec       q    Type
REMARK                         _______ _______ _______ _____ _____    ______ ____
ROOT
ATOM      1  N   UNL     1       6.428   5.861  18.871  0.00  0.00    +0.000 N 
ATOM      2  C   UNL     1       7.670   5.508  19.547  0.00  0.00    +0.000 C 
ATOM      3  C   UNL     1       5.298   5.130  19.261  0.00  0.00    +0.000 C 
ATOM      4  O   UNL     1       5.326   4.361  20.230  0.00  0.00    +0.000 OA
ENDROOT
BRANCH   1   5
ATOM      5  C   UNL     1       6.554   6.427  17.517  0.00  0.00    +0.000 C 
BRANCH   5   7
ATOM      6  N   UNL     1       6.318   5.627  15.201  0.00  0.00    +0.000 N 
ATOM      7  C   UNL     1       6.970   5.446  16.410  0.00  0.00    +0.000 C 
ATOM      8  O   UNL     1       7.877   4.642  16.617  0.00  0.00    +0.000 OA
ATOM      9  H   UNL     1       5.810   6.495  15.084  0.00  0.00    +0.000 HD
BRANCH   6  14
ATOM     10  C   UNL     1       6.668   2.269  10.566  0.00  0.00    +0.000 C 
ATOM     11  C   UNL     1       6.616   3.121  11.799  0.00  0.00    +0.000 A 
ATOM     12  C   UNL     1       7.556   4.132  12.004  0.00  0.00    +0.000 A 
ATOM     13  C   UNL     1       7.477   4.954  13.132  0.00  0.00    +0.000 A 
ATOM     14  C   UNL     1       6.459   4.786  14.072  0.00  0.00    +0.000 A 
ATOM     15  C   UNL     1       5.551   3.736  13.901  0.00  0.00    +0.000 A 
ATOM     16  C   UNL     1       5.620   2.921  12.762  0.00  0.00    +0.000 A 
ENDBRANCH   6  14
ENDBRANCH   5   7
ENDBRANCH   1   5
BRANCH   3  17
ATOM     17  C   UNL     1       3.973   5.338  18.500  0.00  0.00    +0.000 C 
BRANCH  17  18
ATOM     18  N   UNL     1       3.058   6.195  19.218  0.00  0.00    +0.000 N 
ATOM     19  C   UNL     1       2.722   7.438  18.725  0.00  0.00    +0.000 C 
ATOM     20  O   UNL     1       3.125   7.802  17.622  0.00  0.00    +0.000 OA
ATOM     21  H   UNL     1       2.615   5.844  20.057  0.00  0.00    +0.000 HD
BRANCH  19  22
ATOM     22  C   UNL     1       1.867   8.243  19.576  0.00  0.00    +0.000 A 
ATOM     23  S   UNL     1       1.416   7.591  21.090  0.00  0.00    +0.000 S 
ATOM     24  C   UNL     1       0.504   8.980  21.515  0.00  0.00    +0.000 A 
ATOM     25  C   UNL     1      -0.190   9.188  22.723  0.00  0.00    +0.000 A 
ATOM     26  C   UNL     1      -0.893  10.380  22.900  0.00  0.00    +0.000 A 
ATOM     27  C   UNL     1      -0.915  11.341  21.902  0.00  0.00    +0.000 A 
ATOM     28  C   UNL     1      -0.226  11.127  20.704  0.00  0.00    +0.000 A 
ATOM     29  C   UNL     1       0.509   9.931  20.494  0.00  0.00    +0.000 A 
ATOM     30  C   UNL     1       1.298   9.483  19.374  0.00  0.00    +0.000 A 
ATOM     31 CL   UNL     1       1.452  10.440  17.950  0.00  0.00    +0.000 Cl
ENDBRANCH  19  22
ENDBRANCH  17  18
ENDBRANCH   3  17
TORSDOF 6
ENDMDL
