MODEL 1
REMARK VINA RESULT:      -8.2      0.000      0.000
REMARK  Name = 
REMARK  9 active torsions:
REMARK  status: ('A' for Active; 'I' for Inactive)
REMARK    1  A    between atoms: C_1  and  C_2
REMARK    2  A    between atoms: C_6  and  N_7
REMARK    3  A    between atoms: N_7  and  C_8
REMARK    4  A    between atoms: C_8  and  C_9
REMARK    5  A    between atoms: N_11  and  C_12
REMARK    6  A    between atoms: C_17  and  C_19
REMARK    7  A    between atoms: C_19  and  N_20
REMARK    8  A    between atoms: C_21  and  C_23
REMARK    9  A    between atoms: C_28  and  C_29
REMARK                            x       y       z     vdW  Elec       q    Type
REMARK                         _______ _______ _______ _____ _____    ______ ____
ROOT
ATOM      1  N   UNL     1       5.129   5.098  18.169  0.00  0.00    +0.000 N 
ATOM      2  C   UNL     1       6.296   5.405  18.906  0.00  0.00    +0.000 C 
ATOM      3  O   UNL     1       6.308   5.520  20.135  0.00  0.00    +0.000 OA
ENDROOT
BRANCH   1   9
ATOM      4  C   UNL     1       2.174   2.928  21.572  0.00  0.00    +0.000 C 
ATOM      5  C   UNL     1       2.448   4.057  20.612  0.00  0.00    +0.000 A 
ATOM      6  C   UNL     1       1.760   5.266  20.771  0.00  0.00    +0.000 A 
ATOM      7  C   UNL     1       2.093   6.371  19.992  0.00  0.00    +0.000 A 
ATOM      8  C   UNL     1       3.171   6.308  19.097  0.00  0.00    +0.000 A 
ATOM      9  C   UNL     1       3.891   5.114  18.926  0.00  0.00    +0.000 A 
ATOM     10  C   UNL     1       3.458   3.958  19.622  0.00  0.00    +0.000 A 
ATOM     11  C   UNL     1       4.029   2.604  19.297  0.00  0.00    +0.000 C 
ENDBRANCH   1   9
BRANCH   1  12
ATOM     12  C   UNL     1       5.059   5.361  16.715  0.00  0.00    +0.000 C 
BRANCH  12  13
ATOM     13  C   UNL     1       5.409   4.177  15.768  0.00  0.00    +0.000 C 
ATOM     14  O   UNL     1       5.571   3.041  16.207  0.00  0.00    +0.000 OA
ATOM     15  N   UNL     1       5.617   4.497  14.443  0.00  0.00    +0.000 N 
ATOM     16  H   UNL     1       5.599   5.481  14.213  0.00  0.00    +0.000 HD
BRANCH  15  17
ATOM     17  C   UNL     1       5.939   3.570  13.364  0.00  0.00    +0.000 C 
ATOM     18  C   UNL     1       4.830   3.279  12.354  0.00  0.00    +0.000 C 
ATOM     19  C   UNL     1       5.556   2.535  11.236  0.00  0.00    +0.000 C 
ATOM     20  C   UNL     1       6.982   3.086  11.227  0.00  0.00    +0.000 C 
ATOM     21  C   UNL     1       7.116   3.969  12.473  0.00  0.00    +0.000 C 
ENDBRANCH  15  17
ENDBRANCH  12  13
ENDBRANCH   1  12
BRANCH   2  22
ATOM     22  C   UNL     1       7.600   5.708  18.154  0.00  0.00    +0.000 C 
BRANCH  22  23
ATOM     23  N   UNL     1       8.118   7.020  18.493  0.00  0.00    +0.000 N 
ATOM     24  C   UNL     1       7.808   8.151  17.768  0.00  0.00    +0.000 C 
ATOM     25  O   UNL     1       7.042   8.124  16.814  0.00  0.00    +0.000 OA
ATOM     26  H   UNL     1       8.762   7.111  19.272  0.00  0.00    +0.000 HD
BRANCH  24  27
ATOM     27  C   UNL     1       8.456   9.361  18.236  0.00  0.00    +0.000 A 
ATOM     28  C   UNL     1       8.503  10.629  17.683  0.00  0.00    +0.000 A 
ATOM     29  C   UNL     1       9.273  11.428  18.561  0.00  0.00    +0.000 A 
ATOM     30  C   UNL     1       9.651  10.604  19.594  0.00  0.00    +0.000 A 
ATOM     31  O   UNL     1       9.160   9.351  19.412  0.00  0.00    +0.000 OA
ENDBRANCH  24  27
ENDBRANCH  22  23
ENDBRANCH   2  22
TORSDOF 7
ENDMDL
MODEL 2
REMARK VINA RESULT:      -8.0      2.983      6.792
REMARK  Name = 
REMARK  9 active torsions:
REMARK  status: ('A' for Active; 'I' for Inactive)
REMARK    1  A    between atoms: C_1  and  C_2
REMARK    2  A    between atoms: C_6  and  N_7
REMARK    3  A    between atoms: N_7  and  C_8
REMARK    4  A    between atoms: C_8  and  C_9
REMARK    5  A    between atoms: N_11  and  C_12
REMARK    6  A    between atoms: C_17  and  C_19
REMARK    7  A    between atoms: C_19  and  N_20
REMARK    8  A    between atoms: C_21  and  C_23
REMARK    9  A    between atoms: C_28  and  C_29
REMARK                            x       y       z     vdW  Elec       q    Type
REMARK                         _______ _______ _______ _____ _____    ______ ____
ROOT
ATOM      1  N   UNL     1       3.986   5.210  18.914  0.00  0.00    +0.000 N 
ATOM      2  C   UNL     1       5.198   4.497  18.765  0.00  0.00    +0.000 C 
ATOM      3  O   UNL     1       5.328   3.312  19.087  0.00  0.00    +0.000 OA
ENDROOT
BRANCH   1   9
ATOM      4  C   UNL     1       0.267   1.865  18.939  0.00  0.00    +0.000 C 
ATOM      5  C   UNL     1       1.128   2.864  19.669  0.00  0.00    +0.000 A 
ATOM      6  C   UNL     1       1.207   2.803  21.064  0.00  0.00    +0.000 A 
ATOM      7  C   UNL     1       2.102   3.616  21.754  0.00  0.00    +0.000 A 
ATOM      8  C   UNL     1       2.987   4.449  21.054  0.00  0.00    +0.000 A 
ATOM      9  C   UNL     1       2.943   4.522  19.652  0.00  0.00    +0.000 A 
ATOM     10  C   UNL     1       1.939   3.794  18.968  0.00  0.00    +0.000 A 
ATOM     11  C   UNL     1       1.687   4.020  17.502  0.00  0.00    +0.000 C 
ENDBRANCH   1   9
BRANCH   1  12
ATOM     12  C   UNL     1       3.970   6.689  18.904  0.00  0.00    +0.000 C 
BRANCH  12  13
ATOM     13  C   UNL     1       2.581   7.379  19.022  0.00  0.00    +0.000 C 
ATOM     14  O   UNL     1       1.857   7.517  18.040  0.00  0.00    +0.000 OA
ATOM     15  N   UNL     1       2.264   7.903  20.258  0.00  0.00    +0.000 N 
ATOM     16  H   UNL     1       2.988   7.861  20.960  0.00  0.00    +0.000 HD
BRANCH  15  17
ATOM     17  C   UNL     1       1.023   8.578  20.624  0.00  0.00    +0.000 C 
ATOM     18  C   UNL     1       0.791   8.829  22.113  0.00  0.00    +0.000 C 
ATOM     19  C   UNL     1      -0.406   9.777  22.129  0.00  0.00    +0.000 C 
ATOM     20  C   UNL     1      -0.304  10.597  20.842  0.00  0.00    +0.000 C 
ATOM     21  C   UNL     1       0.813   9.961  20.007  0.00  0.00    +0.000 C 
ENDBRANCH  15  17
ENDBRANCH  12  13
ENDBRANCH   1  12
BRANCH   2  22
ATOM     22  C   UNL     1       6.449   5.238  18.272  0.00  0.00    +0.000 C 
BRANCH  22  23
ATOM     23  N   UNL     1       6.770   4.888  16.902  0.00  0.00    +0.000 N 
ATOM     24  C   UNL     1       6.269   5.582  15.820  0.00  0.00    +0.000 C 
ATOM     25  O   UNL     1       5.553   6.565  15.953  0.00  0.00    +0.000 OA
ATOM     26  H   UNL     1       7.357   4.079  16.722  0.00  0.00    +0.000 HD
BRANCH  24  27
ATOM     27  C   UNL     1       6.668   5.055  14.530  0.00  0.00    +0.000 A 
ATOM     28  C   UNL     1       6.138   4.022  13.776  0.00  0.00    +0.000 A 
ATOM     29  C   UNL     1       6.916   3.937  12.597  0.00  0.00    +0.000 A 
ATOM     30  C   UNL     1       7.873   4.919  12.701  0.00  0.00    +0.000 A 
ATOM     31  O   UNL     1       7.731   5.605  13.863  0.00  0.00    +0.000 OA
ENDBRANCH  24  27
ENDBRANCH  22  23
ENDBRANCH   2  22
TORSDOF 7
ENDMDL
MODEL 3
REMARK VINA RESULT:      -7.9      2.923      7.056
REMARK  Name = 
REMARK  9 active torsions:
REMARK  status: ('A' for Active; 'I' for Inactive)
REMARK    1  A    between atoms: C_1  and  C_2
REMARK    2  A    between atoms: C_6  and  N_7
REMARK    3  A    between atoms: N_7  and  C_8
REMARK    4  A    between atoms: C_8  and  C_9
REMARK    5  A    between atoms: N_11  and  C_12
REMARK    6  A    between atoms: C_17  and  C_19
REMARK    7  A    between atoms: C_19  and  N_20
REMARK    8  A    between atoms: C_21  and  C_23
REMARK    9  A    between atoms: C_28  and  C_29
REMARK                            x       y       z     vdW  Elec       q    Type
REMARK                         _______ _______ _______ _____ _____    ______ ____
ROOT
ATOM      1  N   UNL     1       3.596   6.061  18.129  0.00  0.00    +0.000 N 
ATOM      2  C   UNL     1       4.890   5.512  17.978  0.00  0.00    +0.000 C 
ATOM      3  O   UNL     1       5.227   4.432  18.471  0.00  0.00    +0.000 OA
ENDROOT
BRANCH   1   9
ATOM      4  C   UNL     1       0.447   2.285  19.048  0.00  0.00    +0.000 C 
ATOM      5  C   UNL     1       1.198   3.503  19.523  0.00  0.00    +0.000 A 
ATOM      6  C   UNL     1       1.389   3.691  20.896  0.00  0.00    +0.000 A 
ATOM      7  C   UNL     1       2.198   4.727  21.357  0.00  0.00    +0.000 A 
ATOM      8  C   UNL     1       2.890   5.543  20.450  0.00  0.00    +0.000 A 
ATOM      9  C   UNL     1       2.730   5.370  19.066  0.00  0.00    +0.000 A 
ATOM     10  C   UNL     1       1.801   4.403  18.607  0.00  0.00    +0.000 A 
ATOM     11  C   UNL     1       1.407   4.340  17.157  0.00  0.00    +0.000 C 
ENDBRANCH   1   9
BRANCH   1  12
ATOM     12  C   UNL     1       3.349   7.499  17.883  0.00  0.00    +0.000 C 
BRANCH  12  13
ATOM     13  C   UNL     1       1.992   8.075  18.382  0.00  0.00    +0.000 C 
ATOM     14  O   UNL     1       1.038   8.200  17.619  0.00  0.00    +0.000 OA
ATOM     15  N   UNL     1       1.962   8.518  19.688  0.00  0.00    +0.000 N 
ATOM     16  H   UNL     1       2.841   8.501  20.186  0.00  0.00    +0.000 HD
BRANCH  15  17
ATOM     17  C   UNL     1       0.812   9.080  20.390  0.00  0.00    +0.000 C 
ATOM     18  C   UNL     1       0.739   8.835  21.896  0.00  0.00    +0.000 C 
ATOM     19  C   UNL     1      -0.380   9.768  22.351  0.00  0.00    +0.000 C 
ATOM     20  C   UNL     1      -0.341  10.962  21.397  0.00  0.00    +0.000 C 
ATOM     21  C   UNL     1       0.645  10.596  20.281  0.00  0.00    +0.000 C 
ENDBRANCH  15  17
ENDBRANCH  12  13
ENDBRANCH   1  12
BRANCH   2  22
ATOM     22  C   UNL     1       5.971   6.327  17.253  0.00  0.00    +0.000 C 
BRANCH  22  23
ATOM     23  N   UNL     1       6.124   5.901  15.875  0.00  0.00    +0.000 N 
ATOM     24  C   UNL     1       7.046   4.952  15.488  0.00  0.00    +0.000 C 
ATOM     25  O   UNL     1       7.768   4.379  16.293  0.00  0.00    +0.000 OA
ATOM     26  H   UNL     1       5.557   6.341  15.156  0.00  0.00    +0.000 HD
BRANCH  24  27
ATOM     27  C   UNL     1       7.079   4.692  14.062  0.00  0.00    +0.000 A 
ATOM     28  C   UNL     1       7.812   5.292  13.053  0.00  0.00    +0.000 A 
ATOM     29  C   UNL     1       7.455   4.642  11.848  0.00  0.00    +0.000 A 
ATOM     30  C   UNL     1       6.527   3.687  12.190  0.00  0.00    +0.000 A 
ATOM     31  O   UNL     1       6.294   3.703  13.528  0.00  0.00    +0.000 OA
ENDBRANCH  24  27
ENDBRANCH  22  23
ENDBRANCH   2  22
TORSDOF 7
ENDMDL
MODEL 4
REMARK VINA RESULT:      -7.8      1.309      1.417
REMARK  Name = 
REMARK  9 active torsions:
REMARK  status: ('A' for Active; 'I' for Inactive)
REMARK    1  A    between atoms: C_1  and  C_2
REMARK    2  A    between atoms: C_6  and  N_7
REMARK    3  A    between atoms: N_7  and  C_8
REMARK    4  A    between atoms: C_8  and  C_9
REMARK    5  A    between atoms: N_11  and  C_12
REMARK    6  A    between atoms: C_17  and  C_19
REMARK    7  A    between atoms: C_19  and  N_20
REMARK    8  A    between atoms: C_21  and  C_23
REMARK    9  A    between atoms: C_28  and  C_29
REMARK                            x       y       z     vdW  Elec       q    Type
REMARK                         _______ _______ _______ _____ _____    ______ ____
ROOT
ATOM      1  N   UNL     1       4.603   5.272  18.019  0.00  0.00    +0.000 N 
ATOM      2  C   UNL     1       5.743   4.819  18.722  0.00  0.00    +0.000 C 
ATOM      3  O   UNL     1       5.678   4.208  19.793  0.00  0.00    +0.000 OA
ENDROOT
BRANCH   1   9
ATOM      4  C   UNL     1       0.650   2.462  19.245  0.00  0.00    +0.000 C 
ATOM      5  C   UNL     1       1.409   3.760  19.346  0.00  0.00    +0.000 A 
ATOM      6  C   UNL     1       1.136   4.627  20.409  0.00  0.00    +0.000 A 
ATOM      7  C   UNL     1       1.918   5.762  20.609  0.00  0.00    +0.000 A 
ATOM      8  C   UNL     1       3.033   6.007  19.795  0.00  0.00    +0.000 A 
ATOM      9  C   UNL     1       3.342   5.148  18.728  0.00  0.00    +0.000 A 
ATOM     10  C   UNL     1       2.463   4.072  18.448  0.00  0.00    +0.000 A 
ATOM     11  C   UNL     1       2.604   3.270  17.183  0.00  0.00    +0.000 C 
ENDBRANCH   1   9
BRANCH   1  12
ATOM     12  C   UNL     1       4.718   6.321  16.983  0.00  0.00    +0.000 C 
BRANCH  12  13
ATOM     13  C   UNL     1       5.208   5.872  15.577  0.00  0.00    +0.000 C 
ATOM     14  O   UNL     1       5.273   6.668  14.644  0.00  0.00    +0.000 OA
ATOM     15  N   UNL     1       5.466   4.526  15.423  0.00  0.00    +0.000 N 
ATOM     16  H   UNL     1       5.244   3.935  16.212  0.00  0.00    +0.000 HD
BRANCH  15  17
ATOM     17  C   UNL     1       5.948   3.865  14.214  0.00  0.00    +0.000 C 
ATOM     18  C   UNL     1       4.922   3.615  13.111  0.00  0.00    +0.000 C 
ATOM     19  C   UNL     1       5.780   3.196  11.919  0.00  0.00    +0.000 C 
ATOM     20  C   UNL     1       7.111   3.930  12.086  0.00  0.00    +0.000 C 
ATOM     21  C   UNL     1       7.080   4.579  13.474  0.00  0.00    +0.000 C 
ENDBRANCH  15  17
ENDBRANCH  12  13
ENDBRANCH   1  12
BRANCH   2  22
ATOM     22  C   UNL     1       7.140   5.176  18.195  0.00  0.00    +0.000 C 
BRANCH  22  23
ATOM     23  N   UNL     1       7.498   6.543  18.520  0.00  0.00    +0.000 N 
ATOM     24  C   UNL     1       7.948   7.439  17.573  0.00  0.00    +0.000 C 
ATOM     25  O   UNL     1       8.035   7.145  16.388  0.00  0.00    +0.000 OA
ATOM     26  H   UNL     1       7.452   6.850  19.487  0.00  0.00    +0.000 HD
BRANCH  24  27
ATOM     27  C   UNL     1       8.297   8.745  18.099  0.00  0.00    +0.000 A 
ATOM     28  C   UNL     1       7.993  10.013  17.636  0.00  0.00    +0.000 A 
ATOM     29  C   UNL     1       8.586  10.929  18.536  0.00  0.00    +0.000 A 
ATOM     30  C   UNL     1       9.217  10.169  19.492  0.00  0.00    +0.000 A 
ATOM     31  O   UNL     1       9.047   8.846  19.242  0.00  0.00    +0.000 OA
ENDBRANCH  24  27
ENDBRANCH  22  23
ENDBRANCH   2  22
TORSDOF 7
ENDMDL
MODEL 5
REMARK VINA RESULT:      -7.8      3.137      6.779
REMARK  Name = 
REMARK  9 active torsions:
REMARK  status: ('A' for Active; 'I' for Inactive)
REMARK    1  A    between atoms: C_1  and  C_2
REMARK    2  A    between atoms: C_6  and  N_7
REMARK    3  A    between atoms: N_7  and  C_8
REMARK    4  A    between atoms: C_8  and  C_9
REMARK    5  A    between atoms: N_11  and  C_12
REMARK    6  A    between atoms: C_17  and  C_19
REMARK    7  A    between atoms: C_19  and  N_20
REMARK    8  A    between atoms: C_21  and  C_23
REMARK    9  A    between atoms: C_28  and  C_29
REMARK                            x       y       z     vdW  Elec       q    Type
REMARK                         _______ _______ _______ _____ _____    ______ ____
ROOT
ATOM      1  N   UNL     1       3.370   5.772  18.845  0.00  0.00    +0.000 N 
ATOM      2  C   UNL     1       4.516   5.205  18.243  0.00  0.00    +0.000 C 
ATOM      3  O   UNL     1       4.730   3.989  18.209  0.00  0.00    +0.000 OA
ENDROOT
BRANCH   1   9
ATOM      4  C   UNL     1       0.375   1.765  18.878  0.00  0.00    +0.000 C 
ATOM      5  C   UNL     1       1.084   2.871  19.619  0.00  0.00    +0.000 A 
ATOM      6  C   UNL     1       1.283   2.746  20.998  0.00  0.00    +0.000 A 
ATOM      7  C   UNL     1       2.057   3.679  21.683  0.00  0.00    +0.000 A 
ATOM      8  C   UNL     1       2.708   4.708  20.987  0.00  0.00    +0.000 A 
ATOM      9  C   UNL     1       2.540   4.851  19.600  0.00  0.00    +0.000 A 
ATOM     10  C   UNL     1       1.643   3.980  18.934  0.00  0.00    +0.000 A 
ATOM     11  C   UNL     1       1.237   4.236  17.508  0.00  0.00    +0.000 C 
ENDBRANCH   1   9
BRANCH   1  12
ATOM     12  C   UNL     1       3.340   7.203  19.221  0.00  0.00    +0.000 C 
BRANCH  12  13
ATOM     13  C   UNL     1       2.258   8.088  18.537  0.00  0.00    +0.000 C 
ATOM     14  O   UNL     1       2.060   8.023  17.327  0.00  0.00    +0.000 OA
ATOM     15  N   UNL     1       1.618   9.002  19.347  0.00  0.00    +0.000 N 
ATOM     16  H   UNL     1       1.956   9.072  20.296  0.00  0.00    +0.000 HD
BRANCH  15  17
ATOM     17  C   UNL     1       0.562   9.927  18.949  0.00  0.00    +0.000 C 
ATOM     18  C   UNL     1      -0.626  10.065  19.900  0.00  0.00    +0.000 C 
ATOM     19  C   UNL     1      -1.374  11.280  19.356  0.00  0.00    +0.000 C 
ATOM     20  C   UNL     1      -0.308  12.182  18.734  0.00  0.00    +0.000 C 
ATOM     21  C   UNL     1       0.997  11.377  18.732  0.00  0.00    +0.000 C 
ENDBRANCH  15  17
ENDBRANCH  12  13
ENDBRANCH   1  12
BRANCH   2  22
ATOM     22  C   UNL     1       5.607   6.130  17.684  0.00  0.00    +0.000 C 
BRANCH  22  23
ATOM     23  N   UNL     1       5.902   5.828  16.297  0.00  0.00    +0.000 N 
ATOM     24  C   UNL     1       6.958   5.026  15.919  0.00  0.00    +0.000 C 
ATOM     25  O   UNL     1       7.690   4.485  16.738  0.00  0.00    +0.000 OA
ATOM     26  H   UNL     1       5.335   6.248  15.567  0.00  0.00    +0.000 HD
BRANCH  24  27
ATOM     27  C   UNL     1       7.118   4.876  14.486  0.00  0.00    +0.000 A 
ATOM     28  C   UNL     1       6.479   4.034  13.592  0.00  0.00    +0.000 A 
ATOM     29  C   UNL     1       7.022   4.310  12.314  0.00  0.00    +0.000 A 
ATOM     30  C   UNL     1       7.957   5.300  12.503  0.00  0.00    +0.000 A 
ATOM     31  O   UNL     1       8.022   5.655  13.812  0.00  0.00    +0.000 OA
ENDBRANCH  24  27
ENDBRANCH  22  23
ENDBRANCH   2  22
TORSDOF 7
ENDMDL
MODEL 6
REMARK VINA RESULT:      -7.4      0.643      1.087
REMARK  Name = 
REMARK  9 active torsions:
REMARK  status: ('A' for Active; 'I' for Inactive)
REMARK    1  A    between atoms: C_1  and  C_2
REMARK    2  A    between atoms: C_6  and  N_7
REMARK    3  A    between atoms: N_7  and  C_8
REMARK    4  A    between atoms: C_8  and  C_9
REMARK    5  A    between atoms: N_11  and  C_12
REMARK    6  A    between atoms: C_17  and  C_19
REMARK    7  A    between atoms: C_19  and  N_20
REMARK    8  A    between atoms: C_21  and  C_23
REMARK    9  A    between atoms: C_28  and  C_29
REMARK                            x       y       z     vdW  Elec       q    Type
REMARK                         _______ _______ _______ _____ _____    ______ ____
ROOT
ATOM      1  N   UNL     1       5.063   5.117  18.161  0.00  0.00    +0.000 N 
ATOM      2  C   UNL     1       6.279   5.227  18.873  0.00  0.00    +0.000 C 
ATOM      3  O   UNL     1       6.355   5.124  20.101  0.00  0.00    +0.000 OA
ENDROOT
BRANCH   1   9
ATOM      4  C   UNL     1       2.266   2.646  21.491  0.00  0.00    +0.000 C 
ATOM      5  C   UNL     1       2.500   3.859  20.628  0.00  0.00    +0.000 A 
ATOM      6  C   UNL     1       1.829   5.049  20.933  0.00  0.00    +0.000 A 
ATOM      7  C   UNL     1       2.131   6.221  20.244  0.00  0.00    +0.000 A 
ATOM      8  C   UNL     1       3.162   6.240  19.294  0.00  0.00    +0.000 A 
ATOM      9  C   UNL     1       3.864   5.065  18.977  0.00  0.00    +0.000 A 
ATOM     10  C   UNL     1       3.459   3.850  19.583  0.00  0.00    +0.000 A 
ATOM     11  C   UNL     1       4.004   2.532  19.106  0.00  0.00    +0.000 C 
ENDBRANCH   1   9
BRANCH   1  12
ATOM     12  C   UNL     1       4.943   5.635  16.781  0.00  0.00    +0.000 C 
BRANCH  12  13
ATOM     13  C   UNL     1       5.311   4.657  15.627  0.00  0.00    +0.000 C 
ATOM     14  O   UNL     1       5.608   3.488  15.859  0.00  0.00    +0.000 OA
ATOM     15  N   UNL     1       5.375   5.204  14.363  0.00  0.00    +0.000 N 
ATOM     16  H   UNL     1       5.253   6.205  14.302  0.00  0.00    +0.000 HD
BRANCH  15  17
ATOM     17  C   UNL     1       5.681   4.496  13.124  0.00  0.00    +0.000 C 
ATOM     18  C   UNL     1       7.066   3.860  13.019  0.00  0.00    +0.000 C 
ATOM     19  C   UNL     1       6.958   2.983  11.774  0.00  0.00    +0.000 C 
ATOM     20  C   UNL     1       5.498   2.538  11.704  0.00  0.00    +0.000 C 
ATOM     21  C   UNL     1       4.746   3.338  12.773  0.00  0.00    +0.000 C 
ENDBRANCH  15  17
ENDBRANCH  12  13
ENDBRANCH   1  12
BRANCH   2  22
ATOM     22  C   UNL     1       7.564   5.589  18.113  0.00  0.00    +0.000 C 
BRANCH  22  23
ATOM     23  N   UNL     1       8.033   6.916  18.462  0.00  0.00    +0.000 N 
ATOM     24  C   UNL     1       7.755   8.028  17.694  0.00  0.00    +0.000 C 
ATOM     25  O   UNL     1       7.058   7.968  16.690  0.00  0.00    +0.000 OA
ATOM     26  H   UNL     1       8.620   7.035  19.282  0.00  0.00    +0.000 HD
BRANCH  24  27
ATOM     27  C   UNL     1       8.347   9.258  18.181  0.00  0.00    +0.000 A 
ATOM     28  C   UNL     1       9.198   9.488  19.248  0.00  0.00    +0.000 A 
ATOM     29  C   UNL     1       9.465  10.878  19.265  0.00  0.00    +0.000 A 
ATOM     30  C   UNL     1       8.763  11.413  18.212  0.00  0.00    +0.000 A 
ATOM     31  O   UNL     1       8.085  10.444  17.545  0.00  0.00    +0.000 OA
ENDBRANCH  24  27
ENDBRANCH  22  23
ENDBRANCH   2  22
TORSDOF 7
ENDMDL
MODEL 7
REMARK VINA RESULT:      -7.4      3.480      5.389
REMARK  Name = 
REMARK  9 active torsions:
REMARK  status: ('A' for Active; 'I' for Inactive)
REMARK    1  A    between atoms: C_1  and  C_2
REMARK    2  A    between atoms: C_6  and  N_7
REMARK    3  A    between atoms: N_7  and  C_8
REMARK    4  A    between atoms: C_8  and  C_9
REMARK    5  A    between atoms: N_11  and  C_12
REMARK    6  A    between atoms: C_17  and  C_19
REMARK    7  A    between atoms: C_19  and  N_20
REMARK    8  A    between atoms: C_21  and  C_23
REMARK    9  A    between atoms: C_28  and  C_29
REMARK                            x       y       z     vdW  Elec       q    Type
REMARK                         _______ _______ _______ _____ _____    ______ ____
ROOT
ATOM      1  N   UNL     1       3.995   6.016  17.669  0.00  0.00    +0.000 N 
ATOM      2  C   UNL     1       2.958   6.811  18.207  0.00  0.00    +0.000 C 
ATOM      3  O   UNL     1       2.059   6.356  18.922  0.00  0.00    +0.000 OA
ENDROOT
BRANCH   1   9
ATOM      4  C   UNL     1       4.719   1.958  20.503  0.00  0.00    +0.000 C 
ATOM      5  C   UNL     1       4.179   2.593  19.247  0.00  0.00    +0.000 A 
ATOM      6  C   UNL     1       3.202   1.916  18.509  0.00  0.00    +0.000 A 
ATOM      7  C   UNL     1       2.583   2.537  17.427  0.00  0.00    +0.000 A 
ATOM      8  C   UNL     1       2.875   3.872  17.114  0.00  0.00    +0.000 A 
ATOM      9  C   UNL     1       3.841   4.584  17.845  0.00  0.00    +0.000 A 
ATOM     10  C   UNL     1       4.562   3.902  18.856  0.00  0.00    +0.000 A 
ATOM     11  C   UNL     1       5.767   4.532  19.501  0.00  0.00    +0.000 C 
ENDBRANCH   1   9
BRANCH   1  12
ATOM     12  C   UNL     1       4.798   6.493  16.522  0.00  0.00    +0.000 C 
BRANCH  12  13
ATOM     13  C   UNL     1       5.664   5.433  15.780  0.00  0.00    +0.000 C 
ATOM     14  O   UNL     1       6.760   5.092  16.218  0.00  0.00    +0.000 OA
ATOM     15  N   UNL     1       5.175   4.984  14.572  0.00  0.00    +0.000 N 
ATOM     16  H   UNL     1       4.336   5.434  14.234  0.00  0.00    +0.000 HD
BRANCH  15  17
ATOM     17  C   UNL     1       5.789   3.987  13.701  0.00  0.00    +0.000 C 
ATOM     18  C   UNL     1       4.898   3.372  12.624  0.00  0.00    +0.000 C 
ATOM     19  C   UNL     1       5.885   2.620  11.735  0.00  0.00    +0.000 C 
ATOM     20  C   UNL     1       7.195   3.404  11.811  0.00  0.00    +0.000 C 
ATOM     21  C   UNL     1       7.008   4.460  12.907  0.00  0.00    +0.000 C 
ENDBRANCH  15  17
ENDBRANCH  12  13
ENDBRANCH   1  12
BRANCH   2  22
ATOM     22  C   UNL     1       2.870   8.294  17.819  0.00  0.00    +0.000 C 
BRANCH  22  23
ATOM     23  N   UNL     1       1.502   8.775  17.862  0.00  0.00    +0.000 N 
ATOM     24  C   UNL     1       1.183  10.083  18.164  0.00  0.00    +0.000 C 
ATOM     25  O   UNL     1       2.041  10.930  18.375  0.00  0.00    +0.000 OA
ATOM     26  H   UNL     1       0.742   8.122  17.699  0.00  0.00    +0.000 HD
BRANCH  24  27
ATOM     27  C   UNL     1      -0.239  10.362  18.200  0.00  0.00    +0.000 A 
ATOM     28  C   UNL     1      -0.964  11.243  18.983  0.00  0.00    +0.000 A 
ATOM     29  C   UNL     1      -2.320  11.108  18.599  0.00  0.00    +0.000 A 
ATOM     30  C   UNL     1      -2.342  10.155  17.608  0.00  0.00    +0.000 A 
ATOM     31  O   UNL     1      -1.089   9.699  17.354  0.00  0.00    +0.000 OA
ENDBRANCH  24  27
ENDBRANCH  22  23
ENDBRANCH   2  22
TORSDOF 7
ENDMDL
MODEL 8
REMARK VINA RESULT:      -7.3      3.238      6.695
REMARK  Name = 
REMARK  9 active torsions:
REMARK  status: ('A' for Active; 'I' for Inactive)
REMARK    1  A    between atoms: C_1  and  C_2
REMARK    2  A    between atoms: C_6  and  N_7
REMARK    3  A    between atoms: N_7  and  C_8
REMARK    4  A    between atoms: C_8  and  C_9
REMARK    5  A    between atoms: N_11  and  C_12
REMARK    6  A    between atoms: C_17  and  C_19
REMARK    7  A    between atoms: C_19  and  N_20
REMARK    8  A    between atoms: C_21  and  C_23
REMARK    9  A    between atoms: C_28  and  C_29
REMARK                            x       y       z     vdW  Elec       q    Type
REMARK                         _______ _______ _______ _____ _____    ______ ____
ROOT
ATOM      1  N   UNL     1       3.420   5.840  18.167  0.00  0.00    +0.000 N 
ATOM      2  C   UNL     1       4.818   5.686  18.303  0.00  0.00    +0.000 C 
ATOM      3  O   UNL     1       5.335   4.865  19.067  0.00  0.00    +0.000 OA
ENDROOT
BRANCH   1   9
ATOM      4  C   UNL     1       0.421   1.956  19.138  0.00  0.00    +0.000 C 
ATOM      5  C   UNL     1       1.156   3.186  19.606  0.00  0.00    +0.000 A 
ATOM      6  C   UNL     1       1.399   3.353  20.974  0.00  0.00    +0.000 A 
ATOM      7  C   UNL     1       2.197   4.403  21.422  0.00  0.00    +0.000 A 
ATOM      8  C   UNL     1       2.826   5.257  20.504  0.00  0.00    +0.000 A 
ATOM      9  C   UNL     1       2.613   5.106  19.124  0.00  0.00    +0.000 A 
ATOM     10  C   UNL     1       1.694   4.122  18.685  0.00  0.00    +0.000 A 
ATOM     11  C   UNL     1       1.241   4.075  17.251  0.00  0.00    +0.000 C 
ENDBRANCH   1   9
BRANCH   1  12
ATOM     12  C   UNL     1       2.846   7.068  17.572  0.00  0.00    +0.000 C 
BRANCH  12  13
ATOM     13  C   UNL     1       2.272   8.126  18.558  0.00  0.00    +0.000 C 
ATOM     14  O   UNL     1       2.135   7.871  19.751  0.00  0.00    +0.000 OA
ATOM     15  N   UNL     1       1.842   9.310  17.997  0.00  0.00    +0.000 N 
ATOM     16  H   UNL     1       1.867   9.363  16.989  0.00  0.00    +0.000 HD
BRANCH  15  17
ATOM     17  C   UNL     1       1.284  10.456  18.707  0.00  0.00    +0.000 C 
ATOM     18  C   UNL     1       1.889  11.823  18.390  0.00  0.00    +0.000 C 
ATOM     19  C   UNL     1       0.920  12.800  19.052  0.00  0.00    +0.000 C 
ATOM     20  C   UNL     1      -0.451  12.127  18.999  0.00  0.00    +0.000 C 
ATOM     21  C   UNL     1      -0.214  10.692  18.513  0.00  0.00    +0.000 C 
ENDBRANCH  15  17
ENDBRANCH  12  13
ENDBRANCH   1  12
BRANCH   2  22
ATOM     22  C   UNL     1       5.756   6.639  17.548  0.00  0.00    +0.000 C 
BRANCH  22  23
ATOM     23  N   UNL     1       5.997   6.184  16.192  0.00  0.00    +0.000 N 
ATOM     24  C   UNL     1       6.935   5.220  15.887  0.00  0.00    +0.000 C 
ATOM     25  O   UNL     1       7.595   4.658  16.751  0.00  0.00    +0.000 OA
ATOM     26  H   UNL     1       5.485   6.613  15.427  0.00  0.00    +0.000 HD
BRANCH  24  27
ATOM     27  C   UNL     1       7.062   4.930  14.472  0.00  0.00    +0.000 A 
ATOM     28  C   UNL     1       6.375   4.036  13.671  0.00  0.00    +0.000 A 
ATOM     29  C   UNL     1       6.904   4.169  12.365  0.00  0.00    +0.000 A 
ATOM     30  C   UNL     1       7.881   5.132  12.446  0.00  0.00    +0.000 A 
ATOM     31  O   UNL     1       7.984   5.605  13.715  0.00  0.00    +0.000 OA
ENDBRANCH  24  27
ENDBRANCH  22  23
ENDBRANCH   2  22
TORSDOF 7
ENDMDL
MODEL 9
REMARK VINA RESULT:      -7.3      2.795      6.737
REMARK  Name = 
REMARK  9 active torsions:
REMARK  status: ('A' for Active; 'I' for Inactive)
REMARK    1  A    between atoms: C_1  and  C_2
REMARK    2  A    between atoms: C_6  and  N_7
REMARK    3  A    between atoms: N_7  and  C_8
REMARK    4  A    between atoms: C_8  and  C_9
REMARK    5  A    between atoms: N_11  and  C_12
REMARK    6  A    between atoms: C_17  and  C_19
REMARK    7  A    between atoms: C_19  and  N_20
REMARK    8  A    between atoms: C_21  and  C_23
REMARK    9  A    between atoms: C_28  and  C_29
REMARK                            x       y       z     vdW  Elec       q    Type
REMARK                         _______ _______ _______ _____ _____    ______ ____
ROOT
ATOM      1  N   UNL     1       3.588   5.874  18.077  0.00  0.00    +0.000 N 
ATOM      2  C   UNL     1       4.972   5.763  18.341  0.00  0.00    +0.000 C 
ATOM      3  O   UNL     1       5.437   5.023  19.213  0.00  0.00    +0.000 OA
ENDROOT
BRANCH   1   9
ATOM      4  C   UNL     1       0.607   2.003  19.146  0.00  0.00    +0.000 C 
ATOM      5  C   UNL     1       1.266   3.294  19.557  0.00  0.00    +0.000 A 
ATOM      6  C   UNL     1       1.380   3.595  20.919  0.00  0.00    +0.000 A 
ATOM      7  C   UNL     1       2.109   4.708  21.334  0.00  0.00    +0.000 A 
ATOM      8  C   UNL     1       2.798   5.492  20.398  0.00  0.00    +0.000 A 
ATOM      9  C   UNL     1       2.716   5.207  19.025  0.00  0.00    +0.000 A 
ATOM     10  C   UNL     1       1.864   4.157  18.603  0.00  0.00    +0.000 A 
ATOM     11  C   UNL     1       1.544   3.963  17.145  0.00  0.00    +0.000 C 
ENDBRANCH   1   9
BRANCH   1  12
ATOM     12  C   UNL     1       3.048   7.033  17.332  0.00  0.00    +0.000 C 
BRANCH  12  13
ATOM     13  C   UNL     1       2.638   8.279  18.170  0.00  0.00    +0.000 C 
ATOM     14  O   UNL     1       3.163   9.372  17.978  0.00  0.00    +0.000 OA
ATOM     15  N   UNL     1       1.734   8.057  19.188  0.00  0.00    +0.000 N 
ATOM     16  H   UNL     1       1.472   7.096  19.352  0.00  0.00    +0.000 HD
BRANCH  15  17
ATOM     17  C   UNL     1       1.184   9.059  20.096  0.00  0.00    +0.000 C 
ATOM     18  C   UNL     1       0.026   9.904  19.568  0.00  0.00    +0.000 C 
ATOM     19  C   UNL     1      -0.488  10.617  20.816  0.00  0.00    +0.000 C 
ATOM     20  C   UNL     1      -0.217   9.665  21.982  0.00  0.00    +0.000 C 
ATOM     21  C   UNL     1       0.641   8.525  21.422  0.00  0.00    +0.000 C 
ENDBRANCH  15  17
ENDBRANCH  12  13
ENDBRANCH   1  12
BRANCH   2  22
ATOM     22  C   UNL     1       5.956   6.669  17.585  0.00  0.00    +0.000 C 
BRANCH  22  23
ATOM     23  N   UNL     1       6.146   6.224  16.218  0.00  0.00    +0.000 N 
ATOM     24  C   UNL     1       7.015   5.208  15.881  0.00  0.00    +0.000 C 
ATOM     25  O   UNL     1       7.652   4.590  16.724  0.00  0.00    +0.000 OA
ATOM     26  H   UNL     1       5.650   6.699  15.470  0.00  0.00    +0.000 HD
BRANCH  24  27
ATOM     27  C   UNL     1       7.101   4.936  14.459  0.00  0.00    +0.000 A 
ATOM     28  C   UNL     1       6.424   4.018  13.676  0.00  0.00    +0.000 A 
ATOM     29  C   UNL     1       6.896   4.186  12.352  0.00  0.00    +0.000 A 
ATOM     30  C   UNL     1       7.831   5.192  12.406  0.00  0.00    +0.000 A 
ATOM     31  O   UNL     1       7.961   5.658  13.674  0.00  0.00    +0.000 OA
ENDBRANCH  24  27
ENDBRANCH  22  23
ENDBRANCH   2  22
TORSDOF 7
ENDMDL
