MODEL 1
REMARK VINA RESULT:      -7.6      0.000      0.000
REMARK  Name = 
REMARK  5 active torsions:
REMARK  status: ('A' for Active; 'I' for Inactive)
REMARK    1  A    between atoms: C_1  and  N_2
REMARK    2  A    between atoms: N_2  and  C_3
REMARK    3  A    between atoms: C_5  and  C_6
REMARK    4  A    between atoms: C_15  and  O_16
REMARK    5  A    between atoms: O_16  and  C_17
REMARK                            x       y       z     vdW  Elec       q    Type
REMARK                         _______ _______ _______ _____ _____    ______ ____
ROOT
ATOM      1  C   UNL     1       4.999   4.848  17.655  0.00  0.00    +0.000 C 
ATOM      2  C   UNL     1       5.183   5.498  19.031  0.00  0.00    +0.000 C 
ATOM      3  C   UNL     1       3.787   5.478  19.680  0.00  0.00    +0.000 C 
ATOM      4  C   UNL     1       3.214   4.199  19.100  0.00  0.00    +0.000 A 
ATOM      5  C   UNL     1       2.118   3.392  19.515  0.00  0.00    +0.000 A 
ATOM      6  C   UNL     1       1.776   2.282  18.720  0.00  0.00    +0.000 A 
ATOM      7  C   UNL     1       2.469   1.989  17.540  0.00  0.00    +0.000 A 
ATOM      8  C   UNL     1       3.527   2.798  17.130  0.00  0.00    +0.000 A 
ATOM      9  C   UNL     1       3.899   3.879  17.931  0.00  0.00    +0.000 A 
ENDROOT
BRANCH   3  10
ATOM     10  C   UNL     1       2.984   6.731  19.335  0.00  0.00    +0.000 A 
ATOM     11  C   UNL     1       3.081   7.390  18.091  0.00  0.00    +0.000 A 
ATOM     12  C   UNL     1       2.310   8.523  17.823  0.00  0.00    +0.000 A 
ATOM     13  C   UNL     1       1.433   9.027  18.787  0.00  0.00    +0.000 A 
ATOM     14 CL   UNL     1       0.483  10.457  18.409  0.00  0.00    +0.000 Cl
ATOM     15  C   UNL     1       1.324   8.384  20.029  0.00  0.00    +0.000 A 
ATOM     16 CL   UNL     1       0.234   8.988  21.271  0.00  0.00    +0.000 Cl
ATOM     17  C   UNL     1       2.090   7.244  20.294  0.00  0.00    +0.000 A 
ENDBRANCH   3  10
BRANCH   1  19
ATOM     18  C   UNL     1       7.487   4.697  17.753  0.00  0.00    +0.000 C 
ATOM     19  N   UNL     1       6.238   4.236  17.123  0.00  0.00    +0.000 NA
ATOM     20  H   UNL     1       6.170   3.202  17.271  0.00  0.00    +0.000 HD
ENDBRANCH   1  19
BRANCH   5  21
ATOM     21  O   UNL     1       1.355   3.602  20.622  0.00  0.00    +0.000 OA
ATOM     22  C   UNL     1       1.418   2.979  21.848  0.00  0.00    +0.000 C 
ENDBRANCH   5  21
TORSDOF 3
ENDMDL
MODEL 2
REMARK VINA RESULT:      -6.8      0.970      1.684
REMARK  Name = 
REMARK  5 active torsions:
REMARK  status: ('A' for Active; 'I' for Inactive)
REMARK    1  A    between atoms: C_1  and  N_2
REMARK    2  A    between atoms: N_2  and  C_3
REMARK    3  A    between atoms: C_5  and  C_6
REMARK    4  A    between atoms: C_15  and  O_16
REMARK    5  A    between atoms: O_16  and  C_17
REMARK                            x       y       z     vdW  Elec       q    Type
REMARK                         _______ _______ _______ _____ _____    ______ ____
ROOT
ATOM      1  C   UNL     1       4.147   5.301  17.070  0.00  0.00    +0.000 C 
ATOM      2  C   UNL     1       4.826   5.909  18.302  0.00  0.00    +0.000 C 
ATOM      3  C   UNL     1       3.888   5.592  19.482  0.00  0.00    +0.000 C 
ATOM      4  C   UNL     1       3.316   4.255  19.048  0.00  0.00    +0.000 A 
ATOM      5  C   UNL     1       2.657   3.235  19.789  0.00  0.00    +0.000 A 
ATOM      6  C   UNL     1       2.168   2.119  19.087  0.00  0.00    +0.000 A 
ATOM      7  C   UNL     1       2.296   2.019  17.696  0.00  0.00    +0.000 A 
ATOM      8  C   UNL     1       2.923   3.034  16.976  0.00  0.00    +0.000 A 
ATOM      9  C   UNL     1       3.446   4.127  17.669  0.00  0.00    +0.000 A 
ENDROOT
BRANCH   3  10
ATOM     10  C   UNL     1       2.837   6.683  19.678  0.00  0.00    +0.000 A 
ATOM     11  C   UNL     1       1.964   6.721  20.787  0.00  0.00    +0.000 A 
ATOM     12  C   UNL     1       1.032   7.752  20.925  0.00  0.00    +0.000 A 
ATOM     13  C   UNL     1       0.946   8.762  19.964  0.00  0.00    +0.000 A 
ATOM     14 CL   UNL     1      -0.242  10.040  20.175  0.00  0.00    +0.000 Cl
ATOM     15  C   UNL     1       1.806   8.740  18.856  0.00  0.00    +0.000 A 
ATOM     16 CL   UNL     1       1.728   9.990  17.620  0.00  0.00    +0.000 Cl
ATOM     17  C   UNL     1       2.745   7.712  18.721  0.00  0.00    +0.000 A 
ENDBRANCH   3  10
BRANCH   1  19
ATOM     18  C   UNL     1       6.398   4.441  16.427  0.00  0.00    +0.000 C 
ATOM     19  N   UNL     1       5.094   4.963  15.983  0.00  0.00    +0.000 NA
ATOM     20  H   UNL     1       4.644   4.230  15.387  0.00  0.00    +0.000 HD
ENDBRANCH   1  19
BRANCH   5  21
ATOM     21  O   UNL     1       2.448   3.243  21.134  0.00  0.00    +0.000 OA
ATOM     22  C   UNL     1       1.527   2.537  21.872  0.00  0.00    +0.000 C 
ENDBRANCH   5  21
TORSDOF 3
ENDMDL
MODEL 3
REMARK VINA RESULT:      -6.5      2.228      4.194
REMARK  Name = 
REMARK  5 active torsions:
REMARK  status: ('A' for Active; 'I' for Inactive)
REMARK    1  A    between atoms: C_1  and  N_2
REMARK    2  A    between atoms: N_2  and  C_3
REMARK    3  A    between atoms: C_5  and  C_6
REMARK    4  A    between atoms: C_15  and  O_16
REMARK    5  A    between atoms: O_16  and  C_17
REMARK                            x       y       z     vdW  Elec       q    Type
REMARK                         _______ _______ _______ _____ _____    ______ ____
ROOT
ATOM      1  C   UNL     1       4.435   3.764  19.448  0.00  0.00    +0.000 C 
ATOM      2  C   UNL     1       3.299   3.922  18.431  0.00  0.00    +0.000 C 
ATOM      3  C   UNL     1       3.493   5.321  17.819  0.00  0.00    +0.000 C 
ATOM      4  C   UNL     1       5.004   5.449  17.857  0.00  0.00    +0.000 A 
ATOM      5  C   UNL     1       5.887   6.319  17.157  0.00  0.00    +0.000 A 
ATOM      6  C   UNL     1       7.259   6.250  17.459  0.00  0.00    +0.000 A 
ATOM      7  C   UNL     1       7.748   5.375  18.437  0.00  0.00    +0.000 A 
ATOM      8  C   UNL     1       6.872   4.543  19.132  0.00  0.00    +0.000 A 
ATOM      9  C   UNL     1       5.514   4.577  18.813  0.00  0.00    +0.000 A 
ENDROOT
BRANCH   3  10
ATOM     10  C   UNL     1       2.758   6.396  18.618  0.00  0.00    +0.000 A 
ATOM     11  C   UNL     1       2.275   6.187  19.928  0.00  0.00    +0.000 A 
ATOM     12  C   UNL     1       1.624   7.211  20.619  0.00  0.00    +0.000 A 
ATOM     13  C   UNL     1       1.435   8.459  20.021  0.00  0.00    +0.000 A 
ATOM     14 CL   UNL     1       0.608   9.720  20.926  0.00  0.00    +0.000 Cl
ATOM     15  C   UNL     1       1.909   8.684  18.720  0.00  0.00    +0.000 A 
ATOM     16 CL   UNL     1       1.688  10.241  17.930  0.00  0.00    +0.000 Cl
ATOM     17  C   UNL     1       2.568   7.661  18.031  0.00  0.00    +0.000 A 
ENDBRANCH   3  10
BRANCH   1  19
ATOM     18  C   UNL     1       3.951   1.351  19.041  0.00  0.00    +0.000 C 
ATOM     19  N   UNL     1       4.802   2.353  19.707  0.00  0.00    +0.000 NA
ATOM     20  H   UNL     1       5.782   2.212  19.370  0.00  0.00    +0.000 HD
ENDBRANCH   1  19
BRANCH   5  21
ATOM     21  O   UNL     1       5.520   7.228  16.214  0.00  0.00    +0.000 OA
ATOM     22  C   UNL     1       4.905   7.018  15.001  0.00  0.00    +0.000 C 
ENDBRANCH   5  21
TORSDOF 3
ENDMDL
MODEL 4
REMARK VINA RESULT:      -6.5      3.314      5.017
REMARK  Name = 
REMARK  5 active torsions:
REMARK  status: ('A' for Active; 'I' for Inactive)
REMARK    1  A    between atoms: C_1  and  N_2
REMARK    2  A    between atoms: N_2  and  C_3
REMARK    3  A    between atoms: C_5  and  C_6
REMARK    4  A    between atoms: C_15  and  O_16
REMARK    5  A    between atoms: O_16  and  C_17
REMARK                            x       y       z     vdW  Elec       q    Type
REMARK                         _______ _______ _______ _____ _____    ______ ____
ROOT
ATOM      1  C   UNL     1       2.569   6.721  20.068  0.00  0.00    +0.000 C 
ATOM      2  C   UNL     1       2.080   6.898  18.626  0.00  0.00    +0.000 C 
ATOM      3  C   UNL     1       2.271   5.523  17.960  0.00  0.00    +0.000 C 
ATOM      4  C   UNL     1       2.022   4.594  19.133  0.00  0.00    +0.000 A 
ATOM      5  C   UNL     1       1.705   3.208  19.178  0.00  0.00    +0.000 A 
ATOM      6  C   UNL     1       1.601   2.594  20.439  0.00  0.00    +0.000 A 
ATOM      7  C   UNL     1       1.830   3.310  21.620  0.00  0.00    +0.000 A 
ATOM      8  C   UNL     1       2.162   4.662  21.565  0.00  0.00    +0.000 A 
ATOM      9  C   UNL     1       2.230   5.290  20.320  0.00  0.00    +0.000 A 
ENDROOT
BRANCH   3  10
ATOM     10  C   UNL     1       3.659   5.383  17.338  0.00  0.00    +0.000 A 
ATOM     11  C   UNL     1       4.032   4.290  16.526  0.00  0.00    +0.000 A 
ATOM     12  C   UNL     1       5.311   4.221  15.969  0.00  0.00    +0.000 A 
ATOM     13  C   UNL     1       6.244   5.231  16.212  0.00  0.00    +0.000 A 
ATOM     14 CL   UNL     1       7.844   5.103  15.494  0.00  0.00    +0.000 Cl
ATOM     15  C   UNL     1       5.890   6.324  17.017  0.00  0.00    +0.000 A 
ATOM     16 CL   UNL     1       7.037   7.616  17.351  0.00  0.00    +0.000 Cl
ATOM     17  C   UNL     1       4.607   6.398  17.568  0.00  0.00    +0.000 A 
ENDBRANCH   3  10
BRANCH   1  19
ATOM     18  C   UNL     1       1.184   8.769  20.402  0.00  0.00    +0.000 C 
ATOM     19  N   UNL     1       1.955   7.675  21.019  0.00  0.00    +0.000 NA
ATOM     20  H   UNL     1       1.304   7.135  21.635  0.00  0.00    +0.000 HD
ENDBRANCH   1  19
BRANCH   5  21
ATOM     21  O   UNL     1       1.494   2.409  18.096  0.00  0.00    +0.000 OA
ATOM     22  C   UNL     1       2.407   1.688  17.362  0.00  0.00    +0.000 C 
ENDBRANCH   5  21
TORSDOF 3
ENDMDL
MODEL 5
REMARK VINA RESULT:      -6.5      2.320      3.998
REMARK  Name = 
REMARK  5 active torsions:
REMARK  status: ('A' for Active; 'I' for Inactive)
REMARK    1  A    between atoms: C_1  and  N_2
REMARK    2  A    between atoms: N_2  and  C_3
REMARK    3  A    between atoms: C_5  and  C_6
REMARK    4  A    between atoms: C_15  and  O_16
REMARK    5  A    between atoms: O_16  and  C_17
REMARK                            x       y       z     vdW  Elec       q    Type
REMARK                         _______ _______ _______ _____ _____    ______ ____
ROOT
ATOM      1  C   UNL     1       3.858   4.599  19.796  0.00  0.00    +0.000 C 
ATOM      2  C   UNL     1       2.826   4.672  18.665  0.00  0.00    +0.000 C 
ATOM      3  C   UNL     1       3.239   5.889  17.816  0.00  0.00    +0.000 C 
ATOM      4  C   UNL     1       4.747   5.855  17.973  0.00  0.00    +0.000 A 
ATOM      5  C   UNL     1       5.781   6.463  17.207  0.00  0.00    +0.000 A 
ATOM      6  C   UNL     1       7.108   6.306  17.645  0.00  0.00    +0.000 A 
ATOM      7  C   UNL     1       7.411   5.599  18.815  0.00  0.00    +0.000 A 
ATOM      8  C   UNL     1       6.390   5.026  19.570  0.00  0.00    +0.000 A 
ATOM      9  C   UNL     1       5.073   5.144  19.123  0.00  0.00    +0.000 A 
ENDROOT
BRANCH   3  10
ATOM     10  C   UNL     1       2.590   7.177  18.321  0.00  0.00    +0.000 A 
ATOM     11  C   UNL     1       2.397   8.312  17.506  0.00  0.00    +0.000 A 
ATOM     12  C   UNL     1       1.783   9.459  18.015  0.00  0.00    +0.000 A 
ATOM     13  C   UNL     1       1.354   9.501  19.343  0.00  0.00    +0.000 A 
ATOM     14 CL   UNL     1       0.587  10.965  19.944  0.00  0.00    +0.000 Cl
ATOM     15  C   UNL     1       1.538   8.381  20.168  0.00  0.00    +0.000 A 
ATOM     16 CL   UNL     1       1.015   8.394  21.848  0.00  0.00    +0.000 Cl
ATOM     17  C   UNL     1       2.146   7.230  19.656  0.00  0.00    +0.000 A 
ENDBRANCH   3  10
BRANCH   1  19
ATOM     18  C   UNL     1       3.887   2.139  19.383  0.00  0.00    +0.000 C 
ATOM     19  N   UNL     1       4.023   3.237  20.355  0.00  0.00    +0.000 NA
ATOM     20  H   UNL     1       4.982   3.178  20.769  0.00  0.00    +0.000 HD
ENDBRANCH   1  19
BRANCH   5  21
ATOM     21  O   UNL     1       5.600   7.198  16.075  0.00  0.00    +0.000 OA
ATOM     22  C   UNL     1       5.113   6.799  14.852  0.00  0.00    +0.000 C 
ENDBRANCH   5  21
TORSDOF 3
ENDMDL
MODEL 6
REMARK VINA RESULT:      -6.3      5.509      8.209
REMARK  Name = 
REMARK  5 active torsions:
REMARK  status: ('A' for Active; 'I' for Inactive)
REMARK    1  A    between atoms: C_1  and  N_2
REMARK    2  A    between atoms: N_2  and  C_3
REMARK    3  A    between atoms: C_5  and  C_6
REMARK    4  A    between atoms: C_15  and  O_16
REMARK    5  A    between atoms: O_16  and  C_17
REMARK                            x       y       z     vdW  Elec       q    Type
REMARK                         _______ _______ _______ _____ _____    ______ ____
ROOT
ATOM      1  C   UNL     1       0.253  10.523  19.013  0.00  0.00    +0.000 C 
ATOM      2  C   UNL     1       0.001  12.032  18.912  0.00  0.00    +0.000 C 
ATOM      3  C   UNL     1      -1.049  12.342  19.995  0.00  0.00    +0.000 C 
ATOM      4  C   UNL     1      -0.681  11.324  21.058  0.00  0.00    +0.000 A 
ATOM      5  C   UNL     1      -1.002  11.261  22.443  0.00  0.00    +0.000 A 
ATOM      6  C   UNL     1      -0.568  10.138  23.171  0.00  0.00    +0.000 A 
ATOM      7  C   UNL     1       0.133   9.095  22.554  0.00  0.00    +0.000 A 
ATOM      8  C   UNL     1       0.423   9.156  21.193  0.00  0.00    +0.000 A 
ATOM      9  C   UNL     1       0.030  10.284  20.470  0.00  0.00    +0.000 A 
ENDROOT
BRANCH   3  10
ATOM     10  C   UNL     1      -2.473  12.196  19.461  0.00  0.00    +0.000 A 
ATOM     11  C   UNL     1      -3.614  12.593  20.190  0.00  0.00    +0.000 A 
ATOM     12  C   UNL     1      -4.892  12.452  19.646  0.00  0.00    +0.000 A 
ATOM     13  C   UNL     1      -5.062  11.910  18.370  0.00  0.00    +0.000 A 
ATOM     14 CL   UNL     1      -6.689  11.748  17.724  0.00  0.00    +0.000 Cl
ATOM     15  C   UNL     1      -3.939  11.510  17.631  0.00  0.00    +0.000 A 
ATOM     16 CL   UNL     1      -4.110  10.819  16.022  0.00  0.00    +0.000 Cl
ATOM     17  C   UNL     1      -2.658  11.659  18.172  0.00  0.00    +0.000 A 
ENDBRANCH   3  10
BRANCH   1  19
ATOM     18  C   UNL     1       1.615   8.867  17.738  0.00  0.00    +0.000 C 
ATOM     19  N   UNL     1       1.588  10.115  18.521  0.00  0.00    +0.000 NA
ATOM     20  H   UNL     1       1.949  10.883  17.908  0.00  0.00    +0.000 HD
ENDBRANCH   1  19
BRANCH   5  21
ATOM     21  O   UNL     1      -1.704  12.198  23.137  0.00  0.00    +0.000 OA
ATOM     22  C   UNL     1      -1.385  13.513  23.383  0.00  0.00    +0.000 C 
ENDBRANCH   5  21
TORSDOF 3
ENDMDL
MODEL 7
REMARK VINA RESULT:      -6.3      5.704      8.231
REMARK  Name = 
REMARK  5 active torsions:
REMARK  status: ('A' for Active; 'I' for Inactive)
REMARK    1  A    between atoms: C_1  and  N_2
REMARK    2  A    between atoms: N_2  and  C_3
REMARK    3  A    between atoms: C_5  and  C_6
REMARK    4  A    between atoms: C_15  and  O_16
REMARK    5  A    between atoms: O_16  and  C_17
REMARK                            x       y       z     vdW  Elec       q    Type
REMARK                         _______ _______ _______ _____ _____    ______ ____
ROOT
ATOM      1  C   UNL     1       0.226  10.570  19.019  0.00  0.00    +0.000 C 
ATOM      2  C   UNL     1      -0.069  12.070  18.909  0.00  0.00    +0.000 C 
ATOM      3  C   UNL     1      -1.136  12.355  19.982  0.00  0.00    +0.000 C 
ATOM      4  C   UNL     1      -0.747  11.353  21.053  0.00  0.00    +0.000 A 
ATOM      5  C   UNL     1      -1.076  11.287  22.436  0.00  0.00    +0.000 A 
ATOM      6  C   UNL     1      -0.615  10.181  23.173  0.00  0.00    +0.000 A 
ATOM      7  C   UNL     1       0.121   9.156  22.566  0.00  0.00    +0.000 A 
ATOM      8  C   UNL     1       0.419   9.219  21.207  0.00  0.00    +0.000 A 
ATOM      9  C   UNL     1      -0.001  10.331  20.475  0.00  0.00    +0.000 A 
ENDROOT
BRANCH   3  10
ATOM     10  C   UNL     1      -2.551  12.165  19.439  0.00  0.00    +0.000 A 
ATOM     11  C   UNL     1      -2.825  11.523  18.212  0.00  0.00    +0.000 A 
ATOM     12  C   UNL     1      -4.140  11.362  17.771  0.00  0.00    +0.000 A 
ATOM     13  C   UNL     1      -5.207  11.839  18.536  0.00  0.00    +0.000 A 
ATOM     14 CL   UNL     1      -6.847  11.618  17.942  0.00  0.00    +0.000 Cl
ATOM     15  C   UNL     1      -4.953  12.480  19.758  0.00  0.00    +0.000 A 
ATOM     16 CL   UNL     1      -6.267  13.099  20.750  0.00  0.00    +0.000 Cl
ATOM     17  C   UNL     1      -3.636  12.634  20.204  0.00  0.00    +0.000 A 
ENDBRANCH   3  10
BRANCH   1  19
ATOM     18  C   UNL     1       1.649   8.935  17.785  0.00  0.00    +0.000 C 
ATOM     19  N   UNL     1       1.576  10.198  18.539  0.00  0.00    +0.000 NA
ATOM     20  H   UNL     1       1.911  10.964  17.909  0.00  0.00    +0.000 HD
ENDBRANCH   1  19
BRANCH   5  21
ATOM     21  O   UNL     1      -1.810  12.207  23.120  0.00  0.00    +0.000 OA
ATOM     22  C   UNL     1      -1.502  13.514  23.417  0.00  0.00    +0.000 C 
ENDBRANCH   5  21
TORSDOF 3
ENDMDL
MODEL 8
REMARK VINA RESULT:      -6.2      2.472      4.373
REMARK  Name = 
REMARK  5 active torsions:
REMARK  status: ('A' for Active; 'I' for Inactive)
REMARK    1  A    between atoms: C_1  and  N_2
REMARK    2  A    between atoms: N_2  and  C_3
REMARK    3  A    between atoms: C_5  and  C_6
REMARK    4  A    between atoms: C_15  and  O_16
REMARK    5  A    between atoms: O_16  and  C_17
REMARK                            x       y       z     vdW  Elec       q    Type
REMARK                         _______ _______ _______ _____ _____    ______ ____
ROOT
ATOM      1  C   UNL     1       4.458   4.192  18.396  0.00  0.00    +0.000 C 
ATOM      2  C   UNL     1       3.919   4.802  17.097  0.00  0.00    +0.000 C 
ATOM      3  C   UNL     1       4.414   6.260  17.096  0.00  0.00    +0.000 C 
ATOM      4  C   UNL     1       5.743   6.117  17.813  0.00  0.00    +0.000 A 
ATOM      5  C   UNL     1       6.875   6.978  17.868  0.00  0.00    +0.000 A 
ATOM      6  C   UNL     1       7.953   6.601  18.688  0.00  0.00    +0.000 A 
ATOM      7  C   UNL     1       7.912   5.430  19.454  0.00  0.00    +0.000 A 
ATOM      8  C   UNL     1       6.791   4.605  19.412  0.00  0.00    +0.000 A 
ATOM      9  C   UNL     1       5.731   4.950  18.571  0.00  0.00    +0.000 A 
ENDROOT
BRANCH   3  10
ATOM     10  C   UNL     1       3.428   7.194  17.795  0.00  0.00    +0.000 A 
ATOM     11  C   UNL     1       3.041   8.443  17.265  0.00  0.00    +0.000 A 
ATOM     12  C   UNL     1       2.122   9.250  17.939  0.00  0.00    +0.000 A 
ATOM     13  C   UNL     1       1.574   8.834  19.155  0.00  0.00    +0.000 A 
ATOM     14 CL   UNL     1       0.422   9.881  19.971  0.00  0.00    +0.000 Cl
ATOM     15  C   UNL     1       1.947   7.595  19.696  0.00  0.00    +0.000 A 
ATOM     16 CL   UNL     1       1.283   7.036  21.227  0.00  0.00    +0.000 Cl
ATOM     17  C   UNL     1       2.861   6.783  19.017  0.00  0.00    +0.000 A 
ENDBRANCH   3  10
BRANCH   1  19
ATOM     18  C   UNL     1       3.385   1.943  18.519  0.00  0.00    +0.000 C 
ATOM     19  N   UNL     1       4.621   2.722  18.332  0.00  0.00    +0.000 NA
ATOM     20  H   UNL     1       5.007   2.486  17.388  0.00  0.00    +0.000 HD
ENDBRANCH   1  19
BRANCH   5  21
ATOM     21  O   UNL     1       7.009   8.153  17.193  0.00  0.00    +0.000 OA
ATOM     22  C   UNL     1       7.765   9.255  17.516  0.00  0.00    +0.000 C 
ENDBRANCH   5  21
TORSDOF 3
ENDMDL
MODEL 9
REMARK VINA RESULT:      -6.1      2.304      4.410
REMARK  Name = 
REMARK  5 active torsions:
REMARK  status: ('A' for Active; 'I' for Inactive)
REMARK    1  A    between atoms: C_1  and  N_2
REMARK    2  A    between atoms: N_2  and  C_3
REMARK    3  A    between atoms: C_5  and  C_6
REMARK    4  A    between atoms: C_15  and  O_16
REMARK    5  A    between atoms: O_16  and  C_17
REMARK                            x       y       z     vdW  Elec       q    Type
REMARK                         _______ _______ _______ _____ _____    ______ ____
ROOT
ATOM      1  C   UNL     1       4.328   3.991  18.165  0.00  0.00    +0.000 C 
ATOM      2  C   UNL     1       3.639   4.779  17.045  0.00  0.00    +0.000 C 
ATOM      3  C   UNL     1       4.115   6.233  17.218  0.00  0.00    +0.000 C 
ATOM      4  C   UNL     1       5.518   6.019  17.754  0.00  0.00    +0.000 A 
ATOM      5  C   UNL     1       6.639   6.893  17.818  0.00  0.00    +0.000 A 
ATOM      6  C   UNL     1       7.807   6.425  18.445  0.00  0.00    +0.000 A 
ATOM      7  C   UNL     1       7.866   5.150  19.018  0.00  0.00    +0.000 A 
ATOM      8  C   UNL     1       6.756   4.309  18.970  0.00  0.00    +0.000 A 
ATOM      9  C   UNL     1       5.605   4.749  18.316  0.00  0.00    +0.000 A 
ENDROOT
BRANCH   3  10
ATOM     10  C   UNL     1       3.203   7.018  18.159  0.00  0.00    +0.000 A 
ATOM     11  C   UNL     1       2.785   6.528  19.414  0.00  0.00    +0.000 A 
ATOM     12  C   UNL     1       1.964   7.296  20.242  0.00  0.00    +0.000 A 
ATOM     13  C   UNL     1       1.539   8.564  19.837  0.00  0.00    +0.000 A 
ATOM     14 CL   UNL     1       0.504   9.497  20.909  0.00  0.00    +0.000 Cl
ATOM     15  C   UNL     1       1.944   9.067  18.592  0.00  0.00    +0.000 A 
ATOM     16 CL   UNL     1       1.428  10.657  18.043  0.00  0.00    +0.000 Cl
ATOM     17  C   UNL     1       2.774   8.301  17.766  0.00  0.00    +0.000 A 
ENDBRANCH   3  10
BRANCH   1  19
ATOM     18  C   UNL     1       3.555   1.647  18.529  0.00  0.00    +0.000 C 
ATOM     19  N   UNL     1       4.500   2.554  17.854  0.00  0.00    +0.000 NA
ATOM     20  H   UNL     1       4.373   2.434  16.822  0.00  0.00    +0.000 HD
ENDBRANCH   1  19
BRANCH   5  21
ATOM     21  O   UNL     1       6.682   8.161  17.325  0.00  0.00    +0.000 OA
ATOM     22  C   UNL     1       7.629   9.138  17.530  0.00  0.00    +0.000 C 
ENDBRANCH   5  21
TORSDOF 3
ENDMDL
