MODEL 1
REMARK VINA RESULT:      -7.3      0.000      0.000
REMARK  Name = 
REMARK  10 active torsions:
REMARK  status: ('A' for Active; 'I' for Inactive)
REMARK    1  A    between atoms: C_1  and  C_2
REMARK    2  A    between atoms: C_2  and  C_4
REMARK    3  A    between atoms: C_4  and  O_5
REMARK    4  A    between atoms: C_10  and  O_11
REMARK    5  A    between atoms: C_14  and  C_15
REMARK    6  A    between atoms: C_15  and  O_16
REMARK    7  A    between atoms: O_16  and  C_17
REMARK    8  A    between atoms: C_17  and  C_18
REMARK    9  A    between atoms: C_18  and  C_19
REMARK   10  A    between atoms: C_19  and  N_20
REMARK                            x       y       z     vdW  Elec       q    Type
REMARK                         _______ _______ _______ _____ _____    ______ ____
ROOT
ATOM      1  C   UNL     1       0.522   9.954  21.364  0.00  0.00    +0.000 C 
ATOM      2  C   UNL     1      -0.283   8.730  21.767  0.00  0.00    +0.000 C 
ATOM      3  C   UNL     1       0.561   7.463  21.656  0.00  0.00    +0.000 C 
ATOM      4  C   UNL     1       1.447   7.344  20.408  0.00  0.00    +0.000 A 
ATOM      5  C   UNL     1       1.543   8.458  19.530  0.00  0.00    +0.000 A 
ATOM      6  C   UNL     1       2.319   8.372  18.358  0.00  0.00    +0.000 A 
ATOM      7  C   UNL     1       3.076   7.212  18.077  0.00  0.00    +0.000 A 
ATOM      8  C   UNL     1       3.058   6.107  18.972  0.00  0.00    +0.000 A 
ATOM      9  C   UNL     1       2.214   6.154  20.145  0.00  0.00    +0.000 A 
ATOM     10  C   UNL     1       3.945   4.922  18.627  0.00  0.00    +0.000 C 
ATOM     11  O   UNL     1       4.083   3.984  19.394  0.00  0.00    +0.000 OA
ATOM     12  C   UNL     1       4.722   4.871  17.364  0.00  0.00    +0.000 A 
ATOM     13  C   UNL     1       5.473   3.728  17.032  0.00  0.00    +0.000 A 
ATOM     14  C   UNL     1       6.216   3.683  15.847  0.00  0.00    +0.000 A 
ATOM     15  C   UNL     1       6.219   4.780  14.989  0.00  0.00    +0.000 A 
ATOM     16  C   UNL     1       5.476   5.918  15.306  0.00  0.00    +0.000 A 
ATOM     17  C   UNL     1       4.717   5.968  16.493  0.00  0.00    +0.000 A 
ATOM     18  C   UNL     1       3.922   7.165  16.832  0.00  0.00    +0.000 C 
ATOM     19  O   UNL     1       3.956   8.117  16.066  0.00  0.00    +0.000 OA
ATOM     20  C   UNL     1       0.855   9.788  19.856  0.00  0.00    +0.000 C 
ENDROOT
BRANCH   1  22
ATOM     21  C   UNL     1      -0.988  12.021  20.611  0.00  0.00    +0.000 C 
ATOM     22  C   UNL     1      -0.292  11.208  21.665  0.00  0.00    +0.000 C 
ATOM     23  O   UNL     1      -0.366  11.588  22.825  0.00  0.00    +0.000 OA
ENDBRANCH   1  22
BRANCH   1  24
ATOM     24  O   UNL     1       1.698  10.049  22.139  0.00  0.00    +0.000 OA
ATOM     25  H   UNL     1       1.782   9.267  22.741  0.00  0.00    +0.000 HD
ENDBRANCH   1  24
BRANCH   6  26
ATOM     26  O   UNL     1       2.375   9.411  17.490  0.00  0.00    +0.000 OA
ATOM     27  H   UNL     1       1.623   9.841  17.066  0.00  0.00    +0.000 HD
ENDBRANCH   6  26
BRANCH   9  28
ATOM     28  C   UNL     1       2.194   4.947  21.111  0.00  0.00    +0.000 C 
BRANCH  28  29
ATOM     29  O   UNL     1       1.103   4.085  20.915  0.00  0.00    +0.000 OA
BRANCH  29  30
ATOM     30  C   UNL     1       1.441   2.751  21.218  0.00  0.00    +0.000 C 
BRANCH  30  31
ATOM     31  C   UNL     1       1.665   2.023  19.895  0.00  0.00    +0.000 C 
BRANCH  31  32
ATOM     32  C   UNL     1       0.639   2.433  18.839  0.00  0.00    +0.000 C 
BRANCH  32  33
ATOM     33  N   UNL     1       1.261   3.312  17.854  0.00  0.00    +0.000 NA
ATOM     34  H   UNL     1       1.921   3.961  18.342  0.00  0.00    +0.000 HD
ATOM     35  H   UNL     1       0.516   3.889  17.405  0.00  0.00    +0.000 HD
ENDBRANCH  32  33
ENDBRANCH  31  32
ENDBRANCH  30  31
ENDBRANCH  29  30
ENDBRANCH  28  29
ENDBRANCH   9  28
TORSDOF 9
ENDMDL
MODEL 2
REMARK VINA RESULT:      -6.9      1.659      6.759
REMARK  Name = 
REMARK  10 active torsions:
REMARK  status: ('A' for Active; 'I' for Inactive)
REMARK    1  A    between atoms: C_1  and  C_2
REMARK    2  A    between atoms: C_2  and  C_4
REMARK    3  A    between atoms: C_4  and  O_5
REMARK    4  A    between atoms: C_10  and  O_11
REMARK    5  A    between atoms: C_14  and  C_15
REMARK    6  A    between atoms: C_15  and  O_16
REMARK    7  A    between atoms: O_16  and  C_17
REMARK    8  A    between atoms: C_17  and  C_18
REMARK    9  A    between atoms: C_18  and  C_19
REMARK   10  A    between atoms: C_19  and  N_20
REMARK                            x       y       z     vdW  Elec       q    Type
REMARK                         _______ _______ _______ _____ _____    ______ ____
ROOT
ATOM      1  C   UNL     1       5.790   4.754  15.487  0.00  0.00    +0.000 C 
ATOM      2  C   UNL     1       6.546   4.273  16.713  0.00  0.00    +0.000 C 
ATOM      3  C   UNL     1       5.627   4.211  17.931  0.00  0.00    +0.000 C 
ATOM      4  C   UNL     1       4.664   5.391  18.115  0.00  0.00    +0.000 A 
ATOM      5  C   UNL     1       4.580   6.371  17.089  0.00  0.00    +0.000 A 
ATOM      6  C   UNL     1       3.731   7.485  17.241  0.00  0.00    +0.000 A 
ATOM      7  C   UNL     1       2.895   7.607  18.373  0.00  0.00    +0.000 A 
ATOM      8  C   UNL     1       2.903   6.608  19.385  0.00  0.00    +0.000 A 
ATOM      9  C   UNL     1       3.816   5.491  19.276  0.00  0.00    +0.000 A 
ATOM     10  C   UNL     1       1.931   6.783  20.539  0.00  0.00    +0.000 C 
ATOM     11  O   UNL     1       1.786   5.919  21.388  0.00  0.00    +0.000 OA
ATOM     12  C   UNL     1       1.080   7.991  20.665  0.00  0.00    +0.000 A 
ATOM     13  C   UNL     1       0.247   8.165  21.786  0.00  0.00    +0.000 A 
ATOM     14  C   UNL     1      -0.566   9.299  21.901  0.00  0.00    +0.000 A 
ATOM     15  C   UNL     1      -0.558  10.262  20.894  0.00  0.00    +0.000 A 
ATOM     16  C   UNL     1       0.266  10.102  19.780  0.00  0.00    +0.000 A 
ATOM     17  C   UNL     1       1.096   8.968  19.661  0.00  0.00    +0.000 A 
ATOM     18  C   UNL     1       1.976   8.794  18.489  0.00  0.00    +0.000 C 
ATOM     19  O   UNL     1       1.950   9.649  17.616  0.00  0.00    +0.000 OA
ATOM     20  C   UNL     1       5.360   6.218  15.779  0.00  0.00    +0.000 C 
ENDROOT
BRANCH   1  22
ATOM     21  C   UNL     1       6.384   3.733  13.094  0.00  0.00    +0.000 C 
ATOM     22  C   UNL     1       6.690   4.626  14.263  0.00  0.00    +0.000 C 
ATOM     23  O   UNL     1       7.730   5.268  14.236  0.00  0.00    +0.000 OA
ENDBRANCH   1  22
BRANCH   1  24
ATOM     24  O   UNL     1       4.669   3.932  15.244  0.00  0.00    +0.000 OA
ATOM     25  H   UNL     1       3.853   4.482  15.127  0.00  0.00    +0.000 HD
ENDBRANCH   1  24
BRANCH   6  26
ATOM     26  O   UNL     1       3.684   8.450  16.290  0.00  0.00    +0.000 OA
ATOM     27  H   UNL     1       3.038   8.516  15.577  0.00  0.00    +0.000 HD
ENDBRANCH   6  26
BRANCH   9  28
ATOM     28  C   UNL     1       3.824   4.411  20.381  0.00  0.00    +0.000 C 
BRANCH  28  29
ATOM     29  O   UNL     1       3.308   3.173  19.965  0.00  0.00    +0.000 OA
BRANCH  29  30
ATOM     30  C   UNL     1       2.523   2.579  20.973  0.00  0.00    +0.000 C 
BRANCH  30  31
ATOM     31  C   UNL     1       1.058   2.801  20.603  0.00  0.00    +0.000 C 
BRANCH  31  32
ATOM     32  C   UNL     1       0.836   2.731  19.092  0.00  0.00    +0.000 C 
BRANCH  32  33
ATOM     33  N   UNL     1       1.510   1.559  18.544  0.00  0.00    +0.000 NA
ATOM     34  H   UNL     1       2.227   1.224  19.228  0.00  0.00    +0.000 HD
ATOM     35  H   UNL     1       2.007   1.840  17.669  0.00  0.00    +0.000 HD
ENDBRANCH  32  33
ENDBRANCH  31  32
ENDBRANCH  30  31
ENDBRANCH  29  30
ENDBRANCH  28  29
ENDBRANCH   9  28
TORSDOF 9
ENDMDL
MODEL 3
REMARK VINA RESULT:      -6.8      1.483      6.663
REMARK  Name = 
REMARK  10 active torsions:
REMARK  status: ('A' for Active; 'I' for Inactive)
REMARK    1  A    between atoms: C_1  and  C_2
REMARK    2  A    between atoms: C_2  and  C_4
REMARK    3  A    between atoms: C_4  and  O_5
REMARK    4  A    between atoms: C_10  and  O_11
REMARK    5  A    between atoms: C_14  and  C_15
REMARK    6  A    between atoms: C_15  and  O_16
REMARK    7  A    between atoms: O_16  and  C_17
REMARK    8  A    between atoms: C_17  and  C_18
REMARK    9  A    between atoms: C_18  and  C_19
REMARK   10  A    between atoms: C_19  and  N_20
REMARK                            x       y       z     vdW  Elec       q    Type
REMARK                         _______ _______ _______ _____ _____    ______ ____
ROOT
ATOM      1  C   UNL     1       5.323   4.636  16.221  0.00  0.00    +0.000 C 
ATOM      2  C   UNL     1       5.888   4.158  17.548  0.00  0.00    +0.000 C 
ATOM      3  C   UNL     1       4.855   4.301  18.663  0.00  0.00    +0.000 C 
ATOM      4  C   UNL     1       4.041   5.602  18.671  0.00  0.00    +0.000 A 
ATOM      5  C   UNL     1       4.185   6.505  17.583  0.00  0.00    +0.000 A 
ATOM      6  C   UNL     1       3.479   7.724  17.575  0.00  0.00    +0.000 A 
ATOM      7  C   UNL     1       2.560   8.033  18.603  0.00  0.00    +0.000 A 
ATOM      8  C   UNL     1       2.340   7.118  19.670  0.00  0.00    +0.000 A 
ATOM      9  C   UNL     1       3.105   5.892  19.727  0.00  0.00    +0.000 A 
ATOM     10  C   UNL     1       1.292   7.499  20.702  0.00  0.00    +0.000 C 
ATOM     11  O   UNL     1       0.953   6.725  21.583  0.00  0.00    +0.000 OA
ATOM     12  C   UNL     1       0.597   8.809  20.663  0.00  0.00    +0.000 A 
ATOM     13  C   UNL     1      -0.310   9.168  21.676  0.00  0.00    +0.000 A 
ATOM     14  C   UNL     1      -0.975  10.398  21.634  0.00  0.00    +0.000 A 
ATOM     15  C   UNL     1      -0.744  11.276  20.577  0.00  0.00    +0.000 A 
ATOM     16  C   UNL     1       0.156  10.931  19.568  0.00  0.00    +0.000 A 
ATOM     17  C   UNL     1       0.838   9.698  19.607  0.00  0.00    +0.000 A 
ATOM     18  C   UNL     1       1.796   9.329  18.548  0.00  0.00    +0.000 C 
ATOM     19  O   UNL     1       1.968  10.113  17.626  0.00  0.00    +0.000 OA
ATOM     20  C   UNL     1       5.062   6.159  16.375  0.00  0.00    +0.000 C 
ENDROOT
BRANCH   1  22
ATOM     21  C   UNL     1       5.910   3.745  13.775  0.00  0.00    +0.000 C 
ATOM     22  C   UNL     1       6.313   4.306  15.109  0.00  0.00    +0.000 C 
ATOM     23  O   UNL     1       7.504   4.487  15.318  0.00  0.00    +0.000 OA
ENDBRANCH   1  22
BRANCH   1  24
ATOM     24  O   UNL     1       4.133   3.942  15.912  0.00  0.00    +0.000 OA
ATOM     25  H   UNL     1       3.747   4.276  15.062  0.00  0.00    +0.000 HD
ENDBRANCH   1  24
BRANCH   6  26
ATOM     26  O   UNL     1       3.650   8.613  16.567  0.00  0.00    +0.000 OA
ATOM     27  H   UNL     1       4.462   9.089  16.358  0.00  0.00    +0.000 HD
ENDBRANCH   6  26
BRANCH   9  28
ATOM     28  C   UNL     1       2.865   4.905  20.893  0.00  0.00    +0.000 C 
BRANCH  28  29
ATOM     29  O   UNL     1       1.880   3.942  20.622  0.00  0.00    +0.000 OA
BRANCH  29  30
ATOM     30  C   UNL     1       2.420   2.640  20.632  0.00  0.00    +0.000 C 
BRANCH  30  31
ATOM     31  C   UNL     1       2.011   1.965  19.325  0.00  0.00    +0.000 C 
BRANCH  31  32
ATOM     32  C   UNL     1       0.915   2.745  18.600  0.00  0.00    +0.000 C 
BRANCH  32  33
ATOM     33  N   UNL     1       1.493   3.511  17.500  0.00  0.00    +0.000 NA
ATOM     34  H   UNL     1       1.639   2.878  16.680  0.00  0.00    +0.000 HD
ATOM     35  H   UNL     1       2.427   3.869  17.799  0.00  0.00    +0.000 HD
ENDBRANCH  32  33
ENDBRANCH  31  32
ENDBRANCH  30  31
ENDBRANCH  29  30
ENDBRANCH  28  29
ENDBRANCH   9  28
TORSDOF 9
ENDMDL
MODEL 4
REMARK VINA RESULT:      -6.6      3.253      6.488
REMARK  Name = 
REMARK  10 active torsions:
REMARK  status: ('A' for Active; 'I' for Inactive)
REMARK    1  A    between atoms: C_1  and  C_2
REMARK    2  A    between atoms: C_2  and  C_4
REMARK    3  A    between atoms: C_4  and  O_5
REMARK    4  A    between atoms: C_10  and  O_11
REMARK    5  A    between atoms: C_14  and  C_15
REMARK    6  A    between atoms: C_15  and  O_16
REMARK    7  A    between atoms: O_16  and  C_17
REMARK    8  A    between atoms: C_17  and  C_18
REMARK    9  A    between atoms: C_18  and  C_19
REMARK   10  A    between atoms: C_19  and  N_20
REMARK                            x       y       z     vdW  Elec       q    Type
REMARK                         _______ _______ _______ _____ _____    ______ ____
ROOT
ATOM      1  C   UNL     1      -2.965  12.591  22.834  0.00  0.00    +0.000 C 
ATOM      2  C   UNL     1      -2.222  13.783  22.256  0.00  0.00    +0.000 C 
ATOM      3  C   UNL     1      -1.535  13.413  20.944  0.00  0.00    +0.000 C 
ATOM      4  C   UNL     1      -0.821  12.054  20.911  0.00  0.00    +0.000 A 
ATOM      5  C   UNL     1      -0.967  11.179  22.021  0.00  0.00    +0.000 A 
ATOM      6  C   UNL     1      -0.299   9.939  22.039  0.00  0.00    +0.000 A 
ATOM      7  C   UNL     1       0.460   9.512  20.926  0.00  0.00    +0.000 A 
ATOM      8  C   UNL     1       0.567  10.334  19.770  0.00  0.00    +0.000 A 
ATOM      9  C   UNL     1      -0.059  11.638  19.762  0.00  0.00    +0.000 A 
ATOM     10  C   UNL     1       1.351   9.776  18.594  0.00  0.00    +0.000 C 
ATOM     11  O   UNL     1       1.396  10.358  17.523  0.00  0.00    +0.000 OA
ATOM     12  C   UNL     1       2.060   8.475  18.676  0.00  0.00    +0.000 A 
ATOM     13  C   UNL     1       2.844   8.019  17.601  0.00  0.00    +0.000 A 
ATOM     14  C   UNL     1       3.504   6.788  17.672  0.00  0.00    +0.000 A 
ATOM     15  C   UNL     1       3.381   6.000  18.814  0.00  0.00    +0.000 A 
ATOM     16  C   UNL     1       2.608   6.443  19.888  0.00  0.00    +0.000 A 
ATOM     17  C   UNL     1       1.948   7.687  19.829  0.00  0.00    +0.000 A 
ATOM     18  C   UNL     1       1.135   8.167  20.963  0.00  0.00    +0.000 C 
ATOM     19  O   UNL     1       1.034   7.447  21.946  0.00  0.00    +0.000 OA
ATOM     20  C   UNL     1      -1.888  11.531  23.194  0.00  0.00    +0.000 C 
ENDROOT
BRANCH   1  22
ATOM     21  C   UNL     1      -3.716  14.433  24.613  0.00  0.00    +0.000 C 
ATOM     22  C   UNL     1      -3.784  13.048  24.037  0.00  0.00    +0.000 C 
ATOM     23  O   UNL     1      -4.523  12.237  24.578  0.00  0.00    +0.000 OA
ENDBRANCH   1  22
BRANCH   1  24
ATOM     24  O   UNL     1      -3.888  12.082  21.896  0.00  0.00    +0.000 OA
ATOM     25  H   UNL     1      -3.837  12.590  21.046  0.00  0.00    +0.000 HD
ENDBRANCH   1  24
BRANCH   6  26
ATOM     26  O   UNL     1      -0.391   9.121  23.115  0.00  0.00    +0.000 OA
ATOM     27  H   UNL     1       0.341   8.817  23.664  0.00  0.00    +0.000 HD
ENDBRANCH   6  26
BRANCH   9  28
ATOM     28  C   UNL     1       0.067  12.529  18.505  0.00  0.00    +0.000 C 
BRANCH  28  29
ATOM     29  O   UNL     1      -1.152  12.747  17.844  0.00  0.00    +0.000 OA
BRANCH  29  30
ATOM     30  C   UNL     1      -1.749  11.532  17.454  0.00  0.00    +0.000 C 
BRANCH  30  31
ATOM     31  C   UNL     1      -3.224  11.600  17.843  0.00  0.00    +0.000 C 
BRANCH  31  32
ATOM     32  C   UNL     1      -4.140  11.300  16.656  0.00  0.00    +0.000 C 
BRANCH  32  33
ATOM     33  N   UNL     1      -5.524  11.598  17.008  0.00  0.00    +0.000 NA
ATOM     34  H   UNL     1      -5.558  11.967  17.987  0.00  0.00    +0.000 HD
ATOM     35  H   UNL     1      -6.073  10.710  16.981  0.00  0.00    +0.000 HD
ENDBRANCH  32  33
ENDBRANCH  31  32
ENDBRANCH  30  31
ENDBRANCH  29  30
ENDBRANCH  28  29
ENDBRANCH   9  28
TORSDOF 9
ENDMDL
MODEL 5
REMARK VINA RESULT:      -6.5      3.449      6.850
REMARK  Name = 
REMARK  10 active torsions:
REMARK  status: ('A' for Active; 'I' for Inactive)
REMARK    1  A    between atoms: C_1  and  C_2
REMARK    2  A    between atoms: C_2  and  C_4
REMARK    3  A    between atoms: C_4  and  O_5
REMARK    4  A    between atoms: C_10  and  O_11
REMARK    5  A    between atoms: C_14  and  C_15
REMARK    6  A    between atoms: C_15  and  O_16
REMARK    7  A    between atoms: O_16  and  C_17
REMARK    8  A    between atoms: C_17  and  C_18
REMARK    9  A    between atoms: C_18  and  C_19
REMARK   10  A    between atoms: C_19  and  N_20
REMARK                            x       y       z     vdW  Elec       q    Type
REMARK                         _______ _______ _______ _____ _____    ______ ____
ROOT
ATOM      1  C   UNL     1      -2.690  12.594  22.764  0.00  0.00    +0.000 C 
ATOM      2  C   UNL     1      -1.831  13.767  22.324  0.00  0.00    +0.000 C 
ATOM      3  C   UNL     1      -1.090  13.444  21.029  0.00  0.00    +0.000 C 
ATOM      4  C   UNL     1      -0.471  12.042  20.932  0.00  0.00    +0.000 A 
ATOM      5  C   UNL     1      -0.748  11.102  21.961  0.00  0.00    +0.000 A 
ATOM      6  C   UNL     1      -0.169   9.818  21.921  0.00  0.00    +0.000 A 
ATOM      7  C   UNL     1       0.627   9.418  20.824  0.00  0.00    +0.000 A 
ATOM      8  C   UNL     1       0.864  10.312  19.744  0.00  0.00    +0.000 A 
ATOM      9  C   UNL     1       0.332  11.656  19.800  0.00  0.00    +0.000 A 
ATOM     10  C   UNL     1       1.680   9.785  18.575  0.00  0.00    +0.000 C 
ATOM     11  O   UNL     1       1.833  10.439  17.557  0.00  0.00    +0.000 OA
ATOM     12  C   UNL     1       2.291   8.433  18.597  0.00  0.00    +0.000 A 
ATOM     13  C   UNL     1       3.108   8.001  17.537  0.00  0.00    +0.000 A 
ATOM     14  C   UNL     1       3.675   6.721  17.550  0.00  0.00    +0.000 A 
ATOM     15  C   UNL     1       3.425   5.863  18.619  0.00  0.00    +0.000 A 
ATOM     16  C   UNL     1       2.619   6.283  19.678  0.00  0.00    +0.000 A 
ATOM     17  C   UNL     1       2.052   7.573  19.677  0.00  0.00    +0.000 A 
ATOM     18  C   UNL     1       1.203   8.027  20.796  0.00  0.00    +0.000 C 
ATOM     19  O   UNL     1       0.991   7.247  21.713  0.00  0.00    +0.000 OA
ATOM     20  C   UNL     1      -1.714  11.434  23.102  0.00  0.00    +0.000 C 
ENDROOT
BRANCH   1  22
ATOM     21  C   UNL     1      -3.488  14.384  24.574  0.00  0.00    +0.000 C 
ATOM     22  C   UNL     1      -3.549  13.020  23.949  0.00  0.00    +0.000 C 
ATOM     23  O   UNL     1      -4.319  12.202  24.432  0.00  0.00    +0.000 OA
ENDBRANCH   1  22
BRANCH   1  24
ATOM     24  O   UNL     1      -3.585  12.224  21.737  0.00  0.00    +0.000 OA
ATOM     25  H   UNL     1      -4.496  12.088  22.102  0.00  0.00    +0.000 HD
ENDBRANCH   1  24
BRANCH   6  26
ATOM     26  O   UNL     1      -0.386   8.932  22.923  0.00  0.00    +0.000 OA
ATOM     27  H   UNL     1      -1.077   8.987  23.593  0.00  0.00    +0.000 HD
ENDBRANCH   6  26
BRANCH   9  28
ATOM     28  C   UNL     1       0.598  12.625  18.626  0.00  0.00    +0.000 C 
BRANCH  28  29
ATOM     29  O   UNL     1       1.767  13.389  18.778  0.00  0.00    +0.000 OA
BRANCH  29  30
ATOM     30  C   UNL     1       1.488  14.769  18.726  0.00  0.00    +0.000 C 
BRANCH  30  31
ATOM     31  C   UNL     1       2.700  15.503  19.294  0.00  0.00    +0.000 C 
BRANCH  31  32
ATOM     32  C   UNL     1       4.009  14.792  18.950  0.00  0.00    +0.000 C 
BRANCH  32  33
ATOM     33  N   UNL     1       4.176  14.730  17.502  0.00  0.00    +0.000 NA
ATOM     34  H   UNL     1       4.152  13.729  17.196  0.00  0.00    +0.000 HD
ATOM     35  H   UNL     1       5.116  15.117  17.259  0.00  0.00    +0.000 HD
ENDBRANCH  32  33
ENDBRANCH  31  32
ENDBRANCH  30  31
ENDBRANCH  29  30
ENDBRANCH  28  29
ENDBRANCH   9  28
TORSDOF 9
ENDMDL
MODEL 6
REMARK VINA RESULT:      -6.4      3.443      6.669
REMARK  Name = 
REMARK  10 active torsions:
REMARK  status: ('A' for Active; 'I' for Inactive)
REMARK    1  A    between atoms: C_1  and  C_2
REMARK    2  A    between atoms: C_2  and  C_4
REMARK    3  A    between atoms: C_4  and  O_5
REMARK    4  A    between atoms: C_10  and  O_11
REMARK    5  A    between atoms: C_14  and  C_15
REMARK    6  A    between atoms: C_15  and  O_16
REMARK    7  A    between atoms: O_16  and  C_17
REMARK    8  A    between atoms: C_17  and  C_18
REMARK    9  A    between atoms: C_18  and  C_19
REMARK   10  A    between atoms: C_19  and  N_20
REMARK                            x       y       z     vdW  Elec       q    Type
REMARK                         _______ _______ _______ _____ _____    ______ ____
ROOT
ATOM      1  C   UNL     1      -3.318  13.121  22.931  0.00  0.00    +0.000 C 
ATOM      2  C   UNL     1      -2.965  14.154  21.875  0.00  0.00    +0.000 C 
ATOM      3  C   UNL     1      -2.532  13.478  20.576  0.00  0.00    +0.000 C 
ATOM      4  C   UNL     1      -1.599  12.268  20.718  0.00  0.00    +0.000 A 
ATOM      5  C   UNL     1      -1.323  11.768  22.020  0.00  0.00    +0.000 A 
ATOM      6  C   UNL     1      -0.443  10.680  22.189  0.00  0.00    +0.000 A 
ATOM      7  C   UNL     1       0.113  10.021  21.071  0.00  0.00    +0.000 A 
ATOM      8  C   UNL     1      -0.200  10.452  19.752  0.00  0.00    +0.000 A 
ATOM      9  C   UNL     1      -1.048  11.607  19.562  0.00  0.00    +0.000 A 
ATOM     10  C   UNL     1       0.392   9.652  18.604  0.00  0.00    +0.000 C 
ATOM     11  O   UNL     1       0.084   9.875  17.445  0.00  0.00    +0.000 OA
ATOM     12  C   UNL     1       1.335   8.531  18.838  0.00  0.00    +0.000 A 
ATOM     13  C   UNL     1       1.931   7.859  17.755  0.00  0.00    +0.000 A 
ATOM     14  C   UNL     1       2.812   6.794  17.974  0.00  0.00    +0.000 A 
ATOM     15  C   UNL     1       3.100   6.390  19.275  0.00  0.00    +0.000 A 
ATOM     16  C   UNL     1       2.518   7.051  20.358  0.00  0.00    +0.000 A 
ATOM     17  C   UNL     1       1.637   8.131  20.146  0.00  0.00    +0.000 A 
ATOM     18  C   UNL     1       1.023   8.840  21.286  0.00  0.00    +0.000 C 
ATOM     19  O   UNL     1       1.284   8.453  22.415  0.00  0.00    +0.000 OA
ATOM     20  C   UNL     1      -2.006  12.357  23.259  0.00  0.00    +0.000 C 
ENDROOT
BRANCH   1  22
ATOM     21  C   UNL     1      -4.188  15.306  24.193  0.00  0.00    +0.000 C 
ATOM     22  C   UNL     1      -3.918  13.829  24.141  0.00  0.00    +0.000 C 
ATOM     23  O   UNL     1      -4.175  13.164  25.135  0.00  0.00    +0.000 OA
ENDBRANCH   1  22
BRANCH   1  24
ATOM     24  O   UNL     1      -4.314  12.244  22.452  0.00  0.00    +0.000 OA
ATOM     25  H   UNL     1      -5.120  12.750  22.174  0.00  0.00    +0.000 HD
ENDBRANCH   1  24
BRANCH   6  26
ATOM     26  O   UNL     1      -0.134  10.230  23.430  0.00  0.00    +0.000 OA
ATOM     27  H   UNL     1      -0.450   9.415  23.836  0.00  0.00    +0.000 HD
ENDBRANCH   6  26
BRANCH   9  28
ATOM     28  C   UNL     1      -1.380  12.075  18.127  0.00  0.00    +0.000 C 
BRANCH  28  29
ATOM     29  O   UNL     1      -2.609  11.595  17.647  0.00  0.00    +0.000 OA
BRANCH  29  30
ATOM     30  C   UNL     1      -2.622  11.535  16.239  0.00  0.00    +0.000 C 
BRANCH  30  31
ATOM     31  C   UNL     1      -2.961  10.100  15.844  0.00  0.00    +0.000 C 
BRANCH  31  32
ATOM     32  C   UNL     1      -3.647  10.031  14.480  0.00  0.00    +0.000 C 
BRANCH  32  33
ATOM     33  N   UNL     1      -2.648   9.880  13.428  0.00  0.00    +0.000 NA
ATOM     34  H   UNL     1      -2.849   9.006  12.888  0.00  0.00    +0.000 HD
ATOM     35  H   UNL     1      -1.709   9.774  13.873  0.00  0.00    +0.000 HD
ENDBRANCH  32  33
ENDBRANCH  31  32
ENDBRANCH  30  31
ENDBRANCH  29  30
ENDBRANCH  28  29
ENDBRANCH   9  28
TORSDOF 9
ENDMDL
MODEL 7
REMARK VINA RESULT:      -6.3      3.704      7.025
REMARK  Name = 
REMARK  10 active torsions:
REMARK  status: ('A' for Active; 'I' for Inactive)
REMARK    1  A    between atoms: C_1  and  C_2
REMARK    2  A    between atoms: C_2  and  C_4
REMARK    3  A    between atoms: C_4  and  O_5
REMARK    4  A    between atoms: C_10  and  O_11
REMARK    5  A    between atoms: C_14  and  C_15
REMARK    6  A    between atoms: C_15  and  O_16
REMARK    7  A    between atoms: O_16  and  C_17
REMARK    8  A    between atoms: C_17  and  C_18
REMARK    9  A    between atoms: C_18  and  C_19
REMARK   10  A    between atoms: C_19  and  N_20
REMARK                            x       y       z     vdW  Elec       q    Type
REMARK                         _______ _______ _______ _____ _____    ______ ____
ROOT
ATOM      1  C   UNL     1      -2.688  12.843  22.705  0.00  0.00    +0.000 C 
ATOM      2  C   UNL     1      -1.793  13.984  22.255  0.00  0.00    +0.000 C 
ATOM      3  C   UNL     1      -1.047  13.620  20.974  0.00  0.00    +0.000 C 
ATOM      4  C   UNL     1      -0.467  12.200  20.906  0.00  0.00    +0.000 A 
ATOM      5  C   UNL     1      -0.780  11.285  21.948  0.00  0.00    +0.000 A 
ATOM      6  C   UNL     1      -0.236   9.985  21.935  0.00  0.00    +0.000 A 
ATOM      7  C   UNL     1       0.560   9.545  20.853  0.00  0.00    +0.000 A 
ATOM      8  C   UNL     1       0.833  10.415  19.761  0.00  0.00    +0.000 A 
ATOM      9  C   UNL     1       0.337  11.773  19.790  0.00  0.00    +0.000 A 
ATOM     10  C   UNL     1       1.646   9.846  18.610  0.00  0.00    +0.000 C 
ATOM     11  O   UNL     1       1.828  10.479  17.583  0.00  0.00    +0.000 OA
ATOM     12  C   UNL     1       2.219   8.479  18.661  0.00  0.00    +0.000 A 
ATOM     13  C   UNL     1       3.035   8.006  17.617  0.00  0.00    +0.000 A 
ATOM     14  C   UNL     1       3.567   6.712  17.657  0.00  0.00    +0.000 A 
ATOM     15  C   UNL     1       3.282   5.879  18.737  0.00  0.00    +0.000 A 
ATOM     16  C   UNL     1       2.476   6.338  19.780  0.00  0.00    +0.000 A 
ATOM     17  C   UNL     1       1.945   7.644  19.752  0.00  0.00    +0.000 A 
ATOM     18  C   UNL     1       1.098   8.139  20.854  0.00  0.00    +0.000 C 
ATOM     19  O   UNL     1       0.854   7.380  21.781  0.00  0.00    +0.000 OA
ATOM     20  C   UNL     1      -1.749  11.662  23.073  0.00  0.00    +0.000 C 
ENDROOT
BRANCH   1  22
ATOM     21  C   UNL     1      -4.414  12.397  24.691  0.00  0.00    +0.000 C 
ATOM     22  C   UNL     1      -3.548  13.312  23.873  0.00  0.00    +0.000 C 
ATOM     23  O   UNL     1      -3.551  14.503  24.151  0.00  0.00    +0.000 OA
ENDBRANCH   1  22
BRANCH   1  24
ATOM     24  O   UNL     1      -3.582  12.480  21.675  0.00  0.00    +0.000 OA
ATOM     25  H   UNL     1      -3.422  13.030  20.865  0.00  0.00    +0.000 HD
ENDBRANCH   1  24
BRANCH   6  26
ATOM     26  O   UNL     1      -0.488   9.123  22.949  0.00  0.00    +0.000 OA
ATOM     27  H   UNL     1      -0.885   8.248  22.869  0.00  0.00    +0.000 HD
ENDBRANCH   6  26
BRANCH   9  28
ATOM     28  C   UNL     1       0.642  12.715  18.603  0.00  0.00    +0.000 C 
BRANCH  28  29
ATOM     29  O   UNL     1       1.516  13.765  18.926  0.00  0.00    +0.000 OA
BRANCH  29  30
ATOM     30  C   UNL     1       2.750  13.630  18.258  0.00  0.00    +0.000 C 
BRANCH  30  31
ATOM     31  C   UNL     1       3.218  15.032  17.872  0.00  0.00    +0.000 C 
BRANCH  31  32
ATOM     32  C   UNL     1       2.704  16.092  18.846  0.00  0.00    +0.000 C 
BRANCH  32  33
ATOM     33  N   UNL     1       1.500  16.719  18.311  0.00  0.00    +0.000 NA
ATOM     34  H   UNL     1       0.757  16.719  19.047  0.00  0.00    +0.000 HD
ATOM     35  H   UNL     1       1.156  16.147  17.507  0.00  0.00    +0.000 HD
ENDBRANCH  32  33
ENDBRANCH  31  32
ENDBRANCH  30  31
ENDBRANCH  29  30
ENDBRANCH  28  29
ENDBRANCH   9  28
TORSDOF 9
ENDMDL
MODEL 8
REMARK VINA RESULT:      -6.3      3.397      6.840
REMARK  Name = 
REMARK  10 active torsions:
REMARK  status: ('A' for Active; 'I' for Inactive)
REMARK    1  A    between atoms: C_1  and  C_2
REMARK    2  A    between atoms: C_2  and  C_4
REMARK    3  A    between atoms: C_4  and  O_5
REMARK    4  A    between atoms: C_10  and  O_11
REMARK    5  A    between atoms: C_14  and  C_15
REMARK    6  A    between atoms: C_15  and  O_16
REMARK    7  A    between atoms: O_16  and  C_17
REMARK    8  A    between atoms: C_17  and  C_18
REMARK    9  A    between atoms: C_18  and  C_19
REMARK   10  A    between atoms: C_19  and  N_20
REMARK                            x       y       z     vdW  Elec       q    Type
REMARK                         _______ _______ _______ _____ _____    ______ ____
ROOT
ATOM      1  C   UNL     1      -2.328  13.100  22.610  0.00  0.00    +0.000 C 
ATOM      2  C   UNL     1      -1.347  14.170  22.162  0.00  0.00    +0.000 C 
ATOM      3  C   UNL     1      -0.615  13.741  20.893  0.00  0.00    +0.000 C 
ATOM      4  C   UNL     1      -0.139  12.282  20.842  0.00  0.00    +0.000 A 
ATOM      5  C   UNL     1      -0.530  11.401  21.886  0.00  0.00    +0.000 A 
ATOM      6  C   UNL     1      -0.083  10.064  21.890  0.00  0.00    +0.000 A 
ATOM      7  C   UNL     1       0.690   9.559  20.821  0.00  0.00    +0.000 A 
ATOM      8  C   UNL     1       1.039  10.397  19.726  0.00  0.00    +0.000 A 
ATOM      9  C   UNL     1       0.644  11.788  19.739  0.00  0.00    +0.000 A 
ATOM     10  C   UNL     1       1.821   9.761  18.589  0.00  0.00    +0.000 C 
ATOM     11  O   UNL     1       2.060  10.371  17.560  0.00  0.00    +0.000 OA
ATOM     12  C   UNL     1       2.291   8.356  18.656  0.00  0.00    +0.000 A 
ATOM     13  C   UNL     1       3.082   7.817  17.625  0.00  0.00    +0.000 A 
ATOM     14  C   UNL     1       3.517   6.488  17.681  0.00  0.00    +0.000 A 
ATOM     15  C   UNL     1       3.160   5.686  18.764  0.00  0.00    +0.000 A 
ATOM     16  C   UNL     1       2.378   6.212  19.794  0.00  0.00    +0.000 A 
ATOM     17  C   UNL     1       1.944   7.552  19.750  0.00  0.00    +0.000 A 
ATOM     18  C   UNL     1       1.124   8.117  20.839  0.00  0.00    +0.000 C 
ATOM     19  O   UNL     1       0.815   7.386  21.768  0.00  0.00    +0.000 OA
ATOM     20  C   UNL     1      -1.482  11.857  22.998  0.00  0.00    +0.000 C 
ENDROOT
BRANCH   1  22
ATOM     21  C   UNL     1      -4.389  12.955  24.298  0.00  0.00    +0.000 C 
ATOM     22  C   UNL     1      -3.164  13.641  23.764  0.00  0.00    +0.000 C 
ATOM     23  O   UNL     1      -2.834  14.702  24.274  0.00  0.00    +0.000 OA
ENDBRANCH   1  22
BRANCH   1  24
ATOM     24  O   UNL     1      -3.235  12.796  21.572  0.00  0.00    +0.000 OA
ATOM     25  H   UNL     1      -3.934  12.171  21.892  0.00  0.00    +0.000 HD
ENDBRANCH   1  24
BRANCH   6  26
ATOM     26  O   UNL     1      -0.409   9.231  22.907  0.00  0.00    +0.000 OA
ATOM     27  H   UNL     1      -0.366   8.268  22.891  0.00  0.00    +0.000 HD
ENDBRANCH   6  26
BRANCH   9  28
ATOM     28  C   UNL     1       1.030  12.695  18.549  0.00  0.00    +0.000 C 
BRANCH  28  29
ATOM     29  O   UNL     1       2.286  13.308  18.691  0.00  0.00    +0.000 OA
BRANCH  29  30
ATOM     30  C   UNL     1       2.197  14.705  18.522  0.00  0.00    +0.000 C 
BRANCH  30  31
ATOM     31  C   UNL     1       2.622  15.353  19.838  0.00  0.00    +0.000 C 
BRANCH  31  32
ATOM     32  C   UNL     1       3.398  14.382  20.726  0.00  0.00    +0.000 C 
BRANCH  32  33
ATOM     33  N   UNL     1       2.797  14.333  22.055  0.00  0.00    +0.000 NA
ATOM     34  H   UNL     1       2.229  15.199  22.206  0.00  0.00    +0.000 HD
ATOM     35  H   UNL     1       3.563  14.323  22.766  0.00  0.00    +0.000 HD
ENDBRANCH  32  33
ENDBRANCH  31  32
ENDBRANCH  30  31
ENDBRANCH  29  30
ENDBRANCH  28  29
ENDBRANCH   9  28
TORSDOF 9
ENDMDL
MODEL 9
REMARK VINA RESULT:      -6.3      3.736      6.461
REMARK  Name = 
REMARK  10 active torsions:
REMARK  status: ('A' for Active; 'I' for Inactive)
REMARK    1  A    between atoms: C_1  and  C_2
REMARK    2  A    between atoms: C_2  and  C_4
REMARK    3  A    between atoms: C_4  and  O_5
REMARK    4  A    between atoms: C_10  and  O_11
REMARK    5  A    between atoms: C_14  and  C_15
REMARK    6  A    between atoms: C_15  and  O_16
REMARK    7  A    between atoms: O_16  and  C_17
REMARK    8  A    between atoms: C_17  and  C_18
REMARK    9  A    between atoms: C_18  and  C_19
REMARK   10  A    between atoms: C_19  and  N_20
REMARK                            x       y       z     vdW  Elec       q    Type
REMARK                         _______ _______ _______ _____ _____    ______ ____
ROOT
ATOM      1  C   UNL     1       1.666  14.984  19.248  0.00  0.00    +0.000 C 
ATOM      2  C   UNL     1       0.318  14.924  19.944  0.00  0.00    +0.000 C 
ATOM      3  C   UNL     1       0.204  13.667  20.803  0.00  0.00    +0.000 C 
ATOM      4  C   UNL     1       0.735  12.368  20.181  0.00  0.00    +0.000 A 
ATOM      5  C   UNL     1       1.420  12.438  18.937  0.00  0.00    +0.000 A 
ATOM      6  C   UNL     1       1.890  11.261  18.321  0.00  0.00    +0.000 A 
ATOM      7  C   UNL     1       1.760  10.009  18.961  0.00  0.00    +0.000 A 
ATOM      8  C   UNL     1       1.143   9.915  20.239  0.00  0.00    +0.000 A 
ATOM      9  C   UNL     1       0.596  11.103  20.856  0.00  0.00    +0.000 A 
ATOM     10  C   UNL     1       1.096   8.541  20.886  0.00  0.00    +0.000 C 
ATOM     11  O   UNL     1       0.693   8.386  22.027  0.00  0.00    +0.000 OA
ATOM     12  C   UNL     1       1.581   7.329  20.181  0.00  0.00    +0.000 A 
ATOM     13  C   UNL     1       1.453   6.059  20.771  0.00  0.00    +0.000 A 
ATOM     14  C   UNL     1       1.920   4.916  20.112  0.00  0.00    +0.000 A 
ATOM     15  C   UNL     1       2.524   5.035  18.862  0.00  0.00    +0.000 A 
ATOM     16  C   UNL     1       2.653   6.290  18.265  0.00  0.00    +0.000 A 
ATOM     17  C   UNL     1       2.177   7.445  18.918  0.00  0.00    +0.000 A 
ATOM     18  C   UNL     1       2.303   8.775  18.291  0.00  0.00    +0.000 C 
ATOM     19  O   UNL     1       2.850   8.849  17.200  0.00  0.00    +0.000 OA
ATOM     20  C   UNL     1       1.712  13.783  18.265  0.00  0.00    +0.000 C 
ENDROOT
BRANCH   1  22
ATOM     21  C   UNL     1       2.946  16.681  17.634  0.00  0.00    +0.000 C 
ATOM     22  C   UNL     1       1.810  16.334  18.554  0.00  0.00    +0.000 C 
ATOM     23  O   UNL     1       0.967  17.193  18.773  0.00  0.00    +0.000 OA
ENDBRANCH   1  22
BRANCH   1  24
ATOM     24  O   UNL     1       2.713  14.910  20.192  0.00  0.00    +0.000 OA
ATOM     25  H   UNL     1       2.447  15.345  21.042  0.00  0.00    +0.000 HD
ENDBRANCH   1  24
BRANCH   6  26
ATOM     26  O   UNL     1       2.499  11.313  17.111  0.00  0.00    +0.000 OA
ATOM     27  H   UNL     1       3.423  11.105  16.929  0.00  0.00    +0.000 HD
ENDBRANCH   6  26
BRANCH   9  28
ATOM     28  C   UNL     1      -0.079  10.994  22.242  0.00  0.00    +0.000 C 
BRANCH  28  29
ATOM     29  O   UNL     1      -1.482  11.049  22.192  0.00  0.00    +0.000 OA
BRANCH  29  30
ATOM     30  C   UNL     1      -2.014  11.631  23.360  0.00  0.00    +0.000 C 
BRANCH  30  31
ATOM     31  C   UNL     1      -3.119  12.593  22.929  0.00  0.00    +0.000 C 
BRANCH  31  32
ATOM     32  C   UNL     1      -4.011  12.997  24.103  0.00  0.00    +0.000 C 
BRANCH  32  33
ATOM     33  N   UNL     1      -4.588  11.809  24.723  0.00  0.00    +0.000 NA
ATOM     34  H   UNL     1      -4.817  12.020  25.721  0.00  0.00    +0.000 HD
ATOM     35  H   UNL     1      -3.873  11.047  24.711  0.00  0.00    +0.000 HD
ENDBRANCH  32  33
ENDBRANCH  31  32
ENDBRANCH  30  31
ENDBRANCH  29  30
ENDBRANCH  28  29
ENDBRANCH   9  28
TORSDOF 9
ENDMDL
