MODEL 1
REMARK VINA RESULT:      -8.6      0.000      0.000
REMARK  Name = 
REMARK  9 active torsions:
REMARK  status: ('A' for Active; 'I' for Inactive)
REMARK    1  A    between atoms: C_1  and  C_2
REMARK    2  A    between atoms: C_5  and  C_6
REMARK    3  A    between atoms: C_7  and  C_8
REMARK    4  A    between atoms: C_8  and  C_9
REMARK    5  A    between atoms: C_9  and  N_10
REMARK    6  A    between atoms: C_11  and  C_13
REMARK    7  A    between atoms: C_16  and  O_17
REMARK    8  A    between atoms: O_17  and  C_18
REMARK    9  A    between atoms: C_26  and  C_27
REMARK                            x       y       z     vdW  Elec       q    Type
REMARK                         _______ _______ _______ _____ _____    ______ ____
ROOT
ATOM      1  C   UNL     1       2.334   7.794  18.908  0.00  0.00    +0.000 A 
ATOM      2  C   UNL     1       1.798   8.024  20.160  0.00  0.00    +0.000 A 
ATOM      3  N   UNL     1       1.048   9.175  20.289  0.00  0.00    +0.000 NA
ATOM      4  C   UNL     1       1.034   9.831  19.147  0.00  0.00    +0.000 A 
ATOM      5  S   UNL     1       1.853   9.061  17.853  0.00  0.00    +0.000 S 
ENDROOT
BRANCH   1   7
ATOM      6  N   UNL     1       3.788   5.987  19.523  0.00  0.00    +0.000 N 
ATOM      7  C   UNL     1       3.166   6.680  18.503  0.00  0.00    +0.000 C 
ATOM      8  O   UNL     1       3.315   6.355  17.328  0.00  0.00    +0.000 OA
ATOM      9  H   UNL     1       3.603   6.275  20.477  0.00  0.00    +0.000 HD
BRANCH   6  10
ATOM     10  C   UNL     1       4.645   4.849  19.254  0.00  0.00    +0.000 C 
BRANCH  10  11
ATOM     11  C   UNL     1       6.129   5.218  19.279  0.00  0.00    +0.000 C 
BRANCH  11  18
ATOM     12  C   UNL     1       5.603   3.738  16.409  0.00  0.00    +0.000 C 
ATOM     13  C   UNL     1       6.419   4.945  16.689  0.00  0.00    +0.000 A 
ATOM     14  N   UNL     1       7.053   5.565  15.688  0.00  0.00    +0.000 NA
ATOM     15  O   UNL     1       7.710   6.632  16.261  0.00  0.00    +0.000 OA
ATOM     16  C   UNL     1       7.471   6.652  17.598  0.00  0.00    +0.000 A 
ATOM     17  C   UNL     1       8.109   7.747  18.351  0.00  0.00    +0.000 C 
ATOM     18  C   UNL     1       6.652   5.591  17.933  0.00  0.00    +0.000 A 
ENDBRANCH  11  18
ENDBRANCH  10  11
ENDBRANCH   6  10
ENDBRANCH   1   7
BRANCH   4  19
ATOM     19  O   UNL     1       0.431  11.014  18.969  0.00  0.00    +0.000 OA
BRANCH  19  20
ATOM     20  C   UNL     1       1.036  12.181  19.380  0.00  0.00    +0.000 A 
ATOM     21  C   UNL     1       0.807  12.736  20.641  0.00  0.00    +0.000 A 
ATOM     22  C   UNL     1       1.379  13.959  20.976  0.00  0.00    +0.000 A 
ATOM     23  C   UNL     1       2.189  14.617  20.056  0.00  0.00    +0.000 A 
ATOM     24  C   UNL     1       2.529  14.016  18.839  0.00  0.00    +0.000 A 
ATOM     25  C   UNL     1       1.938  12.789  18.502  0.00  0.00    +0.000 A 
ATOM     26  C   UNL     1       3.468  14.698  17.884  0.00  0.00    +0.000 C 
ATOM     27  C   UNL     1       4.012  16.000  18.469  0.00  0.00    +0.000 C 
ATOM     28  C   UNL     1       2.926  16.721  19.278  0.00  0.00    +0.000 C 
ATOM     29  O   UNL     1       2.580  15.885  20.404  0.00  0.00    +0.000 OA
BRANCH  28  30
ATOM     30  C   UNL     1       1.702  17.222  18.504  0.00  0.00    +0.000 A 
ATOM     31  C   UNL     1       0.413  17.128  19.060  0.00  0.00    +0.000 A 
ATOM     32  C   UNL     1      -0.711  17.581  18.365  0.00  0.00    +0.000 A 
ATOM     33  C   UNL     1      -0.567  18.159  17.109  0.00  0.00    +0.000 A 
ATOM     34  C   UNL     1       0.703  18.288  16.550  0.00  0.00    +0.000 A 
ATOM     35  C   UNL     1       1.827  17.831  17.244  0.00  0.00    +0.000 A 
ENDBRANCH  28  30
ENDBRANCH  19  20
ENDBRANCH   4  19
TORSDOF 7
ENDMDL
MODEL 2
REMARK VINA RESULT:      -8.5      1.036      1.382
REMARK  Name = 
REMARK  9 active torsions:
REMARK  status: ('A' for Active; 'I' for Inactive)
REMARK    1  A    between atoms: C_1  and  C_2
REMARK    2  A    between atoms: C_5  and  C_6
REMARK    3  A    between atoms: C_7  and  C_8
REMARK    4  A    between atoms: C_8  and  C_9
REMARK    5  A    between atoms: C_9  and  N_10
REMARK    6  A    between atoms: C_11  and  C_13
REMARK    7  A    between atoms: C_16  and  O_17
REMARK    8  A    between atoms: O_17  and  C_18
REMARK    9  A    between atoms: C_26  and  C_27
REMARK                            x       y       z     vdW  Elec       q    Type
REMARK                         _______ _______ _______ _____ _____    ______ ____
ROOT
ATOM      1  C   UNL     1       2.483   7.654  18.669  0.00  0.00    +0.000 A 
ATOM      2  C   UNL     1       2.739   8.386  17.526  0.00  0.00    +0.000 A 
ATOM      3  N   UNL     1       2.148   9.631  17.466  0.00  0.00    +0.000 NA
ATOM      4  C   UNL     1       1.425   9.836  18.548  0.00  0.00    +0.000 A 
ATOM      5  S   UNL     1       1.485   8.581  19.714  0.00  0.00    +0.000 S 
ENDROOT
BRANCH   1   7
ATOM      6  N   UNL     1       3.648   5.675  17.974  0.00  0.00    +0.000 N 
ATOM      7  C   UNL     1       2.962   6.324  18.982  0.00  0.00    +0.000 C 
ATOM      8  O   UNL     1       2.782   5.793  20.075  0.00  0.00    +0.000 OA
ATOM      9  H   UNL     1       3.799   6.171  17.104  0.00  0.00    +0.000 HD
BRANCH   6  10
ATOM     10  C   UNL     1       4.183   4.340  18.159  0.00  0.00    +0.000 C 
BRANCH  10  11
ATOM     11  C   UNL     1       5.690   4.345  18.415  0.00  0.00    +0.000 C 
BRANCH  11  18
ATOM     12  C   UNL     1       5.711   3.633  15.222  0.00  0.00    +0.000 C 
ATOM     13  C   UNL     1       6.462   4.695  15.936  0.00  0.00    +0.000 A 
ATOM     14  N   UNL     1       7.273   5.508  15.252  0.00  0.00    +0.000 NA
ATOM     15  O   UNL     1       7.813   6.371  16.180  0.00  0.00    +0.000 OA
ATOM     16  C   UNL     1       7.327   6.078  17.414  0.00  0.00    +0.000 A 
ATOM     17  C   UNL     1       7.813   6.925  18.518  0.00  0.00    +0.000 C 
ATOM     18  C   UNL     1       6.458   5.007  17.322  0.00  0.00    +0.000 A 
ENDBRANCH  11  18
ENDBRANCH  10  11
ENDBRANCH   6  10
ENDBRANCH   1   7
BRANCH   4  19
ATOM     19  O   UNL     1       0.687  10.934  18.761  0.00  0.00    +0.000 OA
BRANCH  19  20
ATOM     20  C   UNL     1       1.274  12.103  19.191  0.00  0.00    +0.000 A 
ATOM     21  C   UNL     1       1.140  12.568  20.502  0.00  0.00    +0.000 A 
ATOM     22  C   UNL     1       1.684  13.796  20.864  0.00  0.00    +0.000 A 
ATOM     23  C   UNL     1       2.373  14.550  19.919  0.00  0.00    +0.000 A 
ATOM     24  C   UNL     1       2.626  14.043  18.640  0.00  0.00    +0.000 A 
ATOM     25  C   UNL     1       2.062  12.810  18.277  0.00  0.00    +0.000 A 
ATOM     26  C   UNL     1       3.438  14.829  17.650  0.00  0.00    +0.000 C 
ATOM     27  C   UNL     1       3.975  16.120  18.268  0.00  0.00    +0.000 C 
ATOM     28  C   UNL     1       2.938  16.732  19.218  0.00  0.00    +0.000 C 
ATOM     29  O   UNL     1       2.737  15.812  20.313  0.00  0.00    +0.000 OA
BRANCH  28  30
ATOM     30  C   UNL     1       1.626  17.216  18.593  0.00  0.00    +0.000 A 
ATOM     31  C   UNL     1       1.610  17.790  17.308  0.00  0.00    +0.000 A 
ATOM     32  C   UNL     1       0.420  18.234  16.727  0.00  0.00    +0.000 A 
ATOM     33  C   UNL     1      -0.783  18.094  17.408  0.00  0.00    +0.000 A 
ATOM     34  C   UNL     1      -0.797  17.503  18.670  0.00  0.00    +0.000 A 
ATOM     35  C   UNL     1       0.395  17.062  19.253  0.00  0.00    +0.000 A 
ENDBRANCH  28  30
ENDBRANCH  19  20
ENDBRANCH   4  19
TORSDOF 7
ENDMDL
MODEL 3
REMARK VINA RESULT:      -8.5      1.051      1.916
REMARK  Name = 
REMARK  9 active torsions:
REMARK  status: ('A' for Active; 'I' for Inactive)
REMARK    1  A    between atoms: C_1  and  C_2
REMARK    2  A    between atoms: C_5  and  C_6
REMARK    3  A    between atoms: C_7  and  C_8
REMARK    4  A    between atoms: C_8  and  C_9
REMARK    5  A    between atoms: C_9  and  N_10
REMARK    6  A    between atoms: C_11  and  C_13
REMARK    7  A    between atoms: C_16  and  O_17
REMARK    8  A    between atoms: O_17  and  C_18
REMARK    9  A    between atoms: C_26  and  C_27
REMARK                            x       y       z     vdW  Elec       q    Type
REMARK                         _______ _______ _______ _____ _____    ______ ____
ROOT
ATOM      1  C   UNL     1       2.398   7.596  18.825  0.00  0.00    +0.000 A 
ATOM      2  C   UNL     1       2.589   8.253  17.625  0.00  0.00    +0.000 A 
ATOM      3  N   UNL     1       2.004   9.499  17.524  0.00  0.00    +0.000 NA
ATOM      4  C   UNL     1       1.349   9.777  18.633  0.00  0.00    +0.000 A 
ATOM      5  S   UNL     1       1.471   8.594  19.869  0.00  0.00    +0.000 S 
ENDROOT
BRANCH   1   7
ATOM      6  N   UNL     1       3.718   5.669  18.273  0.00  0.00    +0.000 N 
ATOM      7  C   UNL     1       2.886   6.281  19.190  0.00  0.00    +0.000 C 
ATOM      8  O   UNL     1       2.592   5.735  20.250  0.00  0.00    +0.000 OA
ATOM      9  H   UNL     1       3.957   6.178  17.431  0.00  0.00    +0.000 HD
BRANCH   6  10
ATOM     10  C   UNL     1       4.277   4.353  18.518  0.00  0.00    +0.000 C 
BRANCH  10  11
ATOM     11  C   UNL     1       5.801   4.382  18.644  0.00  0.00    +0.000 C 
BRANCH  11  18
ATOM     12  C   UNL     1       7.832   6.946  18.626  0.00  0.00    +0.000 C 
ATOM     13  C   UNL     1       7.346   6.145  17.475  0.00  0.00    +0.000 A 
ATOM     14  N   UNL     1       7.748   6.451  16.237  0.00  0.00    +0.000 NA
ATOM     15  O   UNL     1       7.135   5.539  15.406  0.00  0.00    +0.000 OA
ATOM     16  C   UNL     1       6.371   4.691  16.142  0.00  0.00    +0.000 A 
ATOM     17  C   UNL     1       5.653   3.648  15.386  0.00  0.00    +0.000 C 
ATOM     18  C   UNL     1       6.463   5.032  17.477  0.00  0.00    +0.000 A 
ENDBRANCH  11  18
ENDBRANCH  10  11
ENDBRANCH   6  10
ENDBRANCH   1   7
BRANCH   4  19
ATOM     19  O   UNL     1       0.634  10.894  18.821  0.00  0.00    +0.000 OA
BRANCH  19  20
ATOM     20  C   UNL     1       1.239  12.053  19.253  0.00  0.00    +0.000 A 
ATOM     21  C   UNL     1       1.078  12.541  20.552  0.00  0.00    +0.000 A 
ATOM     22  C   UNL     1       1.645  13.759  20.912  0.00  0.00    +0.000 A 
ATOM     23  C   UNL     1       2.382  14.479  19.978  0.00  0.00    +0.000 A 
ATOM     24  C   UNL     1       2.660  13.946  18.715  0.00  0.00    +0.000 A 
ATOM     25  C   UNL     1       2.074  12.723  18.353  0.00  0.00    +0.000 A 
ATOM     26  C   UNL     1       3.524  14.695  17.740  0.00  0.00    +0.000 C 
ATOM     27  C   UNL     1       4.077  15.979  18.355  0.00  0.00    +0.000 C 
ATOM     28  C   UNL     1       3.029  16.635  19.263  0.00  0.00    +0.000 C 
ATOM     29  O   UNL     1       2.769  15.738  20.364  0.00  0.00    +0.000 OA
BRANCH  28  30
ATOM     30  C   UNL     1       1.750  17.144  18.590  0.00  0.00    +0.000 A 
ATOM     31  C   UNL     1       1.803  17.786  17.339  0.00  0.00    +0.000 A 
ATOM     32  C   UNL     1       0.644  18.254  16.715  0.00  0.00    +0.000 A 
ATOM     33  C   UNL     1      -0.595  18.071  17.318  0.00  0.00    +0.000 A 
ATOM     34  C   UNL     1      -0.675  17.414  18.544  0.00  0.00    +0.000 A 
ATOM     35  C   UNL     1       0.485  16.948  19.170  0.00  0.00    +0.000 A 
ENDBRANCH  28  30
ENDBRANCH  19  20
ENDBRANCH   4  19
TORSDOF 7
ENDMDL
MODEL 4
REMARK VINA RESULT:      -8.5      4.958      7.368
REMARK  Name = 
REMARK  9 active torsions:
REMARK  status: ('A' for Active; 'I' for Inactive)
REMARK    1  A    between atoms: C_1  and  C_2
REMARK    2  A    between atoms: C_5  and  C_6
REMARK    3  A    between atoms: C_7  and  C_8
REMARK    4  A    between atoms: C_8  and  C_9
REMARK    5  A    between atoms: C_9  and  N_10
REMARK    6  A    between atoms: C_11  and  C_13
REMARK    7  A    between atoms: C_16  and  O_17
REMARK    8  A    between atoms: O_17  and  C_18
REMARK    9  A    between atoms: C_26  and  C_27
REMARK                            x       y       z     vdW  Elec       q    Type
REMARK                         _______ _______ _______ _____ _____    ______ ____
ROOT
ATOM      1  C   UNL     1       6.726   5.980  18.347  0.00  0.00    +0.000 A 
ATOM      2  C   UNL     1       7.871   6.165  19.096  0.00  0.00    +0.000 A 
ATOM      3  N   UNL     1       8.545   7.350  18.879  0.00  0.00    +0.000 NA
ATOM      4  C   UNL     1       7.928   8.052  17.951  0.00  0.00    +0.000 A 
ATOM      5  S   UNL     1       6.478   7.359  17.355  0.00  0.00    +0.000 S 
ENDROOT
BRANCH   1   7
ATOM      6  N   UNL     1       4.895   4.781  17.362  0.00  0.00    +0.000 N 
ATOM      7  C   UNL     1       5.844   4.831  18.365  0.00  0.00    +0.000 C 
ATOM      8  O   UNL     1       5.928   3.943  19.209  0.00  0.00    +0.000 OA
ATOM      9  H   UNL     1       4.893   5.522  16.671  0.00  0.00    +0.000 HD
BRANCH   6  10
ATOM     10  C   UNL     1       3.953   3.683  17.265  0.00  0.00    +0.000 C 
BRANCH  10  11
ATOM     11  C   UNL     1       2.502   4.147  17.390  0.00  0.00    +0.000 C 
BRANCH  11  18
ATOM     12  C   UNL     1       2.669   7.256  18.394  0.00  0.00    +0.000 C 
ATOM     13  C   UNL     1       2.263   6.057  19.167  0.00  0.00    +0.000 A 
ATOM     14  N   UNL     1       1.903   6.184  20.449  0.00  0.00    +0.000 NA
ATOM     15  O   UNL     1       1.584   4.915  20.879  0.00  0.00    +0.000 OA
ATOM     16  C   UNL     1       1.751   4.032  19.861  0.00  0.00    +0.000 A 
ATOM     17  C   UNL     1       1.442   2.623  20.170  0.00  0.00    +0.000 C 
ATOM     18  C   UNL     1       2.189   4.705  18.737  0.00  0.00    +0.000 A 
ENDBRANCH  11  18
ENDBRANCH  10  11
ENDBRANCH   6  10
ENDBRANCH   1   7
BRANCH   4  19
ATOM     19  O   UNL     1       8.369   9.228  17.484  0.00  0.00    +0.000 OA
BRANCH  19  20
ATOM     20  C   UNL     1       9.060  10.095  18.301  0.00  0.00    +0.000 A 
ATOM     21  C   UNL     1       8.866  10.132  19.684  0.00  0.00    +0.000 A 
ATOM     22  C   UNL     1       9.529  11.083  20.453  0.00  0.00    +0.000 A 
ATOM     23  C   UNL     1      10.393  11.985  19.841  0.00  0.00    +0.000 A 
ATOM     24  C   UNL     1      10.695  11.880  18.478  0.00  0.00    +0.000 A 
ATOM     25  C   UNL     1      10.013  10.928  17.706  0.00  0.00    +0.000 A 
ATOM     26  C   UNL     1      11.690  12.808  17.841  0.00  0.00    +0.000 C 
ATOM     27  C   UNL     1      12.329  13.737  18.871  0.00  0.00    +0.000 C 
ATOM     28  C   UNL     1      11.296  14.165  19.922  0.00  0.00    +0.000 C 
ATOM     29  O   UNL     1      10.879  12.986  20.644  0.00  0.00    +0.000 OA
BRANCH  28  30
ATOM     30  C   UNL     1      10.121  15.016  19.432  0.00  0.00    +0.000 A 
ATOM     31  C   UNL     1      10.301  15.975  18.419  0.00  0.00    +0.000 A 
ATOM     32  C   UNL     1       9.237  16.757  17.963  0.00  0.00    +0.000 A 
ATOM     33  C   UNL     1       7.964  16.580  18.495  0.00  0.00    +0.000 A 
ATOM     34  C   UNL     1       7.756  15.618  19.480  0.00  0.00    +0.000 A 
ATOM     35  C   UNL     1       8.822  14.838  19.938  0.00  0.00    +0.000 A 
ENDBRANCH  28  30
ENDBRANCH  19  20
ENDBRANCH   4  19
TORSDOF 7
ENDMDL
MODEL 5
REMARK VINA RESULT:      -8.5      1.829      3.246
REMARK  Name = 
REMARK  9 active torsions:
REMARK  status: ('A' for Active; 'I' for Inactive)
REMARK    1  A    between atoms: C_1  and  C_2
REMARK    2  A    between atoms: C_5  and  C_6
REMARK    3  A    between atoms: C_7  and  C_8
REMARK    4  A    between atoms: C_8  and  C_9
REMARK    5  A    between atoms: C_9  and  N_10
REMARK    6  A    between atoms: C_11  and  C_13
REMARK    7  A    between atoms: C_16  and  O_17
REMARK    8  A    between atoms: O_17  and  C_18
REMARK    9  A    between atoms: C_26  and  C_27
REMARK                            x       y       z     vdW  Elec       q    Type
REMARK                         _______ _______ _______ _____ _____    ______ ____
ROOT
ATOM      1  C   UNL     1       2.514   7.604  18.918  0.00  0.00    +0.000 A 
ATOM      2  C   UNL     1       1.870   7.772  20.128  0.00  0.00    +0.000 A 
ATOM      3  N   UNL     1       1.093   8.907  20.241  0.00  0.00    +0.000 NA
ATOM      4  C   UNL     1       1.165   9.612  19.131  0.00  0.00    +0.000 A 
ATOM      5  S   UNL     1       2.103   8.909  17.880  0.00  0.00    +0.000 S 
ENDROOT
BRANCH   1   7
ATOM      6  N   UNL     1       3.819   5.697  19.564  0.00  0.00    +0.000 N 
ATOM      7  C   UNL     1       3.395   6.519  18.538  0.00  0.00    +0.000 C 
ATOM      8  O   UNL     1       3.747   6.325  17.377  0.00  0.00    +0.000 OA
ATOM      9  H   UNL     1       3.471   5.882  20.497  0.00  0.00    +0.000 HD
BRANCH   6  10
ATOM     10  C   UNL     1       4.701   4.573  19.318  0.00  0.00    +0.000 C 
BRANCH  10  11
ATOM     11  C   UNL     1       4.144   3.262  19.875  0.00  0.00    +0.000 C 
BRANCH  11  18
ATOM     12  C   UNL     1       2.853   3.059  16.876  0.00  0.00    +0.000 C 
ATOM     13  C   UNL     1       2.167   2.943  18.186  0.00  0.00    +0.000 A 
ATOM     14  N   UNL     1       0.848   2.725  18.228  0.00  0.00    +0.000 NA
ATOM     15  O   UNL     1       0.517   2.665  19.564  0.00  0.00    +0.000 OA
ATOM     16  C   UNL     1       1.632   2.844  20.319  0.00  0.00    +0.000 A 
ATOM     17  C   UNL     1       1.436   2.800  21.780  0.00  0.00    +0.000 C 
ATOM     18  C   UNL     1       2.722   3.032  19.491  0.00  0.00    +0.000 A 
ENDBRANCH  11  18
ENDBRANCH  10  11
ENDBRANCH   6  10
ENDBRANCH   1   7
BRANCH   4  19
ATOM     19  O   UNL     1       0.561  10.795  18.953  0.00  0.00    +0.000 OA
BRANCH  19  20
ATOM     20  C   UNL     1       1.154  11.960  19.385  0.00  0.00    +0.000 A 
ATOM     21  C   UNL     1       0.936  12.480  20.663  0.00  0.00    +0.000 A 
ATOM     22  C   UNL     1       1.494  13.703  21.020  0.00  0.00    +0.000 A 
ATOM     23  C   UNL     1       2.279  14.397  20.105  0.00  0.00    +0.000 A 
ATOM     24  C   UNL     1       2.610  13.832  18.868  0.00  0.00    +0.000 A 
ATOM     25  C   UNL     1       2.033  12.604  18.508  0.00  0.00    +0.000 A 
ATOM     26  C   UNL     1       3.523  14.552  17.917  0.00  0.00    +0.000 C 
ATOM     27  C   UNL     1       4.056  15.848  18.526  0.00  0.00    +0.000 C 
ATOM     28  C   UNL     1       2.972  16.531  19.369  0.00  0.00    +0.000 C 
ATOM     29  O   UNL     1       2.656  15.662  20.479  0.00  0.00    +0.000 OA
BRANCH  28  30
ATOM     30  C   UNL     1       1.729  17.031  18.627  0.00  0.00    +0.000 A 
ATOM     31  C   UNL     1       1.849  17.704  17.397  0.00  0.00    +0.000 A 
ATOM     32  C   UNL     1       0.723  18.165  16.710  0.00  0.00    +0.000 A 
ATOM     33  C   UNL     1      -0.548  17.943  17.227  0.00  0.00    +0.000 A 
ATOM     34  C   UNL     1      -0.693  17.255  18.429  0.00  0.00    +0.000 A 
ATOM     35  C   UNL     1       0.434  16.796  19.118  0.00  0.00    +0.000 A 
ENDBRANCH  28  30
ENDBRANCH  19  20
ENDBRANCH   4  19
TORSDOF 7
ENDMDL
MODEL 6
REMARK VINA RESULT:      -8.5      1.791      3.284
REMARK  Name = 
REMARK  9 active torsions:
REMARK  status: ('A' for Active; 'I' for Inactive)
REMARK    1  A    between atoms: C_1  and  C_2
REMARK    2  A    between atoms: C_5  and  C_6
REMARK    3  A    between atoms: C_7  and  C_8
REMARK    4  A    between atoms: C_8  and  C_9
REMARK    5  A    between atoms: C_9  and  N_10
REMARK    6  A    between atoms: C_11  and  C_13
REMARK    7  A    between atoms: C_16  and  O_17
REMARK    8  A    between atoms: O_17  and  C_18
REMARK    9  A    between atoms: C_26  and  C_27
REMARK                            x       y       z     vdW  Elec       q    Type
REMARK                         _______ _______ _______ _____ _____    ______ ____
ROOT
ATOM      1  C   UNL     1       2.473   7.688  18.936  0.00  0.00    +0.000 A 
ATOM      2  C   UNL     1       1.828   7.861  20.145  0.00  0.00    +0.000 A 
ATOM      3  N   UNL     1       1.049   8.996  20.252  0.00  0.00    +0.000 NA
ATOM      4  C   UNL     1       1.123   9.696  19.139  0.00  0.00    +0.000 A 
ATOM      5  S   UNL     1       2.063   8.988  17.892  0.00  0.00    +0.000 S 
ENDROOT
BRANCH   1   7
ATOM      6  N   UNL     1       3.783   5.788  19.594  0.00  0.00    +0.000 N 
ATOM      7  C   UNL     1       3.356   6.602  18.563  0.00  0.00    +0.000 C 
ATOM      8  O   UNL     1       3.706   6.400  17.403  0.00  0.00    +0.000 OA
ATOM      9  H   UNL     1       3.436   5.978  20.526  0.00  0.00    +0.000 HD
BRANCH   6  10
ATOM     10  C   UNL     1       4.666   4.663  19.354  0.00  0.00    +0.000 C 
BRANCH  10  11
ATOM     11  C   UNL     1       4.115   3.357  19.927  0.00  0.00    +0.000 C 
BRANCH  11  18
ATOM     12  C   UNL     1       1.436   2.812  21.722  0.00  0.00    +0.000 C 
ATOM     13  C   UNL     1       1.569   2.829  20.245  0.00  0.00    +0.000 A 
ATOM     14  N   UNL     1       0.497   2.600  19.479  0.00  0.00    +0.000 NA
ATOM     15  O   UNL     1       0.938   2.685  18.177  0.00  0.00    +0.000 OA
ATOM     16  C   UNL     1       2.268   2.963  18.162  0.00  0.00    +0.000 A 
ATOM     17  C   UNL     1       2.886   3.088  16.829  0.00  0.00    +0.000 C 
ATOM     18  C   UNL     1       2.730   3.063  19.460  0.00  0.00    +0.000 A 
ENDBRANCH  11  18
ENDBRANCH  10  11
ENDBRANCH   6  10
ENDBRANCH   1   7
BRANCH   4  19
ATOM     19  O   UNL     1       0.518  10.877  18.954  0.00  0.00    +0.000 OA
BRANCH  19  20
ATOM     20  C   UNL     1       1.110  12.045  19.381  0.00  0.00    +0.000 A 
ATOM     21  C   UNL     1       0.886  12.575  20.654  0.00  0.00    +0.000 A 
ATOM     22  C   UNL     1       1.443  13.800  21.005  0.00  0.00    +0.000 A 
ATOM     23  C   UNL     1       2.233  14.485  20.089  0.00  0.00    +0.000 A 
ATOM     24  C   UNL     1       2.571  13.911  18.858  0.00  0.00    +0.000 A 
ATOM     25  C   UNL     1       1.995  12.682  18.504  0.00  0.00    +0.000 A 
ATOM     26  C   UNL     1       3.490  14.624  17.907  0.00  0.00    +0.000 C 
ATOM     27  C   UNL     1       4.021  15.924  18.509  0.00  0.00    +0.000 C 
ATOM     28  C   UNL     1       2.933  16.613  19.342  0.00  0.00    +0.000 C 
ATOM     29  O   UNL     1       2.610  15.753  20.456  0.00  0.00    +0.000 OA
BRANCH  28  30
ATOM     30  C   UNL     1       1.694  17.110  18.589  0.00  0.00    +0.000 A 
ATOM     31  C   UNL     1       1.821  17.765  17.351  0.00  0.00    +0.000 A 
ATOM     32  C   UNL     1       0.699  18.222  16.654  0.00  0.00    +0.000 A 
ATOM     33  C   UNL     1      -0.575  18.013  17.171  0.00  0.00    +0.000 A 
ATOM     34  C   UNL     1      -0.726  17.343  18.382  0.00  0.00    +0.000 A 
ATOM     35  C   UNL     1       0.396  16.889  19.080  0.00  0.00    +0.000 A 
ENDBRANCH  28  30
ENDBRANCH  19  20
ENDBRANCH   4  19
TORSDOF 7
ENDMDL
MODEL 7
REMARK VINA RESULT:      -8.3      1.189      1.761
REMARK  Name = 
REMARK  9 active torsions:
REMARK  status: ('A' for Active; 'I' for Inactive)
REMARK    1  A    between atoms: C_1  and  C_2
REMARK    2  A    between atoms: C_5  and  C_6
REMARK    3  A    between atoms: C_7  and  C_8
REMARK    4  A    between atoms: C_8  and  C_9
REMARK    5  A    between atoms: C_9  and  N_10
REMARK    6  A    between atoms: C_11  and  C_13
REMARK    7  A    between atoms: C_16  and  O_17
REMARK    8  A    between atoms: O_17  and  C_18
REMARK    9  A    between atoms: C_26  and  C_27
REMARK                            x       y       z     vdW  Elec       q    Type
REMARK                         _______ _______ _______ _____ _____    ______ ____
ROOT
ATOM      1  C   UNL     1       2.289   7.707  18.834  0.00  0.00    +0.000 A 
ATOM      2  C   UNL     1       2.556   8.351  17.643  0.00  0.00    +0.000 A 
ATOM      3  N   UNL     1       1.994   9.603  17.498  0.00  0.00    +0.000 NA
ATOM      4  C   UNL     1       1.281   9.900  18.565  0.00  0.00    +0.000 A 
ATOM      5  S   UNL     1       1.316   8.728  19.815  0.00  0.00    +0.000 S 
ENDROOT
BRANCH   1   7
ATOM      6  N   UNL     1       3.293   5.610  18.243  0.00  0.00    +0.000 N 
ATOM      7  C   UNL     1       2.737   6.391  19.238  0.00  0.00    +0.000 C 
ATOM      8  O   UNL     1       2.641   5.981  20.392  0.00  0.00    +0.000 OA
ATOM      9  H   UNL     1       3.380   6.009  17.317  0.00  0.00    +0.000 HD
BRANCH   6  10
ATOM     10  C   UNL     1       3.785   4.273  18.516  0.00  0.00    +0.000 C 
BRANCH  10  11
ATOM     11  C   UNL     1       4.578   3.693  17.344  0.00  0.00    +0.000 C 
BRANCH  11  18
ATOM     12  C   UNL     1       6.623   5.355  19.283  0.00  0.00    +0.000 C 
ATOM     13  C   UNL     1       6.623   5.265  17.802  0.00  0.00    +0.000 A 
ATOM     14  N   UNL     1       7.551   5.922  17.097  0.00  0.00    +0.000 NA
ATOM     15  O   UNL     1       7.289   5.640  15.774  0.00  0.00    +0.000 OA
ATOM     16  C   UNL     1       6.211   4.819  15.686  0.00  0.00    +0.000 A 
ATOM     17  C   UNL     1       5.810   4.424  14.323  0.00  0.00    +0.000 C 
ATOM     18  C   UNL     1       5.737   4.547  16.955  0.00  0.00    +0.000 A 
ENDBRANCH  11  18
ENDBRANCH  10  11
ENDBRANCH   6  10
ENDBRANCH   1   7
BRANCH   4  19
ATOM     19  O   UNL     1       0.571  11.028  18.702  0.00  0.00    +0.000 OA
BRANCH  19  20
ATOM     20  C   UNL     1       1.171  12.189  19.136  0.00  0.00    +0.000 A 
ATOM     21  C   UNL     1       1.001  12.679  20.433  0.00  0.00    +0.000 A 
ATOM     22  C   UNL     1       1.563  13.899  20.794  0.00  0.00    +0.000 A 
ATOM     23  C   UNL     1       2.304  14.619  19.863  0.00  0.00    +0.000 A 
ATOM     24  C   UNL     1       2.590  14.084  18.603  0.00  0.00    +0.000 A 
ATOM     25  C   UNL     1       2.010  12.860  18.239  0.00  0.00    +0.000 A 
ATOM     26  C   UNL     1       3.459  14.833  17.632  0.00  0.00    +0.000 C 
ATOM     27  C   UNL     1       4.005  16.120  18.247  0.00  0.00    +0.000 C 
ATOM     28  C   UNL     1       2.950  16.775  19.148  0.00  0.00    +0.000 C 
ATOM     29  O   UNL     1       2.686  15.879  20.250  0.00  0.00    +0.000 OA
BRANCH  28  30
ATOM     30  C   UNL     1       1.674  17.280  18.467  0.00  0.00    +0.000 A 
ATOM     31  C   UNL     1       0.423  17.149  19.097  0.00  0.00    +0.000 A 
ATOM     32  C   UNL     1      -0.748  17.606  18.487  0.00  0.00    +0.000 A 
ATOM     33  C   UNL     1      -0.689  18.225  17.243  0.00  0.00    +0.000 A 
ATOM     34  C   UNL     1       0.541  18.391  16.613  0.00  0.00    +0.000 A 
ATOM     35  C   UNL     1       1.712  17.930  17.222  0.00  0.00    +0.000 A 
ENDBRANCH  28  30
ENDBRANCH  19  20
ENDBRANCH   4  19
TORSDOF 7
ENDMDL
MODEL 8
REMARK VINA RESULT:      -8.3      5.223      7.152
REMARK  Name = 
REMARK  9 active torsions:
REMARK  status: ('A' for Active; 'I' for Inactive)
REMARK    1  A    between atoms: C_1  and  C_2
REMARK    2  A    between atoms: C_5  and  C_6
REMARK    3  A    between atoms: C_7  and  C_8
REMARK    4  A    between atoms: C_8  and  C_9
REMARK    5  A    between atoms: C_9  and  N_10
REMARK    6  A    between atoms: C_11  and  C_13
REMARK    7  A    between atoms: C_16  and  O_17
REMARK    8  A    between atoms: O_17  and  C_18
REMARK    9  A    between atoms: C_26  and  C_27
REMARK                            x       y       z     vdW  Elec       q    Type
REMARK                         _______ _______ _______ _____ _____    ______ ____
ROOT
ATOM      1  C   UNL     1       0.685   9.861  20.799  0.00  0.00    +0.000 A 
ATOM      2  C   UNL     1       0.835  11.233  20.776  0.00  0.00    +0.000 A 
ATOM      3  N   UNL     1       0.139  11.929  21.744  0.00  0.00    +0.000 NA
ATOM      4  C   UNL     1      -0.557  11.091  22.484  0.00  0.00    +0.000 A 
ATOM      5  S   UNL     1      -0.348   9.433  22.102  0.00  0.00    +0.000 S 
ENDROOT
BRANCH   1   7
ATOM      6  N   UNL     1       1.838   7.779  20.489  0.00  0.00    +0.000 N 
ATOM      7  C   UNL     1       1.286   8.899  19.898  0.00  0.00    +0.000 C 
ATOM      8  O   UNL     1       1.304   9.053  18.679  0.00  0.00    +0.000 OA
ATOM      9  H   UNL     1       1.765   7.686  21.494  0.00  0.00    +0.000 HD
BRANCH   6  10
ATOM     10  C   UNL     1       2.468   6.739  19.699  0.00  0.00    +0.000 C 
BRANCH  10  11
ATOM     11  C   UNL     1       1.681   5.428  19.728  0.00  0.00    +0.000 C 
BRANCH  11  18
ATOM     12  C   UNL     1       2.188   3.064  21.931  0.00  0.00    +0.000 C 
ATOM     13  C   UNL     1       2.773   3.202  20.575  0.00  0.00    +0.000 A 
ATOM     14  N   UNL     1       3.628   2.279  20.123  0.00  0.00    +0.000 NA
ATOM     15  O   UNL     1       3.985   2.683  18.855  0.00  0.00    +0.000 OA
ATOM     16  C   UNL     1       3.347   3.842  18.548  0.00  0.00    +0.000 A 
ATOM     17  C   UNL     1       3.628   4.399  17.212  0.00  0.00    +0.000 C 
ATOM     18  C   UNL     1       2.558   4.228  19.615  0.00  0.00    +0.000 A 
ENDBRANCH  11  18
ENDBRANCH  10  11
ENDBRANCH   6  10
ENDBRANCH   1   7
BRANCH   4  19
ATOM     19  O   UNL     1      -1.376  11.468  23.475  0.00  0.00    +0.000 OA
BRANCH  19  20
ATOM     20  C   UNL     1      -2.590  12.057  23.199  0.00  0.00    +0.000 A 
ATOM     21  C   UNL     1      -3.553  12.281  24.186  0.00  0.00    +0.000 A 
ATOM     22  C   UNL     1      -4.794  12.804  23.839  0.00  0.00    +0.000 A 
ATOM     23  C   UNL     1      -5.065  13.116  22.511  0.00  0.00    +0.000 A 
ATOM     24  C   UNL     1      -4.070  13.017  21.532  0.00  0.00    +0.000 A 
ATOM     25  C   UNL     1      -2.824  12.476  21.885  0.00  0.00    +0.000 A 
ATOM     26  C   UNL     1      -4.346  13.431  20.114  0.00  0.00    +0.000 C 
ATOM     27  C   UNL     1      -5.749  14.018  19.966  0.00  0.00    +0.000 C 
ATOM     28  C   UNL     1      -6.744  13.263  20.857  0.00  0.00    +0.000 C 
ATOM     29  O   UNL     1      -6.360  13.474  22.233  0.00  0.00    +0.000 OA
BRANCH  28  30
ATOM     30  C   UNL     1      -6.993  11.789  20.524  0.00  0.00    +0.000 A 
ATOM     31  C   UNL     1      -7.677  10.954  21.426  0.00  0.00    +0.000 A 
ATOM     32  C   UNL     1      -7.911   9.608  21.133  0.00  0.00    +0.000 A 
ATOM     33  C   UNL     1      -7.486   9.074  19.922  0.00  0.00    +0.000 A 
ATOM     34  C   UNL     1      -6.831   9.888  19.001  0.00  0.00    +0.000 A 
ATOM     35  C   UNL     1      -6.594  11.234  19.296  0.00  0.00    +0.000 A 
ENDBRANCH  28  30
ENDBRANCH  19  20
ENDBRANCH   4  19
TORSDOF 7
ENDMDL
MODEL 9
REMARK VINA RESULT:      -8.3      5.274      7.149
REMARK  Name = 
REMARK  9 active torsions:
REMARK  status: ('A' for Active; 'I' for Inactive)
REMARK    1  A    between atoms: C_1  and  C_2
REMARK    2  A    between atoms: C_5  and  C_6
REMARK    3  A    between atoms: C_7  and  C_8
REMARK    4  A    between atoms: C_8  and  C_9
REMARK    5  A    between atoms: C_9  and  N_10
REMARK    6  A    between atoms: C_11  and  C_13
REMARK    7  A    between atoms: C_16  and  O_17
REMARK    8  A    between atoms: O_17  and  C_18
REMARK    9  A    between atoms: C_26  and  C_27
REMARK                            x       y       z     vdW  Elec       q    Type
REMARK                         _______ _______ _______ _____ _____    ______ ____
ROOT
ATOM      1  C   UNL     1       0.196   9.852  21.390  0.00  0.00    +0.000 A 
ATOM      2  C   UNL     1      -0.159   9.503  22.677  0.00  0.00    +0.000 A 
ATOM      3  N   UNL     1      -0.770  10.493  23.420  0.00  0.00    +0.000 NA
ATOM      4  C   UNL     1      -0.857  11.598  22.709  0.00  0.00    +0.000 A 
ATOM      5  S   UNL     1      -0.281  11.476  21.098  0.00  0.00    +0.000 S 
ENDROOT
BRANCH   1   7
ATOM      6  N   UNL     1       1.411   7.846  20.884  0.00  0.00    +0.000 N 
ATOM      7  C   UNL     1       0.858   9.018  20.408  0.00  0.00    +0.000 C 
ATOM      8  O   UNL     1       0.926   9.319  19.219  0.00  0.00    +0.000 OA
ATOM      9  H   UNL     1       1.296   7.630  21.867  0.00  0.00    +0.000 HD
BRANCH   6  10
ATOM     10  C   UNL     1       2.099   6.920  20.005  0.00  0.00    +0.000 C 
BRANCH  10  11
ATOM     11  C   UNL     1       2.588   5.672  20.739  0.00  0.00    +0.000 C 
BRANCH  11  18
ATOM     12  C   UNL     1       5.472   5.102  19.305  0.00  0.00    +0.000 C 
ATOM     13  C   UNL     1       4.215   4.322  19.192  0.00  0.00    +0.000 A 
ATOM     14  N   UNL     1       4.179   3.230  18.421  0.00  0.00    +0.000 NA
ATOM     15  O   UNL     1       2.896   2.737  18.525  0.00  0.00    +0.000 OA
ATOM     16  C   UNL     1       2.169   3.529  19.354  0.00  0.00    +0.000 A 
ATOM     17  C   UNL     1       0.767   3.123  19.569  0.00  0.00    +0.000 C 
ATOM     18  C   UNL     1       2.960   4.566  19.810  0.00  0.00    +0.000 A 
ENDBRANCH  11  18
ENDBRANCH  10  11
ENDBRANCH   6  10
ENDBRANCH   1   7
BRANCH   4  19
ATOM     19  O   UNL     1      -1.356  12.751  23.172  0.00  0.00    +0.000 OA
BRANCH  19  20
ATOM     20  C   UNL     1      -2.711  12.998  23.132  0.00  0.00    +0.000 A 
ATOM     21  C   UNL     1      -3.586  12.523  24.112  0.00  0.00    +0.000 A 
ATOM     22  C   UNL     1      -4.955  12.730  23.981  0.00  0.00    +0.000 A 
ATOM     23  C   UNL     1      -5.445  13.422  22.879  0.00  0.00    +0.000 A 
ATOM     24  C   UNL     1      -4.575  14.013  21.956  0.00  0.00    +0.000 A 
ATOM     25  C   UNL     1      -3.196  13.790  22.086  0.00  0.00    +0.000 A 
ATOM     26  C   UNL     1      -5.110  14.828  20.812  0.00  0.00    +0.000 C 
ATOM     27  C   UNL     1      -6.630  14.965  20.886  0.00  0.00    +0.000 C 
ATOM     28  C   UNL     1      -7.263  13.663  21.392  0.00  0.00    +0.000 C 
ATOM     29  O   UNL     1      -6.810  13.443  22.746  0.00  0.00    +0.000 OA
BRANCH  28  30
ATOM     30  C   UNL     1      -7.112  12.426  20.501  0.00  0.00    +0.000 A 
ATOM     31  C   UNL     1      -6.698  12.552  19.162  0.00  0.00    +0.000 A 
ATOM     32  C   UNL     1      -6.556  11.432  18.339  0.00  0.00    +0.000 A 
ATOM     33  C   UNL     1      -6.802  10.160  18.844  0.00  0.00    +0.000 A 
ATOM     34  C   UNL     1      -7.187  10.009  20.174  0.00  0.00    +0.000 A 
ATOM     35  C   UNL     1      -7.332  11.130  20.997  0.00  0.00    +0.000 A 
ENDBRANCH  28  30
ENDBRANCH  19  20
ENDBRANCH   4  19
TORSDOF 7
ENDMDL
