MODEL 1
REMARK VINA RESULT:      -7.5      0.000      0.000
REMARK  Name = 
REMARK  4 active torsions:
REMARK  status: ('A' for Active; 'I' for Inactive)
REMARK    1  A    between atoms: C_1  and  C_2
REMARK    2  A    between atoms: C_10  and  C_11
REMARK    3  A    between atoms: C_11  and  S_12
REMARK    4  A    between atoms: S_12  and  C_13
REMARK                            x       y       z     vdW  Elec       q    Type
REMARK                         _______ _______ _______ _____ _____    ______ ____
ROOT
ATOM      1  C   UNL     1      -0.842  16.333  21.526  0.00  0.00    +0.000 C 
ATOM      2  C   UNL     1      -1.580  16.733  22.798  0.00  0.00    +0.000 C 
ATOM      3  C   UNL     1      -0.605  16.668  23.999  0.00  0.00    +0.000 C 
ATOM      4  O   UNL     1      -1.216  17.140  25.210  0.00  0.00    +0.000 OA
ATOM      5  C   UNL     1      -2.360  16.341  25.528  0.00  0.00    +0.000 C 
ATOM      6  C   UNL     1      -3.419  16.417  24.421  0.00  0.00    +0.000 C 
ATOM      7  N   UNL     1      -2.830  15.994  23.133  0.00  0.00    +0.000 N 
ATOM      8  C   UNL     1      -3.399  14.972  22.403  0.00  0.00    +0.000 A 
ATOM      9  C   UNL     1      -4.755  14.692  22.489  0.00  0.00    +0.000 A 
ATOM     10  C   UNL     1      -5.268  13.614  21.793  0.00  0.00    +0.000 A 
ATOM     11  N   UNL     1      -4.503  12.955  20.916  0.00  0.00    +0.000 NA
ATOM     12  C   UNL     1      -3.196  13.252  20.873  0.00  0.00    +0.000 A 
ATOM     13  N   UNL     1      -2.402  12.435  20.022  0.00  0.00    +0.000 N 
ATOM     14  C   UNL     1      -1.055  12.129  20.158  0.00  0.00    +0.000 A 
ATOM     15  N   UNL     1      -0.276  12.602  21.146  0.00  0.00    +0.000 N 
ATOM     16  N   UNL     1      -0.668  11.245  19.268  0.00  0.00    +0.000 NA
ATOM     17  C   UNL     1      -1.774  10.971  18.502  0.00  0.00    +0.000 A 
ATOM     18  C   UNL     1      -1.937  10.102  17.407  0.00  0.00    +0.000 A 
ATOM     19  F   UNL     1      -0.918   9.352  16.961  0.00  0.00    +0.000 F 
ATOM     20  C   UNL     1      -3.175  10.009  16.763  0.00  0.00    +0.000 A 
ATOM     21  C   UNL     1      -4.253  10.777  17.194  0.00  0.00    +0.000 A 
ATOM     22  C   UNL     1      -4.122  11.642  18.283  0.00  0.00    +0.000 A 
ATOM     23  C   UNL     1      -2.874  11.706  18.933  0.00  0.00    +0.000 A 
ATOM     24  N   UNL     1      -2.616  14.198  21.635  0.00  0.00    +0.000 NA
ATOM     25  H   UNL     1      -0.682  13.108  21.930  0.00  0.00    +0.000 HD
ATOM     26  H   UNL     1       0.582  12.099  21.349  0.00  0.00    +0.000 HD
ENDROOT
BRANCH  10  27
ATOM     27  C   UNL     1      -6.620  13.039  22.084  0.00  0.00    +0.000 C 
ATOM     28  C   UNL     1      -7.831  13.560  21.331  0.00  0.00    +0.000 C 
ATOM     29  C   UNL     1      -7.315  12.177  21.053  0.00  0.00    +0.000 C 
BRANCH  27  30
ATOM     30  S   UNL     1      -6.986  12.595  23.814  0.00  0.00    +0.000 S 
ATOM     31  C   UNL     1      -5.390  12.350  24.543  0.00  0.00    +0.000 C 
ATOM     32  O   UNL     1      -7.600  13.741  24.456  0.00  0.00    +0.000 OA
ATOM     33  O   UNL     1      -7.674  11.317  23.766  0.00  0.00    +0.000 OA
ENDBRANCH  27  30
ENDBRANCH  10  27
TORSDOF 2
ENDMDL
MODEL 2
REMARK VINA RESULT:      -7.5      3.020      5.343
REMARK  Name = 
REMARK  4 active torsions:
REMARK  status: ('A' for Active; 'I' for Inactive)
REMARK    1  A    between atoms: C_1  and  C_2
REMARK    2  A    between atoms: C_10  and  C_11
REMARK    3  A    between atoms: C_11  and  S_12
REMARK    4  A    between atoms: S_12  and  C_13
REMARK                            x       y       z     vdW  Elec       q    Type
REMARK                         _______ _______ _______ _____ _____    ______ ____
ROOT
ATOM      1  C   UNL     1      -7.378  12.018  21.670  0.00  0.00    +0.000 C 
ATOM      2  C   UNL     1      -6.952  12.993  22.760  0.00  0.00    +0.000 C 
ATOM      3  C   UNL     1      -7.912  14.207  22.768  0.00  0.00    +0.000 C 
ATOM      4  O   UNL     1      -7.625  15.110  23.847  0.00  0.00    +0.000 OA
ATOM      5  C   UNL     1      -6.288  15.607  23.731  0.00  0.00    +0.000 C 
ATOM      6  C   UNL     1      -5.261  14.468  23.800  0.00  0.00    +0.000 C 
ATOM      7  N   UNL     1      -5.541  13.475  22.743  0.00  0.00    +0.000 N 
ATOM      8  C   UNL     1      -4.568  13.127  21.831  0.00  0.00    +0.000 A 
ATOM      9  C   UNL     1      -3.219  13.203  22.150  0.00  0.00    +0.000 A 
ATOM     10  C   UNL     1      -2.278  12.911  21.183  0.00  0.00    +0.000 A 
ATOM     11  N   UNL     1      -2.659  12.398  20.007  0.00  0.00    +0.000 NA
ATOM     12  C   UNL     1      -3.972  12.352  19.736  0.00  0.00    +0.000 A 
ATOM     13  N   UNL     1      -4.320  11.924  18.425  0.00  0.00    +0.000 N 
ATOM     14  C   UNL     1      -5.449  12.268  17.695  0.00  0.00    +0.000 A 
ATOM     15  N   UNL     1      -6.422  13.073  18.155  0.00  0.00    +0.000 N 
ATOM     16  N   UNL     1      -5.394  11.797  16.471  0.00  0.00    +0.000 NA
ATOM     17  C   UNL     1      -4.214  11.099  16.387  0.00  0.00    +0.000 A 
ATOM     18  C   UNL     1      -3.646  10.388  15.314  0.00  0.00    +0.000 A 
ATOM     19  F   UNL     1      -4.257  10.329  14.122  0.00  0.00    +0.000 F 
ATOM     20  C   UNL     1      -2.424   9.728  15.479  0.00  0.00    +0.000 A 
ATOM     21  C   UNL     1      -1.764   9.761  16.704  0.00  0.00    +0.000 A 
ATOM     22  C   UNL     1      -2.302  10.466  17.784  0.00  0.00    +0.000 A 
ATOM     23  C   UNL     1      -3.522  11.143  17.593  0.00  0.00    +0.000 A 
ATOM     24  N   UNL     1      -4.929  12.759  20.591  0.00  0.00    +0.000 NA
ATOM     25  H   UNL     1      -6.304  13.583  19.028  0.00  0.00    +0.000 HD
ATOM     26  H   UNL     1      -7.030  13.513  17.471  0.00  0.00    +0.000 HD
ENDROOT
BRANCH  10  27
ATOM     27  C   UNL     1      -0.835  13.284  21.326  0.00  0.00    +0.000 C 
ATOM     28  C   UNL     1      -0.394  14.700  21.000  0.00  0.00    +0.000 C 
ATOM     29  C   UNL     1      -0.401  14.227  22.426  0.00  0.00    +0.000 C 
BRANCH  27  30
ATOM     30  S   UNL     1       0.405  12.025  20.874  0.00  0.00    +0.000 S 
ATOM     31  C   UNL     1      -0.093  10.587  21.782  0.00  0.00    +0.000 C 
ATOM     32  O   UNL     1       0.263  11.734  19.462  0.00  0.00    +0.000 OA
ATOM     33  O   UNL     1       1.670  12.494  21.410  0.00  0.00    +0.000 OA
ENDBRANCH  27  30
ENDBRANCH  10  27
TORSDOF 2
ENDMDL
MODEL 3
REMARK VINA RESULT:      -7.2      2.557      5.159
REMARK  Name = 
REMARK  4 active torsions:
REMARK  status: ('A' for Active; 'I' for Inactive)
REMARK    1  A    between atoms: C_1  and  C_2
REMARK    2  A    between atoms: C_10  and  C_11
REMARK    3  A    between atoms: C_11  and  S_12
REMARK    4  A    between atoms: S_12  and  C_13
REMARK                            x       y       z     vdW  Elec       q    Type
REMARK                         _______ _______ _______ _____ _____    ______ ____
ROOT
ATOM      1  C   UNL     1      -7.391  12.035  21.824  0.00  0.00    +0.000 C 
ATOM      2  C   UNL     1      -6.957  13.008  22.913  0.00  0.00    +0.000 C 
ATOM      3  C   UNL     1      -7.916  14.223  22.927  0.00  0.00    +0.000 C 
ATOM      4  O   UNL     1      -7.622  15.125  24.007  0.00  0.00    +0.000 OA
ATOM      5  C   UNL     1      -6.285  15.620  23.883  0.00  0.00    +0.000 C 
ATOM      6  C   UNL     1      -5.259  14.481  23.944  0.00  0.00    +0.000 C 
ATOM      7  N   UNL     1      -5.546  13.489  22.888  0.00  0.00    +0.000 N 
ATOM      8  C   UNL     1      -4.579  13.141  21.970  0.00  0.00    +0.000 A 
ATOM      9  C   UNL     1      -3.228  13.215  22.281  0.00  0.00    +0.000 A 
ATOM     10  C   UNL     1      -2.293  12.923  21.308  0.00  0.00    +0.000 A 
ATOM     11  N   UNL     1      -2.681  12.413  20.134  0.00  0.00    +0.000 NA
ATOM     12  C   UNL     1      -3.996  12.369  19.871  0.00  0.00    +0.000 A 
ATOM     13  N   UNL     1      -4.351  11.943  18.561  0.00  0.00    +0.000 N 
ATOM     14  C   UNL     1      -5.485  12.289  17.838  0.00  0.00    +0.000 A 
ATOM     15  N   UNL     1      -6.454  13.094  18.305  0.00  0.00    +0.000 N 
ATOM     16  N   UNL     1      -5.437  11.819  16.613  0.00  0.00    +0.000 NA
ATOM     17  C   UNL     1      -4.259  11.120  16.521  0.00  0.00    +0.000 A 
ATOM     18  C   UNL     1      -3.697  10.410  15.444  0.00  0.00    +0.000 A 
ATOM     19  F   UNL     1      -4.315  10.353  14.255  0.00  0.00    +0.000 F 
ATOM     20  C   UNL     1      -2.475   9.749  15.601  0.00  0.00    +0.000 A 
ATOM     21  C   UNL     1      -1.808   9.780  16.823  0.00  0.00    +0.000 A 
ATOM     22  C   UNL     1      -2.339  10.484  17.907  0.00  0.00    +0.000 A 
ATOM     23  C   UNL     1      -3.559  11.162  17.723  0.00  0.00    +0.000 A 
ATOM     24  N   UNL     1      -4.947  12.775  20.731  0.00  0.00    +0.000 NA
ATOM     25  H   UNL     1      -6.331  13.603  19.178  0.00  0.00    +0.000 HD
ATOM     26  H   UNL     1      -7.065  13.535  17.625  0.00  0.00    +0.000 HD
ENDROOT
BRANCH  10  27
ATOM     27  C   UNL     1      -0.848  13.295  21.443  0.00  0.00    +0.000 C 
ATOM     28  C   UNL     1       0.182  12.208  21.694  0.00  0.00    +0.000 C 
ATOM     29  C   UNL     1       0.139  12.907  20.365  0.00  0.00    +0.000 C 
BRANCH  27  30
ATOM     30  S   UNL     1      -0.463  14.861  22.296  0.00  0.00    +0.000 S 
ATOM     31  C   UNL     1       1.238  15.159  21.901  0.00  0.00    +0.000 C 
ATOM     32  O   UNL     1      -1.254  15.914  21.692  0.00  0.00    +0.000 OA
ATOM     33  O   UNL     1      -0.565  14.581  23.717  0.00  0.00    +0.000 OA
ENDBRANCH  27  30
ENDBRANCH  10  27
TORSDOF 2
ENDMDL
MODEL 4
REMARK VINA RESULT:      -7.2      8.605     11.817
REMARK  Name = 
REMARK  4 active torsions:
REMARK  status: ('A' for Active; 'I' for Inactive)
REMARK    1  A    between atoms: C_1  and  C_2
REMARK    2  A    between atoms: C_10  and  C_11
REMARK    3  A    between atoms: C_11  and  S_12
REMARK    4  A    between atoms: S_12  and  C_13
REMARK                            x       y       z     vdW  Elec       q    Type
REMARK                         _______ _______ _______ _____ _____    ______ ____
ROOT
ATOM      1  C   UNL     1       6.550   7.840  17.665  0.00  0.00    +0.000 C 
ATOM      2  C   UNL     1       6.895   6.431  17.198  0.00  0.00    +0.000 C 
ATOM      3  C   UNL     1       7.117   6.438  15.667  0.00  0.00    +0.000 C 
ATOM      4  O   UNL     1       7.553   5.156  15.183  0.00  0.00    +0.000 OA
ATOM      5  C   UNL     1       6.572   4.158  15.482  0.00  0.00    +0.000 C 
ATOM      6  C   UNL     1       6.352   4.027  16.996  0.00  0.00    +0.000 C 
ATOM      7  N   UNL     1       5.954   5.333  17.560  0.00  0.00    +0.000 N 
ATOM      8  C   UNL     1       4.787   5.459  18.282  0.00  0.00    +0.000 A 
ATOM      9  C   UNL     1       4.253   4.388  18.985  0.00  0.00    +0.000 A 
ATOM     10  C   UNL     1       3.045   4.541  19.637  0.00  0.00    +0.000 A 
ATOM     11  N   UNL     1       2.482   5.751  19.733  0.00  0.00    +0.000 NA
ATOM     12  C   UNL     1       3.026   6.756  19.031  0.00  0.00    +0.000 A 
ATOM     13  N   UNL     1       2.316   7.988  19.060  0.00  0.00    +0.000 N 
ATOM     14  C   UNL     1       2.293   8.975  18.084  0.00  0.00    +0.000 A 
ATOM     15  N   UNL     1       2.985   8.907  16.934  0.00  0.00    +0.000 N 
ATOM     16  N   UNL     1       1.434   9.924  18.377  0.00  0.00    +0.000 NA
ATOM     17  C   UNL     1       0.890   9.580  19.591  0.00  0.00    +0.000 A 
ATOM     18  C   UNL     1      -0.077  10.232  20.378  0.00  0.00    +0.000 A 
ATOM     19  F   UNL     1      -0.644  11.376  19.971  0.00  0.00    +0.000 F 
ATOM     20  C   UNL     1      -0.460   9.689  21.609  0.00  0.00    +0.000 A 
ATOM     21  C   UNL     1       0.113   8.507  22.068  0.00  0.00    +0.000 A 
ATOM     22  C   UNL     1       1.069   7.834  21.303  0.00  0.00    +0.000 A 
ATOM     23  C   UNL     1       1.427   8.383  20.056  0.00  0.00    +0.000 A 
ATOM     24  N   UNL     1       4.124   6.627  18.263  0.00  0.00    +0.000 NA
ATOM     25  H   UNL     1       3.461   8.048  16.664  0.00  0.00    +0.000 HD
ATOM     26  H   UNL     1       2.677   9.494  16.166  0.00  0.00    +0.000 HD
ENDROOT
BRANCH  10  27
ATOM     27  C   UNL     1       2.240   3.376  20.124  0.00  0.00    +0.000 C 
ATOM     28  C   UNL     1       2.544   2.776  21.485  0.00  0.00    +0.000 C 
ATOM     29  C   UNL     1       1.274   3.550  21.275  0.00  0.00    +0.000 C 
BRANCH  27  30
ATOM     30  S   UNL     1       1.732   2.135  18.888  0.00  0.00    +0.000 S 
ATOM     31  C   UNL     1       2.093   2.903  17.333  0.00  0.00    +0.000 C 
ATOM     32  O   UNL     1       2.594   0.978  19.026  0.00  0.00    +0.000 OA
ATOM     33  O   UNL     1       0.292   2.005  19.016  0.00  0.00    +0.000 OA
ENDBRANCH  27  30
ENDBRANCH  10  27
TORSDOF 2
ENDMDL
MODEL 5
REMARK VINA RESULT:      -7.0      2.908      5.409
REMARK  Name = 
REMARK  4 active torsions:
REMARK  status: ('A' for Active; 'I' for Inactive)
REMARK    1  A    between atoms: C_1  and  C_2
REMARK    2  A    between atoms: C_10  and  C_11
REMARK    3  A    between atoms: C_11  and  S_12
REMARK    4  A    between atoms: S_12  and  C_13
REMARK                            x       y       z     vdW  Elec       q    Type
REMARK                         _______ _______ _______ _____ _____    ______ ____
ROOT
ATOM      1  C   UNL     1      -5.685  11.495  17.685  0.00  0.00    +0.000 C 
ATOM      2  C   UNL     1      -6.410  12.738  18.186  0.00  0.00    +0.000 C 
ATOM      3  C   UNL     1      -6.566  13.745  17.022  0.00  0.00    +0.000 C 
ATOM      4  O   UNL     1      -7.340  14.893  17.408  0.00  0.00    +0.000 OA
ATOM      5  C   UNL     1      -6.704  15.573  18.495  0.00  0.00    +0.000 C 
ATOM      6  C   UNL     1      -6.584  14.665  19.727  0.00  0.00    +0.000 C 
ATOM      7  N   UNL     1      -5.842  13.437  19.375  0.00  0.00    +0.000 N 
ATOM      8  C   UNL     1      -4.715  13.072  20.079  0.00  0.00    +0.000 A 
ATOM      9  C   UNL     1      -4.541  13.440  21.405  0.00  0.00    +0.000 A 
ATOM     10  C   UNL     1      -3.364  13.112  22.050  0.00  0.00    +0.000 A 
ATOM     11  N   UNL     1      -2.477  12.304  21.459  0.00  0.00    +0.000 NA
ATOM     12  C   UNL     1      -2.679  11.980  20.173  0.00  0.00    +0.000 A 
ATOM     13  N   UNL     1      -1.643  11.230  19.552  0.00  0.00    +0.000 N 
ATOM     14  C   UNL     1      -1.299  11.215  18.207  0.00  0.00    +0.000 A 
ATOM     15  N   UNL     1      -1.940  11.923  17.262  0.00  0.00    +0.000 N 
ATOM     16  N   UNL     1      -0.212  10.510  17.995  0.00  0.00    +0.000 NA
ATOM     17  C   UNL     1       0.166  10.019  19.221  0.00  0.00    +0.000 A 
ATOM     18  C   UNL     1       1.253   9.203  19.585  0.00  0.00    +0.000 A 
ATOM     19  F   UNL     1       2.143   8.789  18.672  0.00  0.00    +0.000 F 
ATOM     20  C   UNL     1       1.419   8.809  20.916  0.00  0.00    +0.000 A 
ATOM     21  C   UNL     1       0.511   9.214  21.890  0.00  0.00    +0.000 A 
ATOM     22  C   UNL     1      -0.573  10.031  21.559  0.00  0.00    +0.000 A 
ATOM     23  C   UNL     1      -0.712  10.436  20.217  0.00  0.00    +0.000 A 
ATOM     24  N   UNL     1      -3.740  12.392  19.453  0.00  0.00    +0.000 NA
ATOM     25  H   UNL     1      -2.636  12.620  17.518  0.00  0.00    +0.000 HD
ATOM     26  H   UNL     1      -1.448  12.098  16.392  0.00  0.00    +0.000 HD
ENDROOT
BRANCH  10  27
ATOM     27  C   UNL     1      -2.951  13.746  23.342  0.00  0.00    +0.000 C 
ATOM     28  C   UNL     1      -3.917  14.670  24.063  0.00  0.00    +0.000 C 
ATOM     29  C   UNL     1      -3.603  13.318  24.639  0.00  0.00    +0.000 C 
BRANCH  27  30
ATOM     30  S   UNL     1      -1.209  14.260  23.504  0.00  0.00    +0.000 S 
ATOM     31  C   UNL     1      -0.981  15.425  22.188  0.00  0.00    +0.000 C 
ATOM     32  O   UNL     1      -1.059  14.968  24.759  0.00  0.00    +0.000 OA
ATOM     33  O   UNL     1      -0.412  13.080  23.219  0.00  0.00    +0.000 OA
ENDBRANCH  27  30
ENDBRANCH  10  27
TORSDOF 2
ENDMDL
MODEL 6
REMARK VINA RESULT:      -7.0      2.759      5.284
REMARK  Name = 
REMARK  4 active torsions:
REMARK  status: ('A' for Active; 'I' for Inactive)
REMARK    1  A    between atoms: C_1  and  C_2
REMARK    2  A    between atoms: C_10  and  C_11
REMARK    3  A    between atoms: C_11  and  S_12
REMARK    4  A    between atoms: S_12  and  C_13
REMARK                            x       y       z     vdW  Elec       q    Type
REMARK                         _______ _______ _______ _____ _____    ______ ____
ROOT
ATOM      1  C   UNL     1      -5.748  11.241  17.834  0.00  0.00    +0.000 C 
ATOM      2  C   UNL     1      -6.430  12.546  18.224  0.00  0.00    +0.000 C 
ATOM      3  C   UNL     1      -6.647  13.411  16.959  0.00  0.00    +0.000 C 
ATOM      4  O   UNL     1      -7.386  14.609  17.249  0.00  0.00    +0.000 OA
ATOM      5  C   UNL     1      -6.680  15.402  18.209  0.00  0.00    +0.000 C 
ATOM      6  C   UNL     1      -6.496  14.645  19.531  0.00  0.00    +0.000 C 
ATOM      7  N   UNL     1      -5.787  13.372  19.286  0.00  0.00    +0.000 N 
ATOM      8  C   UNL     1      -4.623  13.075  19.962  0.00  0.00    +0.000 A 
ATOM      9  C   UNL     1      -4.368  13.595  21.223  0.00  0.00    +0.000 A 
ATOM     10  C   UNL     1      -3.158  13.327  21.833  0.00  0.00    +0.000 A 
ATOM     11  N   UNL     1      -2.314  12.440  21.292  0.00  0.00    +0.000 NA
ATOM     12  C   UNL     1      -2.596  11.969  20.068  0.00  0.00    +0.000 A 
ATOM     13  N   UNL     1      -1.605  11.135  19.482  0.00  0.00    +0.000 N 
ATOM     14  C   UNL     1      -1.342  10.954  18.131  0.00  0.00    +0.000 A 
ATOM     15  N   UNL     1      -2.032  11.556  17.146  0.00  0.00    +0.000 N 
ATOM     16  N   UNL     1      -0.275  10.212  17.942  0.00  0.00    +0.000 NA
ATOM     17  C   UNL     1       0.170   9.864  19.193  0.00  0.00    +0.000 A 
ATOM     18  C   UNL     1       1.269   9.079  19.589  0.00  0.00    +0.000 A 
ATOM     19  F   UNL     1       2.100   8.545  18.682  0.00  0.00    +0.000 F 
ATOM     20  C   UNL     1       1.511   8.843  20.946  0.00  0.00    +0.000 A 
ATOM     21  C   UNL     1       0.665   9.375  21.915  0.00  0.00    +0.000 A 
ATOM     22  C   UNL     1      -0.429  10.165  21.552  0.00  0.00    +0.000 A 
ATOM     23  C   UNL     1      -0.643  10.410  20.182  0.00  0.00    +0.000 A 
ATOM     24  N   UNL     1      -3.693  12.310  19.367  0.00  0.00    +0.000 NA
ATOM     25  H   UNL     1      -2.705  12.289  17.358  0.00  0.00    +0.000 HD
ATOM     26  H   UNL     1      -1.590  11.618  16.235  0.00  0.00    +0.000 HD
ENDROOT
BRANCH  10  27
ATOM     27  C   UNL     1      -2.663  14.102  23.014  0.00  0.00    +0.000 C 
ATOM     28  C   UNL     1      -1.189  14.053  23.376  0.00  0.00    +0.000 C 
ATOM     29  C   UNL     1      -1.779  15.313  22.811  0.00  0.00    +0.000 C 
BRANCH  27  30
ATOM     30  S   UNL     1      -3.757  14.199  24.470  0.00  0.00    +0.000 S 
ATOM     31  C   UNL     1      -4.295  12.529  24.716  0.00  0.00    +0.000 C 
ATOM     32  O   UNL     1      -2.956  14.584  25.615  0.00  0.00    +0.000 OA
ATOM     33  O   UNL     1      -4.900  14.997  24.064  0.00  0.00    +0.000 OA
ENDBRANCH  27  30
ENDBRANCH  10  27
TORSDOF 2
ENDMDL
MODEL 7
REMARK VINA RESULT:      -6.9      2.870      5.500
REMARK  Name = 
REMARK  4 active torsions:
REMARK  status: ('A' for Active; 'I' for Inactive)
REMARK    1  A    between atoms: C_1  and  C_2
REMARK    2  A    between atoms: C_10  and  C_11
REMARK    3  A    between atoms: C_11  and  S_12
REMARK    4  A    between atoms: S_12  and  C_13
REMARK                            x       y       z     vdW  Elec       q    Type
REMARK                         _______ _______ _______ _____ _____    ______ ____
ROOT
ATOM      1  C   UNL     1      -5.898  11.426  17.853  0.00  0.00    +0.000 C 
ATOM      2  C   UNL     1      -6.597  12.740  18.179  0.00  0.00    +0.000 C 
ATOM      3  C   UNL     1      -6.781  13.560  16.879  0.00  0.00    +0.000 C 
ATOM      4  O   UNL     1      -7.533  14.763  17.107  0.00  0.00    +0.000 OA
ATOM      5  C   UNL     1      -6.859  15.592  18.059  0.00  0.00    +0.000 C 
ATOM      6  C   UNL     1      -6.710  14.881  19.411  0.00  0.00    +0.000 C 
ATOM      7  N   UNL     1      -5.989  13.604  19.230  0.00  0.00    +0.000 N 
ATOM      8  C   UNL     1      -4.844  13.336  19.949  0.00  0.00    +0.000 A 
ATOM      9  C   UNL     1      -4.628  13.901  21.199  0.00  0.00    +0.000 A 
ATOM     10  C   UNL     1      -3.435  13.660  21.852  0.00  0.00    +0.000 A 
ATOM     11  N   UNL     1      -2.572  12.760  21.366  0.00  0.00    +0.000 NA
ATOM     12  C   UNL     1      -2.816  12.246  20.151  0.00  0.00    +0.000 A 
ATOM     13  N   UNL     1      -1.804  11.398  19.623  0.00  0.00    +0.000 N 
ATOM     14  C   UNL     1      -1.501  11.173  18.287  0.00  0.00    +0.000 A 
ATOM     15  N   UNL     1      -2.165  11.737  17.263  0.00  0.00    +0.000 N 
ATOM     16  N   UNL     1      -0.426  10.430  18.155  0.00  0.00    +0.000 NA
ATOM     17  C   UNL     1      -0.016  10.128  19.430  0.00  0.00    +0.000 A 
ATOM     18  C   UNL     1       1.074   9.363  19.884  0.00  0.00    +0.000 A 
ATOM     19  F   UNL     1       1.933   8.803  19.020  0.00  0.00    +0.000 F 
ATOM     20  C   UNL     1       1.277   9.174  21.255  0.00  0.00    +0.000 A 
ATOM     21  C   UNL     1       0.401   9.734  22.180  0.00  0.00    +0.000 A 
ATOM     22  C   UNL     1      -0.685  10.505  21.758  0.00  0.00    +0.000 A 
ATOM     23  C   UNL     1      -0.860  10.702  20.375  0.00  0.00    +0.000 A 
ATOM     24  N   UNL     1      -3.894  12.557  19.408  0.00  0.00    +0.000 NA
ATOM     25  H   UNL     1      -2.847  12.474  17.430  0.00  0.00    +0.000 HD
ATOM     26  H   UNL     1      -1.697  11.771  16.363  0.00  0.00    +0.000 HD
ENDROOT
BRANCH  10  27
ATOM     27  C   UNL     1      -2.979  14.478  23.021  0.00  0.00    +0.000 C 
ATOM     28  C   UNL     1      -3.440  14.106  24.419  0.00  0.00    +0.000 C 
ATOM     29  C   UNL     1      -2.007  13.893  24.022  0.00  0.00    +0.000 C 
BRANCH  27  30
ATOM     30  S   UNL     1      -2.820  16.277  22.772  0.00  0.00    +0.000 S 
ATOM     31  C   UNL     1      -2.150  16.429  21.139  0.00  0.00    +0.000 C 
ATOM     32  O   UNL     1      -4.150  16.853  22.765  0.00  0.00    +0.000 OA
ATOM     33  O   UNL     1      -1.822  16.730  23.724  0.00  0.00    +0.000 OA
ENDBRANCH  27  30
ENDBRANCH  10  27
TORSDOF 2
ENDMDL
MODEL 8
REMARK VINA RESULT:      -6.8      9.170     11.637
REMARK  Name = 
REMARK  4 active torsions:
REMARK  status: ('A' for Active; 'I' for Inactive)
REMARK    1  A    between atoms: C_1  and  C_2
REMARK    2  A    between atoms: C_10  and  C_11
REMARK    3  A    between atoms: C_11  and  S_12
REMARK    4  A    between atoms: S_12  and  C_13
REMARK                            x       y       z     vdW  Elec       q    Type
REMARK                         _______ _______ _______ _____ _____    ______ ____
ROOT
ATOM      1  C   UNL     1       4.202  15.032  17.917  0.00  0.00    +0.000 C 
ATOM      2  C   UNL     1       3.377  15.596  19.068  0.00  0.00    +0.000 C 
ATOM      3  C   UNL     1       3.045  17.080  18.782  0.00  0.00    +0.000 C 
ATOM      4  O   UNL     1       2.176  17.636  19.782  0.00  0.00    +0.000 OA
ATOM      5  C   UNL     1       2.797  17.564  21.070  0.00  0.00    +0.000 C 
ATOM      6  C   UNL     1       3.085  16.110  21.469  0.00  0.00    +0.000 C 
ATOM      7  N   UNL     1       3.933  15.467  20.445  0.00  0.00    +0.000 N 
ATOM      8  C   UNL     1       5.133  14.883  20.792  0.00  0.00    +0.000 A 
ATOM      9  C   UNL     1       5.342  14.365  22.063  0.00  0.00    +0.000 A 
ATOM     10  C   UNL     1       6.583  13.853  22.388  0.00  0.00    +0.000 A 
ATOM     11  N   UNL     1       7.517  13.702  21.442  0.00  0.00    +0.000 NA
ATOM     12  C   UNL     1       7.276  14.225  20.230  0.00  0.00    +0.000 A 
ATOM     13  N   UNL     1       8.350  14.155  19.301  0.00  0.00    +0.000 N 
ATOM     14  C   UNL     1       8.615  15.020  18.248  0.00  0.00    +0.000 A 
ATOM     15  N   UNL     1       7.847  16.078  17.936  0.00  0.00    +0.000 N 
ATOM     16  N   UNL     1       9.757  14.737  17.666  0.00  0.00    +0.000 NA
ATOM     17  C   UNL     1      10.257  13.641  18.327  0.00  0.00    +0.000 A 
ATOM     18  C   UNL     1      11.444  12.914  18.126  0.00  0.00    +0.000 A 
ATOM     19  F   UNL     1      12.320  13.268  17.174  0.00  0.00    +0.000 F 
ATOM     20  C   UNL     1      11.729  11.802  18.925  0.00  0.00    +0.000 A 
ATOM     21  C   UNL     1      10.840  11.401  19.918  0.00  0.00    +0.000 A 
ATOM     22  C   UNL     1       9.657  12.109  20.145  0.00  0.00    +0.000 A 
ATOM     23  C   UNL     1       9.398  13.239  19.346  0.00  0.00    +0.000 A 
ATOM     24  N   UNL     1       6.137  14.863  19.901  0.00  0.00    +0.000 NA
ATOM     25  H   UNL     1       7.095  16.375  18.556  0.00  0.00    +0.000 HD
ATOM     26  H   UNL     1       8.266  16.813  17.376  0.00  0.00    +0.000 HD
ENDROOT
BRANCH  10  27
ATOM     27  C   UNL     1       6.999  13.590  23.802  0.00  0.00    +0.000 C 
ATOM     28  C   UNL     1       8.182  14.344  24.385  0.00  0.00    +0.000 C 
ATOM     29  C   UNL     1       6.792  14.649  24.863  0.00  0.00    +0.000 C 
BRANCH  27  30
ATOM     30  S   UNL     1       6.872  11.875  24.408  0.00  0.00    +0.000 S 
ATOM     31  C   UNL     1       7.111  12.017  26.158  0.00  0.00    +0.000 C 
ATOM     32  O   UNL     1       5.518  11.412  24.177  0.00  0.00    +0.000 OA
ATOM     33  O   UNL     1       8.004  11.163  23.844  0.00  0.00    +0.000 OA
ENDBRANCH  27  30
ENDBRANCH  10  27
TORSDOF 2
ENDMDL
MODEL 9
REMARK VINA RESULT:      -6.7      4.386      6.902
REMARK  Name = 
REMARK  4 active torsions:
REMARK  status: ('A' for Active; 'I' for Inactive)
REMARK    1  A    between atoms: C_1  and  C_2
REMARK    2  A    between atoms: C_10  and  C_11
REMARK    3  A    between atoms: C_11  and  S_12
REMARK    4  A    between atoms: S_12  and  C_13
REMARK                            x       y       z     vdW  Elec       q    Type
REMARK                         _______ _______ _______ _____ _____    ______ ____
ROOT
ATOM      1  C   UNL     1       1.889  16.826  21.409  0.00  0.00    +0.000 C 
ATOM      2  C   UNL     1       2.806  16.249  20.337  0.00  0.00    +0.000 C 
ATOM      3  C   UNL     1       2.861  17.220  19.132  0.00  0.00    +0.000 C 
ATOM      4  O   UNL     1       3.796  16.781  18.134  0.00  0.00    +0.000 OA
ATOM      5  C   UNL     1       3.423  15.490  17.643  0.00  0.00    +0.000 C 
ATOM      6  C   UNL     1       3.425  14.444  18.765  0.00  0.00    +0.000 C 
ATOM      7  N   UNL     1       2.519  14.870  19.851  0.00  0.00    +0.000 N 
ATOM      8  C   UNL     1       1.496  14.048  20.275  0.00  0.00    +0.000 A 
ATOM      9  C   UNL     1       1.586  12.668  20.164  0.00  0.00    +0.000 A 
ATOM     10  C   UNL     1       0.509  11.887  20.537  0.00  0.00    +0.000 A 
ATOM     11  N   UNL     1      -0.540  12.442  21.156  0.00  0.00    +0.000 NA
ATOM     12  C   UNL     1      -0.590  13.780  21.233  0.00  0.00    +0.000 A 
ATOM     13  N   UNL     1      -1.785  14.325  21.779  0.00  0.00    +0.000 N 
ATOM     14  C   UNL     1      -2.351  15.563  21.508  0.00  0.00    +0.000 A 
ATOM     15  N   UNL     1      -1.813  16.465  20.670  0.00  0.00    +0.000 N 
ATOM     16  N   UNL     1      -3.522  15.695  22.087  0.00  0.00    +0.000 NA
ATOM     17  C   UNL     1      -3.733  14.531  22.784  0.00  0.00    +0.000 A 
ATOM     18  C   UNL     1      -4.817  14.127  23.586  0.00  0.00    +0.000 A 
ATOM     19  F   UNL     1      -5.885  14.920  23.755  0.00  0.00    +0.000 F 
ATOM     20  C   UNL     1      -4.793  12.882  24.222  0.00  0.00    +0.000 A 
ATOM     21  C   UNL     1      -3.698  12.036  24.075  0.00  0.00    +0.000 A 
ATOM     22  C   UNL     1      -2.611  12.407  23.279  0.00  0.00    +0.000 A 
ATOM     23  C   UNL     1      -2.663  13.655  22.628  0.00  0.00    +0.000 A 
ATOM     24  N   UNL     1       0.368  14.596  20.756  0.00  0.00    +0.000 NA
ATOM     25  H   UNL     1      -1.019  16.219  20.082  0.00  0.00    +0.000 HD
ATOM     26  H   UNL     1      -2.426  17.183  20.297  0.00  0.00    +0.000 HD
ENDROOT
BRANCH  10  27
ATOM     27  C   UNL     1       0.385  10.448  20.145  0.00  0.00    +0.000 C 
ATOM     28  C   UNL     1      -0.680  10.036  19.144  0.00  0.00    +0.000 C 
ATOM     29  C   UNL     1       0.769  10.005  18.750  0.00  0.00    +0.000 C 
BRANCH  27  30
ATOM     30  S   UNL     1       0.672   9.199  21.443  0.00  0.00    +0.000 S 
ATOM     31  C   UNL     1       1.603   7.933  20.623  0.00  0.00    +0.000 C 
ATOM     32  O   UNL     1       1.519   9.788  22.461  0.00  0.00    +0.000 OA
ATOM     33  O   UNL     1      -0.634   8.664  21.784  0.00  0.00    +0.000 OA
ENDBRANCH  27  30
ENDBRANCH  10  27
TORSDOF 2
ENDMDL
