MODEL 1
REMARK VINA RESULT:      -9.2      0.000      0.000
REMARK  Name = 
REMARK  6 active torsions:
REMARK  status: ('A' for Active; 'I' for Inactive)
REMARK    1  A    between atoms: C_2  and  C_3
REMARK    2  A    between atoms: C_8  and  N_9
REMARK    3  A    between atoms: C_11  and  C_12
REMARK    4  A    between atoms: N_16  and  C_17
REMARK    5  A    between atoms: N_24  and  C_25
REMARK    6  A    between atoms: C_25  and  C_26
REMARK                            x       y       z     vdW  Elec       q    Type
REMARK                         _______ _______ _______ _____ _____    ______ ____
ROOT
ATOM      1  N   UNL     1       4.176   5.122  18.854  0.00  0.00    +0.000 N 
ATOM      2  C   UNL     1       3.991   3.954  19.520  0.00  0.00    +0.000 A 
ATOM      3  C   UNL     1       2.865   4.141  20.309  0.00  0.00    +0.000 A 
ATOM      4  C   UNL     1       2.498   5.506  20.090  0.00  0.00    +0.000 A 
ATOM      5  N   UNL     1       1.479   6.139  20.732  0.00  0.00    +0.000 N 
ATOM      6  N   UNL     1       3.323   6.075  19.209  0.00  0.00    +0.000 NA
ATOM      7  H   UNL     1       0.877   5.570  21.326  0.00  0.00    +0.000 HD
ENDROOT
BRANCH   5   8
ATOM      8  C   UNL     1       1.217   7.530  20.825  0.00  0.00    +0.000 A 
ATOM      9  C   UNL     1       1.587   8.369  19.746  0.00  0.00    +0.000 A 
ATOM     10  C   UNL     1       1.264   9.734  19.733  0.00  0.00    +0.000 A 
ATOM     11  C   UNL     1       0.572  10.238  20.815  0.00  0.00    +0.000 A 
ATOM     12  C   UNL     1       0.195   9.445  21.891  0.00  0.00    +0.000 A 
ATOM     13  C   UNL     1       0.514   8.100  21.905  0.00  0.00    +0.000 A 
ATOM     14  C   UNL     1      -0.539  10.249  22.908  0.00  0.00    +0.000 C 
ATOM     15  N   UNL     1      -0.589  11.557  22.280  0.00  0.00    +0.000 N 
ATOM     16  C   UNL     1       0.099  11.604  21.079  0.00  0.00    +0.000 C 
ATOM     17  O   UNL     1       0.283  12.566  20.366  0.00  0.00    +0.000 OA
BRANCH  15  18
ATOM     18  C   UNL     1      -1.161  12.733  22.932  0.00  0.00    +0.000 C 
BRANCH  18  19
ATOM     19  C   UNL     1      -2.690  12.819  22.985  0.00  0.00    +0.000 C 
ATOM     20  F   UNL     1      -3.284  12.447  21.831  0.00  0.00    +0.000 F 
ATOM     21  F   UNL     1      -3.195  12.054  23.980  0.00  0.00    +0.000 F 
ATOM     22  F   UNL     1      -3.075  14.097  23.233  0.00  0.00    +0.000 F 
ENDBRANCH  18  19
ENDBRANCH  15  18
ENDBRANCH   5   8
BRANCH   1  28
ATOM     23  C   UNL     1       6.458   4.658  18.029  0.00  0.00    +0.000 C 
ATOM     24  C   UNL     1       7.419   4.837  16.847  0.00  0.00    +0.000 C 
ATOM     25  C   UNL     1       6.771   4.430  15.529  0.00  0.00    +0.000 C 
ATOM     26  C   UNL     1       5.501   5.231  15.275  0.00  0.00    +0.000 C 
ATOM     27  C   UNL     1       4.507   5.070  16.419  0.00  0.00    +0.000 C 
ATOM     28  C   UNL     1       5.130   5.408  17.786  0.00  0.00    +0.000 C 
BRANCH  23  30
ATOM     29  N   UNL     1       7.625   5.566  20.213  0.00  0.00    +0.000 NA
ATOM     30  C   UNL     1       7.102   5.156  19.263  0.00  0.00    +0.000 C 
ENDBRANCH  23  30
ENDBRANCH   1  28
BRANCH   3  31
ATOM     31  C   UNL     1       2.221   3.167  21.168  0.00  0.00    +0.000 C 
ATOM     32  N   UNL     1       0.897   2.934  20.920  0.00  0.00    +0.000 N 
ATOM     33  O   UNL     1       2.808   2.570  22.064  0.00  0.00    +0.000 OA
ATOM     34  H   UNL     1       0.412   3.312  20.121  0.00  0.00    +0.000 HD
ATOM     35  H   UNL     1       0.423   2.250  21.492  0.00  0.00    +0.000 HD
ENDBRANCH   3  31
TORSDOF 6
ENDMDL
MODEL 2
REMARK VINA RESULT:      -9.2      1.850      2.535
REMARK  Name = 
REMARK  6 active torsions:
REMARK  status: ('A' for Active; 'I' for Inactive)
REMARK    1  A    between atoms: C_2  and  C_3
REMARK    2  A    between atoms: C_8  and  N_9
REMARK    3  A    between atoms: C_11  and  C_12
REMARK    4  A    between atoms: N_16  and  C_17
REMARK    5  A    between atoms: N_24  and  C_25
REMARK    6  A    between atoms: C_25  and  C_26
REMARK                            x       y       z     vdW  Elec       q    Type
REMARK                         _______ _______ _______ _____ _____    ______ ____
ROOT
ATOM      1  N   UNL     1       4.148   5.196  18.833  0.00  0.00    +0.000 N 
ATOM      2  C   UNL     1       3.915   4.046  19.513  0.00  0.00    +0.000 A 
ATOM      3  C   UNL     1       2.790   4.285  20.290  0.00  0.00    +0.000 A 
ATOM      4  C   UNL     1       2.476   5.660  20.049  0.00  0.00    +0.000 A 
ATOM      5  N   UNL     1       1.476   6.339  20.672  0.00  0.00    +0.000 N 
ATOM      6  N   UNL     1       3.329   6.185  19.167  0.00  0.00    +0.000 NA
ATOM      7  H   UNL     1       0.849   5.801  21.269  0.00  0.00    +0.000 HD
ENDROOT
BRANCH   5   8
ATOM      8  C   UNL     1       1.266   7.740  20.744  0.00  0.00    +0.000 A 
ATOM      9  C   UNL     1       1.065   8.336  22.012  0.00  0.00    +0.000 A 
ATOM     10  C   UNL     1       0.954   9.727  22.161  0.00  0.00    +0.000 A 
ATOM     11  C   UNL     1       1.044  10.501  21.022  0.00  0.00    +0.000 A 
ATOM     12  C   UNL     1       1.239   9.950  19.763  0.00  0.00    +0.000 A 
ATOM     13  C   UNL     1       1.347   8.579  19.616  0.00  0.00    +0.000 A 
ATOM     14  C   UNL     1       1.301  11.016  18.724  0.00  0.00    +0.000 C 
ATOM     15  N   UNL     1       1.177  12.223  19.521  0.00  0.00    +0.000 N 
ATOM     16  C   UNL     1       0.970  11.960  20.865  0.00  0.00    +0.000 C 
ATOM     17  O   UNL     1       0.770  12.758  21.755  0.00  0.00    +0.000 OA
BRANCH  15  18
ATOM     18  C   UNL     1       1.113  13.561  18.938  0.00  0.00    +0.000 C 
BRANCH  18  19
ATOM     19  C   UNL     1      -0.276  14.080  18.549  0.00  0.00    +0.000 C 
ATOM     20  F   UNL     1      -0.269  15.370  18.152  0.00  0.00    +0.000 F 
ATOM     21  F   UNL     1      -0.821  13.340  17.557  0.00  0.00    +0.000 F 
ATOM     22  F   UNL     1      -1.116  13.998  19.612  0.00  0.00    +0.000 F 
ENDBRANCH  18  19
ENDBRANCH  15  18
ENDBRANCH   5   8
BRANCH   1  28
ATOM     23  C   UNL     1       6.426   4.651  18.044  0.00  0.00    +0.000 C 
ATOM     24  C   UNL     1       7.403   4.777  16.869  0.00  0.00    +0.000 C 
ATOM     25  C   UNL     1       6.757   4.358  15.553  0.00  0.00    +0.000 C 
ATOM     26  C   UNL     1       5.513   5.187  15.267  0.00  0.00    +0.000 C 
ATOM     27  C   UNL     1       4.503   5.080  16.403  0.00  0.00    +0.000 C 
ATOM     28  C   UNL     1       5.122   5.431  17.769  0.00  0.00    +0.000 C 
BRANCH  23  30
ATOM     29  N   UNL     1       7.586   5.528  20.244  0.00  0.00    +0.000 NA
ATOM     30  C   UNL     1       7.070   5.159  19.273  0.00  0.00    +0.000 C 
ENDBRANCH  23  30
ENDBRANCH   1  28
BRANCH   3  31
ATOM     31  C   UNL     1       2.104   3.348  21.157  0.00  0.00    +0.000 C 
ATOM     32  N   UNL     1       0.851   2.973  20.759  0.00  0.00    +0.000 N 
ATOM     33  O   UNL     1       2.598   2.900  22.186  0.00  0.00    +0.000 OA
ATOM     34  H   UNL     1       0.460   3.223  19.863  0.00  0.00    +0.000 HD
ATOM     35  H   UNL     1       0.352   2.309  21.333  0.00  0.00    +0.000 HD
ENDBRANCH   3  31
TORSDOF 6
ENDMDL
MODEL 3
REMARK VINA RESULT:      -9.1      2.627      3.200
REMARK  Name = 
REMARK  6 active torsions:
REMARK  status: ('A' for Active; 'I' for Inactive)
REMARK    1  A    between atoms: C_2  and  C_3
REMARK    2  A    between atoms: C_8  and  N_9
REMARK    3  A    between atoms: C_11  and  C_12
REMARK    4  A    between atoms: N_16  and  C_17
REMARK    5  A    between atoms: N_24  and  C_25
REMARK    6  A    between atoms: C_25  and  C_26
REMARK                            x       y       z     vdW  Elec       q    Type
REMARK                         _______ _______ _______ _____ _____    ______ ____
ROOT
ATOM      1  N   UNL     1       4.142   5.248  18.831  0.00  0.00    +0.000 N 
ATOM      2  C   UNL     1       3.890   4.118  19.538  0.00  0.00    +0.000 A 
ATOM      3  C   UNL     1       2.766   4.391  20.304  0.00  0.00    +0.000 A 
ATOM      4  C   UNL     1       2.471   5.763  20.028  0.00  0.00    +0.000 A 
ATOM      5  N   UNL     1       1.478   6.470  20.631  0.00  0.00    +0.000 N 
ATOM      6  N   UNL     1       3.334   6.256  19.137  0.00  0.00    +0.000 NA
ATOM      7  H   UNL     1       0.842   5.955  21.239  0.00  0.00    +0.000 HD
ENDROOT
BRANCH   5   8
ATOM      8  C   UNL     1       1.285   7.875  20.667  0.00  0.00    +0.000 A 
ATOM      9  C   UNL     1       1.078   8.504  21.919  0.00  0.00    +0.000 A 
ATOM     10  C   UNL     1       0.984   9.900  22.033  0.00  0.00    +0.000 A 
ATOM     11  C   UNL     1       1.098  10.645  20.877  0.00  0.00    +0.000 A 
ATOM     12  C   UNL     1       1.299  10.061  19.634  0.00  0.00    +0.000 A 
ATOM     13  C   UNL     1       1.391   8.686  19.520  0.00  0.00    +0.000 A 
ATOM     14  C   UNL     1       1.387  11.102  18.570  0.00  0.00    +0.000 C 
ATOM     15  N   UNL     1       1.271  12.329  19.338  0.00  0.00    +0.000 N 
ATOM     16  C   UNL     1       1.045  12.101  20.685  0.00  0.00    +0.000 C 
ATOM     17  O   UNL     1       0.846  12.922  21.554  0.00  0.00    +0.000 OA
BRANCH  15  18
ATOM     18  C   UNL     1       1.231  13.653  18.723  0.00  0.00    +0.000 C 
BRANCH  18  19
ATOM     19  C   UNL     1       2.551  14.429  18.663  0.00  0.00    +0.000 C 
ATOM     20  F   UNL     1       2.512  15.483  17.820  0.00  0.00    +0.000 F 
ATOM     21  F   UNL     1       2.914  14.884  19.884  0.00  0.00    +0.000 F 
ATOM     22  F   UNL     1       3.548  13.614  18.231  0.00  0.00    +0.000 F 
ENDBRANCH  18  19
ENDBRANCH  15  18
ENDBRANCH   5   8
BRANCH   1  28
ATOM     23  C   UNL     1       6.409   4.642  18.057  0.00  0.00    +0.000 C 
ATOM     24  C   UNL     1       7.391   4.727  16.882  0.00  0.00    +0.000 C 
ATOM     25  C   UNL     1       6.740   4.297  15.573  0.00  0.00    +0.000 C 
ATOM     26  C   UNL     1       5.513   5.147  15.268  0.00  0.00    +0.000 C 
ATOM     27  C   UNL     1       4.499   5.081  16.404  0.00  0.00    +0.000 C 
ATOM     28  C   UNL     1       5.122   5.444  17.765  0.00  0.00    +0.000 C 
BRANCH  23  30
ATOM     29  N   UNL     1       7.559   5.542  20.253  0.00  0.00    +0.000 NA
ATOM     30  C   UNL     1       7.061   5.159  19.278  0.00  0.00    +0.000 C 
ENDBRANCH  23  30
ENDBRANCH   1  28
BRANCH   3  31
ATOM     31  C   UNL     1       2.065   3.485  21.191  0.00  0.00    +0.000 C 
ATOM     32  N   UNL     1       0.821   3.091  20.783  0.00  0.00    +0.000 N 
ATOM     33  O   UNL     1       2.539   3.076  22.246  0.00  0.00    +0.000 OA
ATOM     34  H   UNL     1       0.447   3.307  19.871  0.00  0.00    +0.000 HD
ATOM     35  H   UNL     1       0.312   2.448  21.371  0.00  0.00    +0.000 HD
ENDBRANCH   3  31
TORSDOF 6
ENDMDL
MODEL 4
REMARK VINA RESULT:      -8.7      4.143      9.553
REMARK  Name = 
REMARK  6 active torsions:
REMARK  status: ('A' for Active; 'I' for Inactive)
REMARK    1  A    between atoms: C_2  and  C_3
REMARK    2  A    between atoms: C_8  and  N_9
REMARK    3  A    between atoms: C_11  and  C_12
REMARK    4  A    between atoms: N_16  and  C_17
REMARK    5  A    between atoms: N_24  and  C_25
REMARK    6  A    between atoms: C_25  and  C_26
REMARK                            x       y       z     vdW  Elec       q    Type
REMARK                         _______ _______ _______ _____ _____    ______ ____
ROOT
ATOM      1  N   UNL     1      -0.916  12.259  20.393  0.00  0.00    +0.000 N 
ATOM      2  C   UNL     1      -0.324  13.434  20.062  0.00  0.00    +0.000 A 
ATOM      3  C   UNL     1       0.706  13.109  19.192  0.00  0.00    +0.000 A 
ATOM      4  C   UNL     1       0.687  11.679  19.134  0.00  0.00    +0.000 A 
ATOM      5  N   UNL     1       1.587  10.928  18.446  0.00  0.00    +0.000 N 
ATOM      6  N   UNL     1      -0.305  11.196  19.885  0.00  0.00    +0.000 NA
ATOM      7  H   UNL     1       2.251  11.423  17.851  0.00  0.00    +0.000 HD
ENDROOT
BRANCH   5   8
ATOM      8  C   UNL     1       1.851   9.538  18.555  0.00  0.00    +0.000 A 
ATOM      9  C   UNL     1       2.516   8.883  17.491  0.00  0.00    +0.000 A 
ATOM     10  C   UNL     1       2.896   7.535  17.581  0.00  0.00    +0.000 A 
ATOM     11  C   UNL     1       2.596   6.862  18.748  0.00  0.00    +0.000 A 
ATOM     12  C   UNL     1       1.943   7.473  19.810  0.00  0.00    +0.000 A 
ATOM     13  C   UNL     1       1.567   8.801  19.722  0.00  0.00    +0.000 A 
ATOM     14  C   UNL     1       1.754   6.514  20.935  0.00  0.00    +0.000 C 
ATOM     15  N   UNL     1       2.409   5.322  20.429  0.00  0.00    +0.000 N 
ATOM     16  C   UNL     1       2.866   5.469  19.130  0.00  0.00    +0.000 C 
ATOM     17  O   UNL     1       3.393   4.633  18.428  0.00  0.00    +0.000 OA
BRANCH  15  18
ATOM     18  C   UNL     1       2.432   4.054  21.156  0.00  0.00    +0.000 C 
BRANCH  18  19
ATOM     19  C   UNL     1       1.305   3.062  20.851  0.00  0.00    +0.000 C 
ATOM     20  F   UNL     1       1.696   2.041  20.057  0.00  0.00    +0.000 F 
ATOM     21  F   UNL     1       0.789   2.535  21.984  0.00  0.00    +0.000 F 
ATOM     22  F   UNL     1       0.290   3.695  20.209  0.00  0.00    +0.000 F 
ENDBRANCH  18  19
ENDBRANCH  15  18
ENDBRANCH   5   8
BRANCH   1  28
ATOM     23  C   UNL     1      -1.852  12.133  22.677  0.00  0.00    +0.000 C 
ATOM     24  C   UNL     1      -3.149  12.058  23.491  0.00  0.00    +0.000 C 
ATOM     25  C   UNL     1      -4.154  13.115  23.048  0.00  0.00    +0.000 C 
ATOM     26  C   UNL     1      -4.478  12.974  21.567  0.00  0.00    +0.000 C 
ATOM     27  C   UNL     1      -3.218  13.059  20.714  0.00  0.00    +0.000 C 
ATOM     28  C   UNL     1      -2.141  12.053  21.161  0.00  0.00    +0.000 C 
BRANCH  23  30
ATOM     29  N   UNL     1      -0.278  10.146  23.403  0.00  0.00    +0.000 NA
ATOM     30  C   UNL     1      -0.956  11.030  23.080  0.00  0.00    +0.000 C 
ENDBRANCH  23  30
ENDBRANCH   1  28
BRANCH   3  31
ATOM     31  C   UNL     1       1.603  14.020  18.510  0.00  0.00    +0.000 C 
ATOM     32  N   UNL     1       1.332  15.352  18.663  0.00  0.00    +0.000 N 
ATOM     33  O   UNL     1       2.558  13.646  17.837  0.00  0.00    +0.000 OA
ATOM     34  H   UNL     1       0.635  15.702  19.302  0.00  0.00    +0.000 HD
ATOM     35  H   UNL     1       1.948  16.014  18.213  0.00  0.00    +0.000 HD
ENDBRANCH   3  31
TORSDOF 6
ENDMDL
MODEL 5
REMARK VINA RESULT:      -8.7      1.677      2.197
REMARK  Name = 
REMARK  6 active torsions:
REMARK  status: ('A' for Active; 'I' for Inactive)
REMARK    1  A    between atoms: C_2  and  C_3
REMARK    2  A    between atoms: C_8  and  N_9
REMARK    3  A    between atoms: C_11  and  C_12
REMARK    4  A    between atoms: N_16  and  C_17
REMARK    5  A    between atoms: N_24  and  C_25
REMARK    6  A    between atoms: C_25  and  C_26
REMARK                            x       y       z     vdW  Elec       q    Type
REMARK                         _______ _______ _______ _____ _____    ______ ____
ROOT
ATOM      1  N   UNL     1       4.774   4.717  16.942  0.00  0.00    +0.000 N 
ATOM      2  C   UNL     1       4.990   3.639  17.736  0.00  0.00    +0.000 A 
ATOM      3  C   UNL     1       4.144   3.793  18.825  0.00  0.00    +0.000 A 
ATOM      4  C   UNL     1       3.515   5.060  18.611  0.00  0.00    +0.000 A 
ATOM      5  N   UNL     1       2.653   5.645  19.485  0.00  0.00    +0.000 N 
ATOM      6  N   UNL     1       3.929   5.599  17.462  0.00  0.00    +0.000 NA
ATOM      7  H   UNL     1       2.361   5.094  20.291  0.00  0.00    +0.000 HD
ENDROOT
BRANCH   5   8
ATOM      8  C   UNL     1       2.214   6.994  19.529  0.00  0.00    +0.000 A 
ATOM      9  C   UNL     1       2.101   7.715  18.317  0.00  0.00    +0.000 A 
ATOM     10  C   UNL     1       1.575   9.016  18.282  0.00  0.00    +0.000 A 
ATOM     11  C   UNL     1       1.172   9.575  19.477  0.00  0.00    +0.000 A 
ATOM     12  C   UNL     1       1.269   8.896  20.685  0.00  0.00    +0.000 A 
ATOM     13  C   UNL     1       1.788   7.615  20.720  0.00  0.00    +0.000 A 
ATOM     14  C   UNL     1       0.758   9.736  21.805  0.00  0.00    +0.000 C 
ATOM     15  N   UNL     1       0.314  10.930  21.109  0.00  0.00    +0.000 N 
ATOM     16  C   UNL     1       0.589  10.896  19.752  0.00  0.00    +0.000 C 
ATOM     17  O   UNL     1       0.393  11.766  18.932  0.00  0.00    +0.000 OA
BRANCH  15  18
ATOM     18  C   UNL     1      -0.215  12.105  21.798  0.00  0.00    +0.000 C 
BRANCH  18  19
ATOM     19  C   UNL     1      -1.478  11.902  22.642  0.00  0.00    +0.000 C 
ATOM     20  F   UNL     1      -1.497  10.720  23.296  0.00  0.00    +0.000 F 
ATOM     21  F   UNL     1      -1.628  12.887  23.556  0.00  0.00    +0.000 F 
ATOM     22  F   UNL     1      -2.577  11.929  21.846  0.00  0.00    +0.000 F 
ENDBRANCH  18  19
ENDBRANCH  15  18
ENDBRANCH   5   8
BRANCH   1  28
ATOM     23  C   UNL     1       6.836   5.116  15.639  0.00  0.00    +0.000 C 
ATOM     24  C   UNL     1       7.413   5.240  14.224  0.00  0.00    +0.000 C 
ATOM     25  C   UNL     1       6.977   4.082  13.334  0.00  0.00    +0.000 C 
ATOM     26  C   UNL     1       5.458   3.997  13.255  0.00  0.00    +0.000 C 
ATOM     27  C   UNL     1       4.839   3.856  14.640  0.00  0.00    +0.000 C 
ATOM     28  C   UNL     1       5.299   4.968  15.602  0.00  0.00    +0.000 C 
BRANCH  23  30
ATOM     29  N   UNL     1       7.473   7.250  17.050  0.00  0.00    +0.000 NA
ATOM     30  C   UNL     1       7.210   6.309  16.427  0.00  0.00    +0.000 C 
ENDBRANCH  23  30
ENDBRANCH   1  28
BRANCH   3  31
ATOM     31  C   UNL     1       3.958   2.876  19.931  0.00  0.00    +0.000 C 
ATOM     32  N   UNL     1       4.887   1.879  20.045  0.00  0.00    +0.000 N 
ATOM     33  O   UNL     1       3.036   2.971  20.734  0.00  0.00    +0.000 OA
ATOM     34  H   UNL     1       5.722   1.839  19.482  0.00  0.00    +0.000 HD
ATOM     35  H   UNL     1       4.794   1.232  20.815  0.00  0.00    +0.000 HD
ENDBRANCH   3  31
TORSDOF 6
ENDMDL
MODEL 6
REMARK VINA RESULT:      -8.7      5.975      9.799
REMARK  Name = 
REMARK  6 active torsions:
REMARK  status: ('A' for Active; 'I' for Inactive)
REMARK    1  A    between atoms: C_2  and  C_3
REMARK    2  A    between atoms: C_8  and  N_9
REMARK    3  A    between atoms: C_11  and  C_12
REMARK    4  A    between atoms: N_16  and  C_17
REMARK    5  A    between atoms: N_24  and  C_25
REMARK    6  A    between atoms: C_25  and  C_26
REMARK                            x       y       z     vdW  Elec       q    Type
REMARK                         _______ _______ _______ _____ _____    ______ ____
ROOT
ATOM      1  N   UNL     1       1.958   6.997  20.310  0.00  0.00    +0.000 N 
ATOM      2  C   UNL     1       1.352   6.010  21.018  0.00  0.00    +0.000 A 
ATOM      3  C   UNL     1       2.054   4.849  20.730  0.00  0.00    +0.000 A 
ATOM      4  C   UNL     1       3.028   5.252  19.762  0.00  0.00    +0.000 A 
ATOM      5  N   UNL     1       3.892   4.403  19.144  0.00  0.00    +0.000 N 
ATOM      6  N   UNL     1       2.933   6.562  19.523  0.00  0.00    +0.000 NA
ATOM      7  H   UNL     1       3.913   3.438  19.473  0.00  0.00    +0.000 HD
ENDROOT
BRANCH   5   8
ATOM      8  C   UNL     1       4.673   4.623  17.980  0.00  0.00    +0.000 A 
ATOM      9  C   UNL     1       5.843   5.412  18.082  0.00  0.00    +0.000 A 
ATOM     10  C   UNL     1       6.712   5.582  16.993  0.00  0.00    +0.000 A 
ATOM     11  C   UNL     1       6.384   4.954  15.809  0.00  0.00    +0.000 A 
ATOM     12  C   UNL     1       5.243   4.174  15.674  0.00  0.00    +0.000 A 
ATOM     13  C   UNL     1       4.386   4.007  16.746  0.00  0.00    +0.000 A 
ATOM     14  C   UNL     1       5.144   3.619  14.294  0.00  0.00    +0.000 C 
ATOM     15  N   UNL     1       6.363   4.114  13.681  0.00  0.00    +0.000 N 
ATOM     16  C   UNL     1       7.088   4.944  14.519  0.00  0.00    +0.000 C 
ATOM     17  O   UNL     1       8.107   5.550  14.265  0.00  0.00    +0.000 OA
BRANCH  15  18
ATOM     18  C   UNL     1       6.698   3.890  12.277  0.00  0.00    +0.000 C 
BRANCH  18  19
ATOM     19  C   UNL     1       6.174   2.599  11.638  0.00  0.00    +0.000 C 
ATOM     20  F   UNL     1       4.981   2.755  11.025  0.00  0.00    +0.000 F 
ATOM     21  F   UNL     1       7.047   2.104  10.733  0.00  0.00    +0.000 F 
ATOM     22  F   UNL     1       6.006   1.645  12.590  0.00  0.00    +0.000 F 
ENDBRANCH  18  19
ENDBRANCH  15  18
ENDBRANCH   5   8
BRANCH   1  28
ATOM     23  C   UNL     1       1.061   8.929  19.058  0.00  0.00    +0.000 C 
ATOM     24  C   UNL     1       0.663  10.406  19.161  0.00  0.00    +0.000 C 
ATOM     25  C   UNL     1      -0.235  10.665  20.365  0.00  0.00    +0.000 C 
ATOM     26  C   UNL     1       0.447  10.235  21.657  0.00  0.00    +0.000 C 
ATOM     27  C   UNL     1       0.848   8.766  21.608  0.00  0.00    +0.000 C 
ATOM     28  C   UNL     1       1.705   8.434  20.372  0.00  0.00    +0.000 C 
BRANCH  23  30
ATOM     29  N   UNL     1       2.764   8.635  17.067  0.00  0.00    +0.000 NA
ATOM     30  C   UNL     1       2.004   8.753  17.934  0.00  0.00    +0.000 C 
ENDBRANCH  23  30
ENDBRANCH   1  28
BRANCH   3  31
ATOM     31  C   UNL     1       1.834   3.527  21.282  0.00  0.00    +0.000 C 
ATOM     32  N   UNL     1       0.762   2.842  20.783  0.00  0.00    +0.000 N 
ATOM     33  O   UNL     1       2.556   3.029  22.140  0.00  0.00    +0.000 OA
ATOM     34  H   UNL     1       0.220   3.165  19.997  0.00  0.00    +0.000 HD
ATOM     35  H   UNL     1       0.590   1.911  21.136  0.00  0.00    +0.000 HD
ENDBRANCH   3  31
TORSDOF 6
ENDMDL
MODEL 7
REMARK VINA RESULT:      -8.6      4.583      9.855
REMARK  Name = 
REMARK  6 active torsions:
REMARK  status: ('A' for Active; 'I' for Inactive)
REMARK    1  A    between atoms: C_2  and  C_3
REMARK    2  A    between atoms: C_8  and  N_9
REMARK    3  A    between atoms: C_11  and  C_12
REMARK    4  A    between atoms: N_16  and  C_17
REMARK    5  A    between atoms: N_24  and  C_25
REMARK    6  A    between atoms: C_25  and  C_26
REMARK                            x       y       z     vdW  Elec       q    Type
REMARK                         _______ _______ _______ _____ _____    ______ ____
ROOT
ATOM      1  N   UNL     1      -2.277  11.873  19.466  0.00  0.00    +0.000 N 
ATOM      2  C   UNL     1      -1.871  12.944  20.193  0.00  0.00    +0.000 A 
ATOM      3  C   UNL     1      -0.496  12.818  20.322  0.00  0.00    +0.000 A 
ATOM      4  C   UNL     1      -0.191  11.571  19.689  0.00  0.00    +0.000 A 
ATOM      5  N   UNL     1       1.048  11.014  19.649  0.00  0.00    +0.000 N 
ATOM      6  N   UNL     1      -1.299  11.019  19.190  0.00  0.00    +0.000 NA
ATOM      7  H   UNL     1       1.823  11.575  20.002  0.00  0.00    +0.000 HD
ENDROOT
BRANCH   5   8
ATOM      8  C   UNL     1       1.412   9.680  19.330  0.00  0.00    +0.000 A 
ATOM      9  C   UNL     1       1.939   9.405  18.045  0.00  0.00    +0.000 A 
ATOM     10  C   UNL     1       2.412   8.129  17.703  0.00  0.00    +0.000 A 
ATOM     11  C   UNL     1       2.343   7.142  18.665  0.00  0.00    +0.000 A 
ATOM     12  C   UNL     1       1.832   7.377  19.934  0.00  0.00    +0.000 A 
ATOM     13  C   UNL     1       1.364   8.634  20.272  0.00  0.00    +0.000 A 
ATOM     14  C   UNL     1       1.884   6.138  20.762  0.00  0.00    +0.000 C 
ATOM     15  N   UNL     1       2.524   5.199  19.859  0.00  0.00    +0.000 N 
ATOM     16  C   UNL     1       2.758   5.734  18.603  0.00  0.00    +0.000 C 
ATOM     17  O   UNL     1       3.217   5.174  17.631  0.00  0.00    +0.000 OA
BRANCH  15  18
ATOM     18  C   UNL     1       2.741   3.793  20.193  0.00  0.00    +0.000 C 
BRANCH  18  19
ATOM     19  C   UNL     1       1.492   2.921  20.362  0.00  0.00    +0.000 C 
ATOM     20  F   UNL     1       1.155   2.720  21.654  0.00  0.00    +0.000 F 
ATOM     21  F   UNL     1       0.424   3.458  19.730  0.00  0.00    +0.000 F 
ATOM     22  F   UNL     1       1.703   1.698  19.814  0.00  0.00    +0.000 F 
ENDBRANCH  18  19
ENDBRANCH  15  18
ENDBRANCH   5   8
BRANCH   1  28
ATOM     23  C   UNL     1      -4.620  12.659  19.420  0.00  0.00    +0.000 C 
ATOM     24  C   UNL     1      -5.985  12.473  18.749  0.00  0.00    +0.000 C 
ATOM     25  C   UNL     1      -5.869  12.472  17.229  0.00  0.00    +0.000 C 
ATOM     26  C   UNL     1      -4.919  11.380  16.754  0.00  0.00    +0.000 C 
ATOM     27  C   UNL     1      -3.541  11.534  17.385  0.00  0.00    +0.000 C 
ATOM     28  C   UNL     1      -3.606  11.605  18.922  0.00  0.00    +0.000 C 
BRANCH  23  30
ATOM     29  N   UNL     1      -4.902  12.443  22.034  0.00  0.00    +0.000 NA
ATOM     30  C   UNL     1      -4.777  12.556  20.886  0.00  0.00    +0.000 C 
ENDBRANCH  23  30
ENDBRANCH   1  28
BRANCH   3  31
ATOM     31  C   UNL     1       0.417  13.741  20.966  0.00  0.00    +0.000 C 
ATOM     32  N   UNL     1       0.049  15.058  20.944  0.00  0.00    +0.000 N 
ATOM     33  O   UNL     1       1.457  13.387  21.510  0.00  0.00    +0.000 OA
ATOM     34  H   UNL     1      -0.851  15.373  20.616  0.00  0.00    +0.000 HD
ATOM     35  H   UNL     1       0.656  15.725  21.398  0.00  0.00    +0.000 HD
ENDBRANCH   3  31
TORSDOF 6
ENDMDL
MODEL 8
REMARK VINA RESULT:      -8.5      5.260      9.627
REMARK  Name = 
REMARK  6 active torsions:
REMARK  status: ('A' for Active; 'I' for Inactive)
REMARK    1  A    between atoms: C_2  and  C_3
REMARK    2  A    between atoms: C_8  and  N_9
REMARK    3  A    between atoms: C_11  and  C_12
REMARK    4  A    between atoms: N_16  and  C_17
REMARK    5  A    between atoms: N_24  and  C_25
REMARK    6  A    between atoms: C_25  and  C_26
REMARK                            x       y       z     vdW  Elec       q    Type
REMARK                         _______ _______ _______ _____ _____    ______ ____
ROOT
ATOM      1  N   UNL     1      -1.809  10.533  18.773  0.00  0.00    +0.000 N 
ATOM      2  C   UNL     1      -1.747  11.381  19.830  0.00  0.00    +0.000 A 
ATOM      3  C   UNL     1      -0.461  11.263  20.338  0.00  0.00    +0.000 A 
ATOM      4  C   UNL     1       0.145  10.240  19.541  0.00  0.00    +0.000 A 
ATOM      5  N   UNL     1       1.396   9.749  19.746  0.00  0.00    +0.000 N 
ATOM      6  N   UNL     1      -0.707   9.812  18.607  0.00  0.00    +0.000 NA
ATOM      7  H   UNL     1       1.971  10.215  20.446  0.00  0.00    +0.000 HD
ENDROOT
BRANCH   5   8
ATOM      8  C   UNL     1       1.977   8.560  19.234  0.00  0.00    +0.000 A 
ATOM      9  C   UNL     1       2.600   8.596  17.964  0.00  0.00    +0.000 A 
ATOM     10  C   UNL     1       3.281   7.484  17.447  0.00  0.00    +0.000 A 
ATOM     11  C   UNL     1       3.322   6.343  18.222  0.00  0.00    +0.000 A 
ATOM     12  C   UNL     1       2.720   6.271  19.472  0.00  0.00    +0.000 A 
ATOM     13  C   UNL     1       2.048   7.367  19.980  0.00  0.00    +0.000 A 
ATOM     14  C   UNL     1       2.926   4.926  20.080  0.00  0.00    +0.000 C 
ATOM     15  N   UNL     1       3.746   4.265  19.081  0.00  0.00    +0.000 N 
ATOM     16  C   UNL     1       3.953   5.043  17.954  0.00  0.00    +0.000 C 
ATOM     17  O   UNL     1       4.539   4.737  16.938  0.00  0.00    +0.000 OA
BRANCH  15  18
ATOM     18  C   UNL     1       4.163   2.869  19.189  0.00  0.00    +0.000 C 
BRANCH  18  19
ATOM     19  C   UNL     1       3.213   1.816  18.607  0.00  0.00    +0.000 C 
ATOM     20  F   UNL     1       2.719   2.157  17.397  0.00  0.00    +0.000 F 
ATOM     21  F   UNL     1       3.820   0.614  18.487  0.00  0.00    +0.000 F 
ATOM     22  F   UNL     1       2.150   1.643  19.433  0.00  0.00    +0.000 F 
ENDBRANCH  18  19
ENDBRANCH  15  18
ENDBRANCH   5   8
BRANCH   1  28
ATOM     23  C   UNL     1      -3.686  11.700  17.669  0.00  0.00    +0.000 C 
ATOM     24  C   UNL     1      -4.732  11.602  16.552  0.00  0.00    +0.000 C 
ATOM     25  C   UNL     1      -4.104  11.184  15.227  0.00  0.00    +0.000 C 
ATOM     26  C   UNL     1      -3.382   9.850  15.362  0.00  0.00    +0.000 C 
ATOM     27  C   UNL     1      -2.319   9.904  16.452  0.00  0.00    +0.000 C 
ATOM     28  C   UNL     1      -2.888  10.384  17.801  0.00  0.00    +0.000 C 
BRANCH  23  30
ATOM     29  N   UNL     1      -4.918  12.259  19.932  0.00  0.00    +0.000 NA
ATOM     30  C   UNL     1      -4.361  12.013  18.946  0.00  0.00    +0.000 C 
ENDBRANCH  23  30
ENDBRANCH   1  28
BRANCH   3  31
ATOM     31  C   UNL     1       0.123  12.005  21.438  0.00  0.00    +0.000 C 
ATOM     32  N   UNL     1      -0.709  12.268  22.491  0.00  0.00    +0.000 N 
ATOM     33  O   UNL     1       1.291  12.379  21.451  0.00  0.00    +0.000 OA
ATOM     34  H   UNL     1      -1.635  11.875  22.571  0.00  0.00    +0.000 HD
ATOM     35  H   UNL     1      -0.329  12.770  23.280  0.00  0.00    +0.000 HD
ENDBRANCH   3  31
TORSDOF 6
ENDMDL
MODEL 9
REMARK VINA RESULT:      -8.4      5.303      9.452
REMARK  Name = 
REMARK  6 active torsions:
REMARK  status: ('A' for Active; 'I' for Inactive)
REMARK    1  A    between atoms: C_2  and  C_3
REMARK    2  A    between atoms: C_8  and  N_9
REMARK    3  A    between atoms: C_11  and  C_12
REMARK    4  A    between atoms: N_16  and  C_17
REMARK    5  A    between atoms: N_24  and  C_25
REMARK    6  A    between atoms: C_25  and  C_26
REMARK                            x       y       z     vdW  Elec       q    Type
REMARK                         _______ _______ _______ _____ _____    ______ ____
ROOT
ATOM      1  N   UNL     1       1.396  13.269  18.876  0.00  0.00    +0.000 N 
ATOM      2  C   UNL     1       0.131  13.507  18.445  0.00  0.00    +0.000 A 
ATOM      3  C   UNL     1      -0.514  12.279  18.464  0.00  0.00    +0.000 A 
ATOM      4  C   UNL     1       0.500  11.348  18.855  0.00  0.00    +0.000 A 
ATOM      5  N   UNL     1       0.319  10.003  18.930  0.00  0.00    +0.000 N 
ATOM      6  N   UNL     1       1.651  11.984  19.086  0.00  0.00    +0.000 NA
ATOM      7  H   UNL     1      -0.629   9.652  18.801  0.00  0.00    +0.000 HD
ENDROOT
BRANCH   5   8
ATOM      8  C   UNL     1       1.298   8.979  19.006  0.00  0.00    +0.000 A 
ATOM      9  C   UNL     1       1.325   8.142  20.148  0.00  0.00    +0.000 A 
ATOM     10  C   UNL     1       2.199   7.049  20.237  0.00  0.00    +0.000 A 
ATOM     11  C   UNL     1       3.042   6.814  19.169  0.00  0.00    +0.000 A 
ATOM     12  C   UNL     1       3.043   7.615  18.035  0.00  0.00    +0.000 A 
ATOM     13  C   UNL     1       2.182   8.693  17.947  0.00  0.00    +0.000 A 
ATOM     14  C   UNL     1       4.047   7.128  17.047  0.00  0.00    +0.000 C 
ATOM     15  N   UNL     1       4.572   5.947  17.707  0.00  0.00    +0.000 N 
ATOM     16  C   UNL     1       4.048   5.761  18.975  0.00  0.00    +0.000 C 
ATOM     17  O   UNL     1       4.340   4.905  19.782  0.00  0.00    +0.000 OA
BRANCH  15  18
ATOM     18  C   UNL     1       5.658   5.141  17.154  0.00  0.00    +0.000 C 
BRANCH  18  19
ATOM     19  C   UNL     1       7.085   5.539  17.547  0.00  0.00    +0.000 C 
ATOM     20  F   UNL     1       7.175   6.018  18.807  0.00  0.00    +0.000 F 
ATOM     21  F   UNL     1       7.939   4.497  17.435  0.00  0.00    +0.000 F 
ATOM     22  F   UNL     1       7.538   6.515  16.720  0.00  0.00    +0.000 F 
ENDBRANCH  18  19
ENDBRANCH  15  18
ENDBRANCH   5   8
BRANCH   1  28
ATOM     23  C   UNL     1       2.940  14.065  20.633  0.00  0.00    +0.000 C 
ATOM     24  C   UNL     1       4.130  14.986  20.925  0.00  0.00    +0.000 C 
ATOM     25  C   UNL     1       5.252  14.794  19.911  0.00  0.00    +0.000 C 
ATOM     26  C   UNL     1       4.755  15.043  18.493  0.00  0.00    +0.000 C 
ATOM     27  C   UNL     1       3.579  14.136  18.152  0.00  0.00    +0.000 C 
ATOM     28  C   UNL     1       2.440  14.243  19.183  0.00  0.00    +0.000 C 
BRANCH  23  30
ATOM     29  N   UNL     1       0.990  14.622  22.320  0.00  0.00    +0.000 NA
ATOM     30  C   UNL     1       1.848  14.360  21.585  0.00  0.00    +0.000 C 
ENDBRANCH  23  30
ENDBRANCH   1  28
BRANCH   3  31
ATOM     31  C   UNL     1      -1.902  12.009  18.145  0.00  0.00    +0.000 C 
ATOM     32  N   UNL     1      -2.201  11.905  16.815  0.00  0.00    +0.000 N 
ATOM     33  O   UNL     1      -2.772  11.870  18.998  0.00  0.00    +0.000 OA
ATOM     34  H   UNL     1      -1.497  11.892  16.093  0.00  0.00    +0.000 HD
ATOM     35  H   UNL     1      -3.156  11.702  16.560  0.00  0.00    +0.000 HD
ENDBRANCH   3  31
TORSDOF 6
ENDMDL
