MODEL 1
REMARK VINA RESULT:      -6.5      0.000      0.000
REMARK  Name = 
REMARK  4 active torsions:
REMARK  status: ('A' for Active; 'I' for Inactive)
REMARK    1  A    between atoms: N_11  and  C_12
REMARK    2  A    between atoms: C_12  and  C_13
REMARK    3  A    between atoms: C_13  and  C_14
REMARK    4  A    between atoms: C_14  and  N_15
REMARK                            x       y       z     vdW  Elec       q    Type
REMARK                         _______ _______ _______ _____ _____    ______ ____
ROOT
ATOM      1  O   UNL     1       2.380   1.740  19.186  0.00  0.00    +0.000 OA
ATOM      2  C   UNL     1       2.198   2.932  19.400  0.00  0.00    +0.000 A 
ATOM      3  C   UNL     1       1.674   3.321  20.758  0.00  0.00    +0.000 A 
ATOM      4  N   UNL     1       1.501   4.541  21.150  0.00  0.00    +0.000 NA
ATOM      5  C   UNL     1       1.815   5.566  20.244  0.00  0.00    +0.000 A 
ATOM      6  C   UNL     1       1.668   6.882  20.695  0.00  0.00    +0.000 A 
ATOM      7  C   UNL     1       1.969   7.960  19.865  0.00  0.00    +0.000 A 
ATOM      8  C   UNL     1       2.401   7.725  18.564  0.00  0.00    +0.000 A 
ATOM      9  C   UNL     1       2.548   6.415  18.097  0.00  0.00    +0.000 A 
ATOM     10  C   UNL     1       2.273   5.321  18.931  0.00  0.00    +0.000 A 
ATOM     11  N   UNL     1       2.456   3.969  18.511  0.00  0.00    +0.000 N 
ENDROOT
BRANCH  11  12
ATOM     12  C   UNL     1       2.980   3.628  17.191  0.00  0.00    +0.000 C 
BRANCH  12  13
ATOM     13  C   UNL     1       4.483   3.334  17.180  0.00  0.00    +0.000 C 
BRANCH  13  14
ATOM     14  C   UNL     1       5.331   4.499  16.670  0.00  0.00    +0.000 C 
BRANCH  14  15
ATOM     15  N   UNL     1       6.188   5.029  17.715  0.00  0.00    +0.000 N 
ATOM     16  C   UNL     1       7.291   5.816  17.547  0.00  0.00    +0.000 A 
ATOM     17  C   UNL     1       7.743   6.065  18.824  0.00  0.00    +0.000 A 
ATOM     18  N   UNL     1       6.947   5.446  19.752  0.00  0.00    +0.000 NA
ATOM     19  C   UNL     1       6.024   4.823  19.056  0.00  0.00    +0.000 A 
ENDBRANCH  14  15
ENDBRANCH  13  14
ENDBRANCH  12  13
ENDBRANCH  11  12
TORSDOF 4
ENDMDL
MODEL 2
REMARK VINA RESULT:      -6.5      1.880      3.027
REMARK  Name = 
REMARK  4 active torsions:
REMARK  status: ('A' for Active; 'I' for Inactive)
REMARK    1  A    between atoms: N_11  and  C_12
REMARK    2  A    between atoms: C_12  and  C_13
REMARK    3  A    between atoms: C_13  and  C_14
REMARK    4  A    between atoms: C_14  and  N_15
REMARK                            x       y       z     vdW  Elec       q    Type
REMARK                         _______ _______ _______ _____ _____    ______ ____
ROOT
ATOM      1  O   UNL     1       4.045   7.120  17.113  0.00  0.00    +0.000 OA
ATOM      2  C   UNL     1       3.496   6.346  17.887  0.00  0.00    +0.000 A 
ATOM      3  C   UNL     1       2.850   6.933  19.114  0.00  0.00    +0.000 A 
ATOM      4  N   UNL     1       2.175   6.250  19.980  0.00  0.00    +0.000 NA
ATOM      5  C   UNL     1       2.047   4.869  19.762  0.00  0.00    +0.000 A 
ATOM      6  C   UNL     1       1.276   4.148  20.680  0.00  0.00    +0.000 A 
ATOM      7  C   UNL     1       1.088   2.775  20.532  0.00  0.00    +0.000 A 
ATOM      8  C   UNL     1       1.690   2.109  19.470  0.00  0.00    +0.000 A 
ATOM      9  C   UNL     1       2.468   2.816  18.548  0.00  0.00    +0.000 A 
ATOM     10  C   UNL     1       2.644   4.202  18.670  0.00  0.00    +0.000 A 
ATOM     11  N   UNL     1       3.390   4.969  17.724  0.00  0.00    +0.000 N 
ENDROOT
BRANCH  11  12
ATOM     12  C   UNL     1       3.991   4.369  16.537  0.00  0.00    +0.000 C 
BRANCH  12  13
ATOM     13  C   UNL     1       5.406   3.828  16.767  0.00  0.00    +0.000 C 
BRANCH  13  14
ATOM     14  C   UNL     1       6.503   4.713  16.175  0.00  0.00    +0.000 C 
BRANCH  14  15
ATOM     15  N   UNL     1       7.120   5.545  17.192  0.00  0.00    +0.000 N 
ATOM     16  C   UNL     1       7.394   6.880  17.101  0.00  0.00    +0.000 A 
ATOM     17  C   UNL     1       7.957   7.207  18.314  0.00  0.00    +0.000 A 
ATOM     18  N   UNL     1       8.034   6.107  19.127  0.00  0.00    +0.000 NA
ATOM     19  C   UNL     1       7.531   5.119  18.423  0.00  0.00    +0.000 A 
ENDBRANCH  14  15
ENDBRANCH  13  14
ENDBRANCH  12  13
ENDBRANCH  11  12
TORSDOF 4
ENDMDL
MODEL 3
REMARK VINA RESULT:      -6.4      2.462      5.702
REMARK  Name = 
REMARK  4 active torsions:
REMARK  status: ('A' for Active; 'I' for Inactive)
REMARK    1  A    between atoms: N_11  and  C_12
REMARK    2  A    between atoms: C_12  and  C_13
REMARK    3  A    between atoms: C_13  and  C_14
REMARK    4  A    between atoms: C_14  and  N_15
REMARK                            x       y       z     vdW  Elec       q    Type
REMARK                         _______ _______ _______ _____ _____    ______ ____
ROOT
ATOM      1  O   UNL     1       5.626   4.755  19.782  0.00  0.00    +0.000 OA
ATOM      2  C   UNL     1       5.919   4.754  18.593  0.00  0.00    +0.000 A 
ATOM      3  C   UNL     1       7.372   4.918  18.235  0.00  0.00    +0.000 A 
ATOM      4  N   UNL     1       7.836   4.865  17.029  0.00  0.00    +0.000 NA
ATOM      5  C   UNL     1       6.919   4.649  15.988  0.00  0.00    +0.000 A 
ATOM      6  C   UNL     1       7.439   4.547  14.693  0.00  0.00    +0.000 A 
ATOM      7  C   UNL     1       6.600   4.321  13.603  0.00  0.00    +0.000 A 
ATOM      8  C   UNL     1       5.228   4.216  13.802  0.00  0.00    +0.000 A 
ATOM      9  C   UNL     1       4.694   4.321  15.090  0.00  0.00    +0.000 A 
ATOM     10  C   UNL     1       5.529   4.522  16.199  0.00  0.00    +0.000 A 
ATOM     11  N   UNL     1       5.031   4.587  17.536  0.00  0.00    +0.000 N 
ENDROOT
BRANCH  11  12
ATOM     12  C   UNL     1       3.616   4.408  17.848  0.00  0.00    +0.000 C 
BRANCH  12  13
ATOM     13  C   UNL     1       3.075   3.019  17.493  0.00  0.00    +0.000 C 
BRANCH  13  14
ATOM     14  C   UNL     1       3.352   1.964  18.564  0.00  0.00    +0.000 C 
BRANCH  14  15
ATOM     15  N   UNL     1       2.722   2.310  19.825  0.00  0.00    +0.000 N 
ATOM     16  C   UNL     1       1.401   2.589  20.030  0.00  0.00    +0.000 A 
ATOM     17  C   UNL     1       1.299   2.839  21.380  0.00  0.00    +0.000 A 
ATOM     18  N   UNL     1       2.520   2.724  21.990  0.00  0.00    +0.000 NA
ATOM     19  C   UNL     1       3.360   2.413  21.029  0.00  0.00    +0.000 A 
ENDBRANCH  14  15
ENDBRANCH  13  14
ENDBRANCH  12  13
ENDBRANCH  11  12
TORSDOF 4
ENDMDL
MODEL 4
REMARK VINA RESULT:      -6.4      2.748      6.081
REMARK  Name = 
REMARK  4 active torsions:
REMARK  status: ('A' for Active; 'I' for Inactive)
REMARK    1  A    between atoms: N_11  and  C_12
REMARK    2  A    between atoms: C_12  and  C_13
REMARK    3  A    between atoms: C_13  and  C_14
REMARK    4  A    between atoms: C_14  and  N_15
REMARK                            x       y       z     vdW  Elec       q    Type
REMARK                         _______ _______ _______ _____ _____    ______ ____
ROOT
ATOM      1  O   UNL     1       5.295   5.548  18.711  0.00  0.00    +0.000 OA
ATOM      2  C   UNL     1       5.680   5.417  17.555  0.00  0.00    +0.000 A 
ATOM      3  C   UNL     1       6.981   6.075  17.177  0.00  0.00    +0.000 A 
ATOM      4  N   UNL     1       7.544   5.963  16.018  0.00  0.00    +0.000 NA
ATOM      5  C   UNL     1       6.891   5.184  15.050  0.00  0.00    +0.000 A 
ATOM      6  C   UNL     1       7.532   5.032  13.816  0.00  0.00    +0.000 A 
ATOM      7  C   UNL     1       6.960   4.265  12.804  0.00  0.00    +0.000 A 
ATOM      8  C   UNL     1       5.726   3.660  13.013  0.00  0.00    +0.000 A 
ATOM      9  C   UNL     1       5.070   3.807  14.240  0.00  0.00    +0.000 A 
ATOM     10  C   UNL     1       5.648   4.554  15.277  0.00  0.00    +0.000 A 
ATOM     11  N   UNL     1       5.036   4.690  16.560  0.00  0.00    +0.000 N 
ENDROOT
BRANCH  11  12
ATOM     12  C   UNL     1       3.780   4.025  16.897  0.00  0.00    +0.000 C 
BRANCH  12  13
ATOM     13  C   UNL     1       3.962   2.709  17.660  0.00  0.00    +0.000 C 
BRANCH  13  14
ATOM     14  C   UNL     1       2.646   2.079  18.114  0.00  0.00    +0.000 C 
BRANCH  14  15
ATOM     15  N   UNL     1       2.319   2.456  19.477  0.00  0.00    +0.000 N 
ATOM     16  C   UNL     1       3.192   2.599  20.518  0.00  0.00    +0.000 A 
ATOM     17  C   UNL     1       2.409   2.979  21.585  0.00  0.00    +0.000 A 
ATOM     18  N   UNL     1       1.092   3.063  21.217  0.00  0.00    +0.000 NA
ATOM     19  C   UNL     1       1.066   2.735  19.944  0.00  0.00    +0.000 A 
ENDBRANCH  14  15
ENDBRANCH  13  14
ENDBRANCH  12  13
ENDBRANCH  11  12
TORSDOF 4
ENDMDL
MODEL 5
REMARK VINA RESULT:      -6.4      2.141      5.898
REMARK  Name = 
REMARK  4 active torsions:
REMARK  status: ('A' for Active; 'I' for Inactive)
REMARK    1  A    between atoms: N_11  and  C_12
REMARK    2  A    between atoms: C_12  and  C_13
REMARK    3  A    between atoms: C_13  and  C_14
REMARK    4  A    between atoms: C_14  and  N_15
REMARK                            x       y       z     vdW  Elec       q    Type
REMARK                         _______ _______ _______ _____ _____    ______ ____
ROOT
ATOM      1  O   UNL     1       5.769   5.026  19.271  0.00  0.00    +0.000 OA
ATOM      2  C   UNL     1       6.016   5.048  18.072  0.00  0.00    +0.000 A 
ATOM      3  C   UNL     1       7.102   5.982  17.604  0.00  0.00    +0.000 A 
ATOM      4  N   UNL     1       7.518   6.060  16.382  0.00  0.00    +0.000 NA
ATOM      5  C   UNL     1       6.909   5.225  15.432  0.00  0.00    +0.000 A 
ATOM      6  C   UNL     1       7.399   5.285  14.123  0.00  0.00    +0.000 A 
ATOM      7  C   UNL     1       6.860   4.481  13.121  0.00  0.00    +0.000 A 
ATOM      8  C   UNL     1       5.807   3.624  13.419  0.00  0.00    +0.000 A 
ATOM      9  C   UNL     1       5.303   3.556  14.722  0.00  0.00    +0.000 A 
ATOM     10  C   UNL     1       5.854   4.341  15.746  0.00  0.00    +0.000 A 
ATOM     11  N   UNL     1       5.402   4.267  17.099  0.00  0.00    +0.000 N 
ENDROOT
BRANCH  11  12
ATOM     12  C   UNL     1       4.356   3.340  17.521  0.00  0.00    +0.000 C 
BRANCH  12  13
ATOM     13  C   UNL     1       2.937   3.820  17.199  0.00  0.00    +0.000 C 
BRANCH  13  14
ATOM     14  C   UNL     1       2.371   4.791  18.235  0.00  0.00    +0.000 C 
BRANCH  14  15
ATOM     15  N   UNL     1       2.111   4.125  19.499  0.00  0.00    +0.000 N 
ATOM     16  C   UNL     1       2.542   4.516  20.734  0.00  0.00    +0.000 A 
ATOM     17  C   UNL     1       2.028   3.578  21.601  0.00  0.00    +0.000 A 
ATOM     18  N   UNL     1       1.306   2.632  20.922  0.00  0.00    +0.000 NA
ATOM     19  C   UNL     1       1.380   2.981  19.657  0.00  0.00    +0.000 A 
ENDBRANCH  14  15
ENDBRANCH  13  14
ENDBRANCH  12  13
ENDBRANCH  11  12
TORSDOF 4
ENDMDL
MODEL 6
REMARK VINA RESULT:      -6.4      2.227      5.333
REMARK  Name = 
REMARK  4 active torsions:
REMARK  status: ('A' for Active; 'I' for Inactive)
REMARK    1  A    between atoms: N_11  and  C_12
REMARK    2  A    between atoms: C_12  and  C_13
REMARK    3  A    between atoms: C_13  and  C_14
REMARK    4  A    between atoms: C_14  and  N_15
REMARK                            x       y       z     vdW  Elec       q    Type
REMARK                         _______ _______ _______ _____ _____    ______ ____
ROOT
ATOM      1  O   UNL     1       3.848   5.269  19.918  0.00  0.00    +0.000 OA
ATOM      2  C   UNL     1       4.559   5.250  18.921  0.00  0.00    +0.000 A 
ATOM      3  C   UNL     1       5.991   5.688  19.081  0.00  0.00    +0.000 A 
ATOM      4  N   UNL     1       6.873   5.653  18.136  0.00  0.00    +0.000 NA
ATOM      5  C   UNL     1       6.462   5.185  16.878  0.00  0.00    +0.000 A 
ATOM      6  C   UNL     1       7.436   5.108  15.877  0.00  0.00    +0.000 A 
ATOM      7  C   UNL     1       7.116   4.643  14.603  0.00  0.00    +0.000 A 
ATOM      8  C   UNL     1       5.807   4.270  14.316  0.00  0.00    +0.000 A 
ATOM      9  C   UNL     1       4.821   4.346  15.306  0.00  0.00    +0.000 A 
ATOM     10  C   UNL     1       5.136   4.788  16.599  0.00  0.00    +0.000 A 
ATOM     11  N   UNL     1       4.171   4.835  17.652  0.00  0.00    +0.000 N 
ENDROOT
BRANCH  11  12
ATOM     12  C   UNL     1       2.794   4.389  17.465  0.00  0.00    +0.000 C 
BRANCH  12  13
ATOM     13  C   UNL     1       2.622   2.868  17.528  0.00  0.00    +0.000 C 
BRANCH  13  14
ATOM     14  C   UNL     1       1.483   2.419  18.443  0.00  0.00    +0.000 C 
BRANCH  14  15
ATOM     15  N   UNL     1       1.829   2.589  19.843  0.00  0.00    +0.000 N 
ATOM     16  C   UNL     1       1.064   3.180  20.808  0.00  0.00    +0.000 A 
ATOM     17  C   UNL     1       1.813   3.084  21.959  0.00  0.00    +0.000 A 
ATOM     18  N   UNL     1       3.007   2.458  21.712  0.00  0.00    +0.000 NA
ATOM     19  C   UNL     1       2.993   2.179  20.428  0.00  0.00    +0.000 A 
ENDBRANCH  14  15
ENDBRANCH  13  14
ENDBRANCH  12  13
ENDBRANCH  11  12
TORSDOF 4
ENDMDL
MODEL 7
REMARK VINA RESULT:      -6.3      3.537      5.142
REMARK  Name = 
REMARK  4 active torsions:
REMARK  status: ('A' for Active; 'I' for Inactive)
REMARK    1  A    between atoms: N_11  and  C_12
REMARK    2  A    between atoms: C_12  and  C_13
REMARK    3  A    between atoms: C_13  and  C_14
REMARK    4  A    between atoms: C_14  and  N_15
REMARK                            x       y       z     vdW  Elec       q    Type
REMARK                         _______ _______ _______ _____ _____    ______ ____
ROOT
ATOM      1  O   UNL     1       7.910   4.740  17.317  0.00  0.00    +0.000 OA
ATOM      2  C   UNL     1       6.777   4.707  17.782  0.00  0.00    +0.000 A 
ATOM      3  C   UNL     1       6.579   5.257  19.170  0.00  0.00    +0.000 A 
ATOM      4  N   UNL     1       5.432   5.353  19.759  0.00  0.00    +0.000 NA
ATOM      5  C   UNL     1       4.301   4.905  19.057  0.00  0.00    +0.000 A 
ATOM      6  C   UNL     1       3.060   5.056  19.686  0.00  0.00    +0.000 A 
ATOM      7  C   UNL     1       1.886   4.650  19.056  0.00  0.00    +0.000 A 
ATOM      8  C   UNL     1       1.949   4.067  17.795  0.00  0.00    +0.000 A 
ATOM      9  C   UNL     1       3.183   3.904  17.156  0.00  0.00    +0.000 A 
ATOM     10  C   UNL     1       4.370   4.333  17.769  0.00  0.00    +0.000 A 
ATOM     11  N   UNL     1       5.644   4.230  17.132  0.00  0.00    +0.000 N 
ENDROOT
BRANCH  11  12
ATOM     12  C   UNL     1       5.798   3.705  15.779  0.00  0.00    +0.000 C 
BRANCH  12  13
ATOM     13  C   UNL     1       5.865   4.789  14.698  0.00  0.00    +0.000 C 
BRANCH  13  14
ATOM     14  C   UNL     1       6.776   4.427  13.525  0.00  0.00    +0.000 C 
BRANCH  14  15
ATOM     15  N   UNL     1       6.110   3.536  12.592  0.00  0.00    +0.000 N 
ATOM     16  C   UNL     1       6.647   2.436  11.986  0.00  0.00    +0.000 A 
ATOM     17  C   UNL     1       5.627   1.925  11.216  0.00  0.00    +0.000 A 
ATOM     18  N   UNL     1       4.496   2.688  11.337  0.00  0.00    +0.000 NA
ATOM     19  C   UNL     1       4.817   3.656  12.166  0.00  0.00    +0.000 A 
ENDBRANCH  14  15
ENDBRANCH  13  14
ENDBRANCH  12  13
ENDBRANCH  11  12
TORSDOF 4
ENDMDL
MODEL 8
REMARK VINA RESULT:      -6.3      1.998      5.522
REMARK  Name = 
REMARK  4 active torsions:
REMARK  status: ('A' for Active; 'I' for Inactive)
REMARK    1  A    between atoms: N_11  and  C_12
REMARK    2  A    between atoms: C_12  and  C_13
REMARK    3  A    between atoms: C_13  and  C_14
REMARK    4  A    between atoms: C_14  and  N_15
REMARK                            x       y       z     vdW  Elec       q    Type
REMARK                         _______ _______ _______ _____ _____    ______ ____
ROOT
ATOM      1  O   UNL     1       5.158   3.798  19.755  0.00  0.00    +0.000 OA
ATOM      2  C   UNL     1       5.564   4.111  18.642  0.00  0.00    +0.000 A 
ATOM      3  C   UNL     1       6.793   4.979  18.571  0.00  0.00    +0.000 A 
ATOM      4  N   UNL     1       7.375   5.328  17.470  0.00  0.00    +0.000 NA
ATOM      5  C   UNL     1       6.815   4.874  16.266  0.00  0.00    +0.000 A 
ATOM      6  C   UNL     1       7.480   5.219  15.084  0.00  0.00    +0.000 A 
ATOM      7  C   UNL     1       7.000   4.800  13.846  0.00  0.00    +0.000 A 
ATOM      8  C   UNL     1       5.833   4.046  13.780  0.00  0.00    +0.000 A 
ATOM      9  C   UNL     1       5.155   3.697  14.953  0.00  0.00    +0.000 A 
ATOM     10  C   UNL     1       5.642   4.091  16.208  0.00  0.00    +0.000 A 
ATOM     11  N   UNL     1       5.008   3.716  17.431  0.00  0.00    +0.000 N 
ENDROOT
BRANCH  11  12
ATOM     12  C   UNL     1       3.825   2.861  17.464  0.00  0.00    +0.000 C 
BRANCH  12  13
ATOM     13  C   UNL     1       2.503   3.631  17.371  0.00  0.00    +0.000 C 
BRANCH  13  14
ATOM     14  C   UNL     1       1.417   3.094  18.302  0.00  0.00    +0.000 C 
BRANCH  14  15
ATOM     15  N   UNL     1       1.732   3.360  19.694  0.00  0.00    +0.000 N 
ATOM     16  C   UNL     1       1.944   4.582  20.265  0.00  0.00    +0.000 A 
ATOM     17  C   UNL     1       2.190   4.312  21.593  0.00  0.00    +0.000 A 
ATOM     18  N   UNL     1       2.137   2.964  21.834  0.00  0.00    +0.000 NA
ATOM     19  C   UNL     1       1.868   2.414  20.671  0.00  0.00    +0.000 A 
ENDBRANCH  14  15
ENDBRANCH  13  14
ENDBRANCH  12  13
ENDBRANCH  11  12
TORSDOF 4
ENDMDL
MODEL 9
REMARK VINA RESULT:      -6.2      2.955      5.801
REMARK  Name = 
REMARK  4 active torsions:
REMARK  status: ('A' for Active; 'I' for Inactive)
REMARK    1  A    between atoms: N_11  and  C_12
REMARK    2  A    between atoms: C_12  and  C_13
REMARK    3  A    between atoms: C_13  and  C_14
REMARK    4  A    between atoms: C_14  and  N_15
REMARK                            x       y       z     vdW  Elec       q    Type
REMARK                         _______ _______ _______ _____ _____    ______ ____
ROOT
ATOM      1  O   UNL     1       4.808   6.494  16.710  0.00  0.00    +0.000 OA
ATOM      2  C   UNL     1       4.167   5.633  17.301  0.00  0.00    +0.000 A 
ATOM      3  C   UNL     1       4.433   4.196  16.937  0.00  0.00    +0.000 A 
ATOM      4  N   UNL     1       3.887   3.183  17.525  0.00  0.00    +0.000 NA
ATOM      5  C   UNL     1       2.979   3.445  18.564  0.00  0.00    +0.000 A 
ATOM      6  C   UNL     1       2.429   2.340  19.223  0.00  0.00    +0.000 A 
ATOM      7  C   UNL     1       1.529   2.511  20.273  0.00  0.00    +0.000 A 
ATOM      8  C   UNL     1       1.156   3.794  20.658  0.00  0.00    +0.000 A 
ATOM      9  C   UNL     1       1.694   4.908  20.004  0.00  0.00    +0.000 A 
ATOM     10  C   UNL     1       2.620   4.751  18.963  0.00  0.00    +0.000 A 
ATOM     11  N   UNL     1       3.230   5.860  18.302  0.00  0.00    +0.000 N 
ENDROOT
BRANCH  11  12
ATOM     12  C   UNL     1       2.959   7.242  18.691  0.00  0.00    +0.000 C 
BRANCH  12  13
ATOM     13  C   UNL     1       1.969   7.961  17.768  0.00  0.00    +0.000 C 
BRANCH  13  14
ATOM     14  C   UNL     1       1.953   9.478  17.953  0.00  0.00    +0.000 C 
BRANCH  14  15
ATOM     15  N   UNL     1       0.795   9.907  18.716  0.00  0.00    +0.000 N 
ATOM     16  C   UNL     1      -0.401  10.336  18.216  0.00  0.00    +0.000 A 
ATOM     17  C   UNL     1      -1.169  10.611  19.325  0.00  0.00    +0.000 A 
ATOM     18  N   UNL     1      -0.467  10.364  20.476  0.00  0.00    +0.000 NA
ATOM     19  C   UNL     1       0.715   9.949  20.079  0.00  0.00    +0.000 A 
ENDBRANCH  14  15
ENDBRANCH  13  14
ENDBRANCH  12  13
ENDBRANCH  11  12
TORSDOF 4
ENDMDL
