MODEL 1
REMARK VINA RESULT:      -7.3      0.000      0.000
REMARK  Name = 
REMARK  8 active torsions:
REMARK  status: ('A' for Active; 'I' for Inactive)
REMARK    1  A    between atoms: C_1  and  O_2
REMARK    2  A    between atoms: O_2  and  C_3
REMARK    3  A    between atoms: C_6  and  C_7
REMARK    4  A    between atoms: C_7  and  C_8
REMARK    5  A    between atoms: C_8  and  C_11
REMARK    6  A    between atoms: N_9  and  O_10
REMARK    7  A    between atoms: C_14  and  O_15
REMARK    8  A    between atoms: C_17  and  O_18
REMARK                            x       y       z     vdW  Elec       q    Type
REMARK                         _______ _______ _______ _____ _____    ______ ____
ROOT
ATOM      1  C   UNL     1       3.576   3.183  17.482  0.00  0.00    +0.000 C 
ATOM      2  N   UNL     1       3.819   1.976  17.917  0.00  0.00    +0.000 NA
ENDROOT
BRANCH   1   3
ATOM      3  C   UNL     1       4.732   3.881  16.793  0.00  0.00    +0.000 A 
ATOM      4  C   UNL     1       4.563   4.231  15.437  0.00  0.00    +0.000 A 
ATOM      5  C   UNL     1       5.613   4.783  14.699  0.00  0.00    +0.000 A 
ATOM      6  C   UNL     1       6.836   5.004  15.318  0.00  0.00    +0.000 A 
ATOM      7  C   UNL     1       7.014   4.716  16.662  0.00  0.00    +0.000 A 
ATOM      8  C   UNL     1       5.965   4.162  17.401  0.00  0.00    +0.000 A 
BRANCH   6   9
ATOM      9  O   UNL     1       7.904   5.502  14.636  0.00  0.00    +0.000 OA
ATOM     10  H   UNL     1       7.657   6.360  14.256  0.00  0.00    +0.000 HD
ENDBRANCH   6   9
BRANCH   8  11
ATOM     11  O   UNL     1       6.182   3.916  18.728  0.00  0.00    +0.000 OA
ATOM     12  H   UNL     1       5.334   3.895  19.199  0.00  0.00    +0.000 HD
ENDBRANCH   8  11
ENDBRANCH   1   3
BRANCH   2  13
ATOM     13  O   UNL     1       2.753   1.381  18.579  0.00  0.00    +0.000 OA
ATOM     14  H   UNL     1       2.488   2.056  19.228  0.00  0.00    +0.000 HD
ENDBRANCH   2  13
BRANCH   1  15
ATOM     15  C   UNL     1       2.283   4.001  17.604  0.00  0.00    +0.000 C 
BRANCH  15  19
ATOM     16  C   UNL     1       1.910   7.407  20.214  0.00  0.00    +0.000 A 
ATOM     17  C   UNL     1       1.671   6.121  20.705  0.00  0.00    +0.000 A 
ATOM     18  C   UNL     1       1.825   5.005  19.882  0.00  0.00    +0.000 A 
ATOM     19  C   UNL     1       2.208   5.172  18.548  0.00  0.00    +0.000 A 
ATOM     20  C   UNL     1       2.494   6.459  18.072  0.00  0.00    +0.000 A 
ATOM     21  C   UNL     1       2.340   7.567  18.899  0.00  0.00    +0.000 A 
BRANCH  16  23
ATOM     22  C   UNL     1       0.289   8.619  21.441  0.00  0.00    +0.000 C 
ATOM     23  O   UNL     1       1.654   8.418  21.099  0.00  0.00    +0.000 OA
ENDBRANCH  16  23
ENDBRANCH  15  19
ENDBRANCH   1  15
TORSDOF 7
ENDMDL
MODEL 2
REMARK VINA RESULT:      -7.3      2.535      6.547
REMARK  Name = 
REMARK  8 active torsions:
REMARK  status: ('A' for Active; 'I' for Inactive)
REMARK    1  A    between atoms: C_1  and  O_2
REMARK    2  A    between atoms: O_2  and  C_3
REMARK    3  A    between atoms: C_6  and  C_7
REMARK    4  A    between atoms: C_7  and  C_8
REMARK    5  A    between atoms: C_8  and  C_11
REMARK    6  A    between atoms: N_9  and  O_10
REMARK    7  A    between atoms: C_14  and  O_15
REMARK    8  A    between atoms: C_17  and  O_18
REMARK                            x       y       z     vdW  Elec       q    Type
REMARK                         _______ _______ _______ _____ _____    ______ ____
ROOT
ATOM      1  C   UNL     1       5.607   5.221  19.096  0.00  0.00    +0.000 C 
ATOM      2  N   UNL     1       6.633   4.925  19.850  0.00  0.00    +0.000 NA
ENDROOT
BRANCH   1   3
ATOM      3  C   UNL     1       4.291   4.583  19.496  0.00  0.00    +0.000 A 
ATOM      4  C   UNL     1       3.191   5.442  19.703  0.00  0.00    +0.000 A 
ATOM      5  C   UNL     1       1.970   4.949  20.171  0.00  0.00    +0.000 A 
ATOM      6  C   UNL     1       1.837   3.589  20.420  0.00  0.00    +0.000 A 
ATOM      7  C   UNL     1       2.886   2.716  20.176  0.00  0.00    +0.000 A 
ATOM      8  C   UNL     1       4.108   3.209  19.710  0.00  0.00    +0.000 A 
BRANCH   6   9
ATOM      9  O   UNL     1       0.684   3.062  20.914  0.00  0.00    +0.000 OA
ATOM     10  H   UNL     1       0.363   2.382  20.299  0.00  0.00    +0.000 HD
ENDBRANCH   6   9
BRANCH   8  11
ATOM     11  O   UNL     1       5.105   2.307  19.464  0.00  0.00    +0.000 OA
ATOM     12  H   UNL     1       5.964   2.705  19.674  0.00  0.00    +0.000 HD
ENDBRANCH   8  11
ENDBRANCH   1   3
BRANCH   2  13
ATOM     13  O   UNL     1       7.830   5.492  19.434  0.00  0.00    +0.000 OA
ATOM     14  H   UNL     1       7.553   6.338  19.042  0.00  0.00    +0.000 HD
ENDBRANCH   2  13
BRANCH   1  15
ATOM     15  C   UNL     1       5.565   6.105  17.843  0.00  0.00    +0.000 C 
BRANCH  15  19
ATOM     16  C   UNL     1       6.388   4.267  14.036  0.00  0.00    +0.000 A 
ATOM     17  C   UNL     1       5.091   4.249  14.554  0.00  0.00    +0.000 A 
ATOM     18  C   UNL     1       4.801   4.874  15.768  0.00  0.00    +0.000 A 
ATOM     19  C   UNL     1       5.820   5.511  16.483  0.00  0.00    +0.000 A 
ATOM     20  C   UNL     1       7.109   5.569  15.936  0.00  0.00    +0.000 A 
ATOM     21  C   UNL     1       7.390   4.946  14.724  0.00  0.00    +0.000 A 
BRANCH  16  23
ATOM     22  C   UNL     1       5.366   3.213  12.179  0.00  0.00    +0.000 C 
ATOM     23  O   UNL     1       6.555   3.559  12.877  0.00  0.00    +0.000 OA
ENDBRANCH  16  23
ENDBRANCH  15  19
ENDBRANCH   1  15
TORSDOF 7
ENDMDL
MODEL 3
REMARK VINA RESULT:      -7.2      1.072      1.099
REMARK  Name = 
REMARK  8 active torsions:
REMARK  status: ('A' for Active; 'I' for Inactive)
REMARK    1  A    between atoms: C_1  and  O_2
REMARK    2  A    between atoms: O_2  and  C_3
REMARK    3  A    between atoms: C_6  and  C_7
REMARK    4  A    between atoms: C_7  and  C_8
REMARK    5  A    between atoms: C_8  and  C_11
REMARK    6  A    between atoms: N_9  and  O_10
REMARK    7  A    between atoms: C_14  and  O_15
REMARK    8  A    between atoms: C_17  and  O_18
REMARK                            x       y       z     vdW  Elec       q    Type
REMARK                         _______ _______ _______ _____ _____    ______ ____
ROOT
ATOM      1  C   UNL     1       4.217   3.658  18.690  0.00  0.00    +0.000 C 
ATOM      2  N   UNL     1       4.739   2.830  19.556  0.00  0.00    +0.000 NA
ENDROOT
BRANCH   1   3
ATOM      3  C   UNL     1       5.167   4.196  17.639  0.00  0.00    +0.000 A 
ATOM      4  C   UNL     1       4.724   4.189  16.300  0.00  0.00    +0.000 A 
ATOM      5  C   UNL     1       5.572   4.572  15.258  0.00  0.00    +0.000 A 
ATOM      6  C   UNL     1       6.867   4.980  15.551  0.00  0.00    +0.000 A 
ATOM      7  C   UNL     1       7.311   5.045  16.862  0.00  0.00    +0.000 A 
ATOM      8  C   UNL     1       6.464   4.661  17.904  0.00  0.00    +0.000 A 
BRANCH   6   9
ATOM      9  O   UNL     1       7.747   5.325  14.572  0.00  0.00    +0.000 OA
ATOM     10  H   UNL     1       7.316   5.957  13.974  0.00  0.00    +0.000 HD
ENDBRANCH   6   9
BRANCH   8  11
ATOM     11  O   UNL     1       6.940   4.763  19.182  0.00  0.00    +0.000 OA
ATOM     12  H   UNL     1       7.370   5.624  19.302  0.00  0.00    +0.000 HD
ENDBRANCH   8  11
ENDBRANCH   1   3
BRANCH   2  13
ATOM     13  O   UNL     1       3.853   2.387  20.529  0.00  0.00    +0.000 OA
ATOM     14  H   UNL     1       3.296   1.748  20.051  0.00  0.00    +0.000 HD
ENDBRANCH   2  13
BRANCH   1  15
ATOM     15  C   UNL     1       2.776   4.180  18.616  0.00  0.00    +0.000 C 
BRANCH  15  19
ATOM     16  C   UNL     1       1.634   8.076  20.052  0.00  0.00    +0.000 A 
ATOM     17  C   UNL     1       1.518   6.963  20.887  0.00  0.00    +0.000 A 
ATOM     18  C   UNL     1       1.920   5.700  20.449  0.00  0.00    +0.000 A 
ATOM     19  C   UNL     1       2.430   5.542  19.157  0.00  0.00    +0.000 A 
ATOM     20  C   UNL     1       2.591   6.669  18.340  0.00  0.00    +0.000 A 
ATOM     21  C   UNL     1       2.189   7.925  18.784  0.00  0.00    +0.000 A 
BRANCH  16  23
ATOM     22  C   UNL     1       1.139   9.341  21.991  0.00  0.00    +0.000 C 
ATOM     23  O   UNL     1       1.139   9.241  20.573  0.00  0.00    +0.000 OA
ENDBRANCH  16  23
ENDBRANCH  15  19
ENDBRANCH   1  15
TORSDOF 7
ENDMDL
MODEL 4
REMARK VINA RESULT:      -7.2      2.759      6.419
REMARK  Name = 
REMARK  8 active torsions:
REMARK  status: ('A' for Active; 'I' for Inactive)
REMARK    1  A    between atoms: C_1  and  O_2
REMARK    2  A    between atoms: O_2  and  C_3
REMARK    3  A    between atoms: C_6  and  C_7
REMARK    4  A    between atoms: C_7  and  C_8
REMARK    5  A    between atoms: C_8  and  C_11
REMARK    6  A    between atoms: N_9  and  O_10
REMARK    7  A    between atoms: C_14  and  O_15
REMARK    8  A    between atoms: C_17  and  O_18
REMARK                            x       y       z     vdW  Elec       q    Type
REMARK                         _______ _______ _______ _____ _____    ______ ____
ROOT
ATOM      1  C   UNL     1       5.209   4.927  18.846  0.00  0.00    +0.000 C 
ATOM      2  N   UNL     1       5.965   4.693  19.886  0.00  0.00    +0.000 NA
ENDROOT
BRANCH   1   3
ATOM      3  C   UNL     1       3.927   4.120  18.770  0.00  0.00    +0.000 A 
ATOM      4  C   UNL     1       2.761   4.794  18.353  0.00  0.00    +0.000 A 
ATOM      5  C   UNL     1       1.519   4.153  18.352  0.00  0.00    +0.000 A 
ATOM      6  C   UNL     1       1.440   2.826  18.755  0.00  0.00    +0.000 A 
ATOM      7  C   UNL     1       2.578   2.126  19.121  0.00  0.00    +0.000 A 
ATOM      8  C   UNL     1       3.819   2.766  19.124  0.00  0.00    +0.000 A 
BRANCH   6   9
ATOM      9  O   UNL     1       0.250   2.166  18.811  0.00  0.00    +0.000 OA
ATOM     10  H   UNL     1       0.355   1.299  18.387  0.00  0.00    +0.000 HD
ENDBRANCH   6   9
BRANCH   8  11
ATOM     11  O   UNL     1       4.915   2.028  19.472  0.00  0.00    +0.000 OA
ATOM     12  H   UNL     1       5.145   1.423  18.748  0.00  0.00    +0.000 HD
ENDBRANCH   8  11
ENDBRANCH   1   3
BRANCH   2  13
ATOM     13  O   UNL     1       7.150   5.417  19.905  0.00  0.00    +0.000 OA
ATOM     14  H   UNL     1       7.830   4.729  20.010  0.00  0.00    +0.000 HD
ENDBRANCH   2  13
BRANCH   1  15
ATOM     15  C   UNL     1       5.461   5.887  17.677  0.00  0.00    +0.000 C 
BRANCH  15  19
ATOM     16  C   UNL     1       6.485   4.219  13.841  0.00  0.00    +0.000 A 
ATOM     17  C   UNL     1       5.172   4.136  14.310  0.00  0.00    +0.000 A 
ATOM     18  C   UNL     1       4.817   4.706  15.534  0.00  0.00    +0.000 A 
ATOM     19  C   UNL     1       5.785   5.353  16.307  0.00  0.00    +0.000 A 
ATOM     20  C   UNL     1       7.090   5.477  15.810  0.00  0.00    +0.000 A 
ATOM     21  C   UNL     1       7.436   4.908  14.589  0.00  0.00    +0.000 A 
BRANCH  16  23
ATOM     22  C   UNL     1       5.569   3.104  11.965  0.00  0.00    +0.000 C 
ATOM     23  O   UNL     1       6.719   3.559  12.666  0.00  0.00    +0.000 OA
ENDBRANCH  16  23
ENDBRANCH  15  19
ENDBRANCH   1  15
TORSDOF 7
ENDMDL
MODEL 5
REMARK VINA RESULT:      -7.1      2.470      6.624
REMARK  Name = 
REMARK  8 active torsions:
REMARK  status: ('A' for Active; 'I' for Inactive)
REMARK    1  A    between atoms: C_1  and  O_2
REMARK    2  A    between atoms: O_2  and  C_3
REMARK    3  A    between atoms: C_6  and  C_7
REMARK    4  A    between atoms: C_7  and  C_8
REMARK    5  A    between atoms: C_8  and  C_11
REMARK    6  A    between atoms: N_9  and  O_10
REMARK    7  A    between atoms: C_14  and  O_15
REMARK    8  A    between atoms: C_17  and  O_18
REMARK                            x       y       z     vdW  Elec       q    Type
REMARK                         _______ _______ _______ _____ _____    ______ ____
ROOT
ATOM      1  C   UNL     1       5.935   5.350  19.129  0.00  0.00    +0.000 C 
ATOM      2  N   UNL     1       6.848   5.090  20.027  0.00  0.00    +0.000 NA
ENDROOT
BRANCH   1   3
ATOM      3  C   UNL     1       4.547   4.819  19.430  0.00  0.00    +0.000 A 
ATOM      4  C   UNL     1       3.501   5.759  19.526  0.00  0.00    +0.000 A 
ATOM      5  C   UNL     1       2.212   5.368  19.900  0.00  0.00    +0.000 A 
ATOM      6  C   UNL     1       1.959   4.029  20.165  0.00  0.00    +0.000 A 
ATOM      7  C   UNL     1       2.957   3.077  20.028  0.00  0.00    +0.000 A 
ATOM      8  C   UNL     1       4.246   3.467  19.656  0.00  0.00    +0.000 A 
BRANCH   6   9
ATOM      9  O   UNL     1       0.733   3.599  20.571  0.00  0.00    +0.000 OA
ATOM     10  H   UNL     1       0.269   4.338  20.996  0.00  0.00    +0.000 HD
ENDBRANCH   6   9
BRANCH   8  11
ATOM     11  O   UNL     1       5.191   2.490  19.514  0.00  0.00    +0.000 OA
ATOM     12  H   UNL     1       5.749   2.457  20.307  0.00  0.00    +0.000 HD
ENDBRANCH   8  11
ENDBRANCH   1   3
BRANCH   2  13
ATOM     13  O   UNL     1       8.117   5.554  19.702  0.00  0.00    +0.000 OA
ATOM     14  H   UNL     1       8.497   5.789  20.567  0.00  0.00    +0.000 HD
ENDBRANCH   2  13
BRANCH   1  15
ATOM     15  C   UNL     1       6.089   6.094  17.796  0.00  0.00    +0.000 C 
BRANCH  15  19
ATOM     16  C   UNL     1       5.996   4.041  14.012  0.00  0.00    +0.000 A 
ATOM     17  C   UNL     1       7.107   4.813  14.360  0.00  0.00    +0.000 A 
ATOM     18  C   UNL     1       7.168   5.453  15.599  0.00  0.00    +0.000 A 
ATOM     19  C   UNL     1       6.103   5.335  16.496  0.00  0.00    +0.000 A 
ATOM     20  C   UNL     1       5.012   4.520  16.163  0.00  0.00    +0.000 A 
ATOM     21  C   UNL     1       4.959   3.884  14.927  0.00  0.00    +0.000 A 
BRANCH  16  23
ATOM     22  C   UNL     1       7.137   3.908  11.942  0.00  0.00    +0.000 C 
ATOM     23  O   UNL     1       6.027   3.528  12.744  0.00  0.00    +0.000 OA
ENDBRANCH  16  23
ENDBRANCH  15  19
ENDBRANCH   1  15
TORSDOF 7
ENDMDL
MODEL 6
REMARK VINA RESULT:      -7.1      1.193      1.621
REMARK  Name = 
REMARK  8 active torsions:
REMARK  status: ('A' for Active; 'I' for Inactive)
REMARK    1  A    between atoms: C_1  and  O_2
REMARK    2  A    between atoms: O_2  and  C_3
REMARK    3  A    between atoms: C_6  and  C_7
REMARK    4  A    between atoms: C_7  and  C_8
REMARK    5  A    between atoms: C_8  and  C_11
REMARK    6  A    between atoms: N_9  and  O_10
REMARK    7  A    between atoms: C_14  and  O_15
REMARK    8  A    between atoms: C_17  and  O_18
REMARK                            x       y       z     vdW  Elec       q    Type
REMARK                         _______ _______ _______ _____ _____    ______ ____
ROOT
ATOM      1  C   UNL     1       4.257   3.576  18.825  0.00  0.00    +0.000 C 
ATOM      2  N   UNL     1       4.818   2.806  19.719  0.00  0.00    +0.000 NA
ENDROOT
BRANCH   1   3
ATOM      3  C   UNL     1       5.187   4.151  17.775  0.00  0.00    +0.000 A 
ATOM      4  C   UNL     1       4.774   4.071  16.429  0.00  0.00    +0.000 A 
ATOM      5  C   UNL     1       5.614   4.483  15.392  0.00  0.00    +0.000 A 
ATOM      6  C   UNL     1       6.869   4.995  15.696  0.00  0.00    +0.000 A 
ATOM      7  C   UNL     1       7.279   5.132  17.012  0.00  0.00    +0.000 A 
ATOM      8  C   UNL     1       6.441   4.718  18.050  0.00  0.00    +0.000 A 
BRANCH   6   9
ATOM      9  O   UNL     1       7.742   5.374  14.723  0.00  0.00    +0.000 OA
ATOM     10  H   UNL     1       7.255   5.865  14.042  0.00  0.00    +0.000 HD
ENDBRANCH   6   9
BRANCH   8  11
ATOM     11  O   UNL     1       6.881   4.894  19.332  0.00  0.00    +0.000 OA
ATOM     12  H   UNL     1       6.129   4.855  19.944  0.00  0.00    +0.000 HD
ENDBRANCH   8  11
ENDBRANCH   1   3
BRANCH   2  13
ATOM     13  O   UNL     1       3.947   2.329  20.690  0.00  0.00    +0.000 OA
ATOM     14  H   UNL     1       3.976   3.019  21.375  0.00  0.00    +0.000 HD
ENDBRANCH   2  13
BRANCH   1  15
ATOM     15  C   UNL     1       2.786   3.999  18.716  0.00  0.00    +0.000 C 
BRANCH  15  19
ATOM     16  C   UNL     1       1.708   7.956  20.027  0.00  0.00    +0.000 A 
ATOM     17  C   UNL     1       2.198   7.759  18.734  0.00  0.00    +0.000 A 
ATOM     18  C   UNL     1       2.516   6.477  18.282  0.00  0.00    +0.000 A 
ATOM     19  C   UNL     1       2.357   5.380  19.134  0.00  0.00    +0.000 A 
ATOM     20  C   UNL     1       1.818   5.577  20.412  0.00  0.00    +0.000 A 
ATOM     21  C   UNL     1       1.502   6.857  20.856  0.00  0.00    +0.000 A 
BRANCH  16  23
ATOM     22  C   UNL     1       0.460   9.938  19.681  0.00  0.00    +0.000 C 
ATOM     23  O   UNL     1       1.504   9.265  20.372  0.00  0.00    +0.000 OA
ENDBRANCH  16  23
ENDBRANCH  15  19
ENDBRANCH   1  15
TORSDOF 7
ENDMDL
MODEL 7
REMARK VINA RESULT:      -7.0      2.839      6.561
REMARK  Name = 
REMARK  8 active torsions:
REMARK  status: ('A' for Active; 'I' for Inactive)
REMARK    1  A    between atoms: C_1  and  O_2
REMARK    2  A    between atoms: O_2  and  C_3
REMARK    3  A    between atoms: C_6  and  C_7
REMARK    4  A    between atoms: C_7  and  C_8
REMARK    5  A    between atoms: C_8  and  C_11
REMARK    6  A    between atoms: N_9  and  O_10
REMARK    7  A    between atoms: C_14  and  O_15
REMARK    8  A    between atoms: C_17  and  O_18
REMARK                            x       y       z     vdW  Elec       q    Type
REMARK                         _______ _______ _______ _____ _____    ______ ____
ROOT
ATOM      1  C   UNL     1       5.245   4.860  18.648  0.00  0.00    +0.000 C 
ATOM      2  N   UNL     1       5.978   4.704  19.718  0.00  0.00    +0.000 NA
ENDROOT
BRANCH   1   3
ATOM      3  C   UNL     1       3.971   4.039  18.597  0.00  0.00    +0.000 A 
ATOM      4  C   UNL     1       2.812   4.671  18.101  0.00  0.00    +0.000 A 
ATOM      5  C   UNL     1       1.575   4.022  18.114  0.00  0.00    +0.000 A 
ATOM      6  C   UNL     1       1.493   2.727  18.610  0.00  0.00    +0.000 A 
ATOM      7  C   UNL     1       2.625   2.065  19.057  0.00  0.00    +0.000 A 
ATOM      8  C   UNL     1       3.862   2.714  19.046  0.00  0.00    +0.000 A 
BRANCH   6   9
ATOM      9  O   UNL     1       0.307   2.063  18.683  0.00  0.00    +0.000 OA
ATOM     10  H   UNL     1       0.046   1.793  17.788  0.00  0.00    +0.000 HD
ENDBRANCH   6   9
BRANCH   8  11
ATOM     11  O   UNL     1       4.953   2.012  19.476  0.00  0.00    +0.000 OA
ATOM     12  H   UNL     1       5.237   1.393  18.784  0.00  0.00    +0.000 HD
ENDBRANCH   8  11
ENDBRANCH   1   3
BRANCH   2  13
ATOM     13  O   UNL     1       7.157   5.438  19.715  0.00  0.00    +0.000 OA
ATOM     14  H   UNL     1       6.868   6.323  19.432  0.00  0.00    +0.000 HD
ENDBRANCH   2  13
BRANCH   1  15
ATOM     15  C   UNL     1       5.518   5.742  17.422  0.00  0.00    +0.000 C 
BRANCH  15  19
ATOM     16  C   UNL     1       6.381   4.107  13.533  0.00  0.00    +0.000 A 
ATOM     17  C   UNL     1       7.420   4.580  14.337  0.00  0.00    +0.000 A 
ATOM     18  C   UNL     1       7.160   5.078  15.615  0.00  0.00    +0.000 A 
ATOM     19  C   UNL     1       5.847   5.118  16.092  0.00  0.00    +0.000 A 
ATOM     20  C   UNL     1       4.814   4.596  15.301  0.00  0.00    +0.000 A 
ATOM     21  C   UNL     1       5.080   4.101  14.029  0.00  0.00    +0.000 A 
BRANCH  16  23
ATOM     22  C   UNL     1       6.148   2.530  11.783  0.00  0.00    +0.000 C 
ATOM     23  O   UNL     1       6.758   3.715  12.277  0.00  0.00    +0.000 OA
ENDBRANCH  16  23
ENDBRANCH  15  19
ENDBRANCH   1  15
TORSDOF 7
ENDMDL
MODEL 8
REMARK VINA RESULT:      -7.0      0.236      1.104
REMARK  Name = 
REMARK  8 active torsions:
REMARK  status: ('A' for Active; 'I' for Inactive)
REMARK    1  A    between atoms: C_1  and  O_2
REMARK    2  A    between atoms: O_2  and  C_3
REMARK    3  A    between atoms: C_6  and  C_7
REMARK    4  A    between atoms: C_7  and  C_8
REMARK    5  A    between atoms: C_8  and  C_11
REMARK    6  A    between atoms: N_9  and  O_10
REMARK    7  A    between atoms: C_14  and  O_15
REMARK    8  A    between atoms: C_17  and  O_18
REMARK                            x       y       z     vdW  Elec       q    Type
REMARK                         _______ _______ _______ _____ _____    ______ ____
ROOT
ATOM      1  C   UNL     1       3.601   3.118  17.572  0.00  0.00    +0.000 C 
ATOM      2  N   UNL     1       3.899   1.941  18.055  0.00  0.00    +0.000 NA
ENDROOT
BRANCH   1   3
ATOM      3  C   UNL     1       4.739   3.863  16.903  0.00  0.00    +0.000 A 
ATOM      4  C   UNL     1       4.562   4.246  15.558  0.00  0.00    +0.000 A 
ATOM      5  C   UNL     1       5.598   4.845  14.836  0.00  0.00    +0.000 A 
ATOM      6  C   UNL     1       6.815   5.079  15.463  0.00  0.00    +0.000 A 
ATOM      7  C   UNL     1       6.999   4.759  16.798  0.00  0.00    +0.000 A 
ATOM      8  C   UNL     1       5.965   4.159  17.520  0.00  0.00    +0.000 A 
BRANCH   6   9
ATOM      9  O   UNL     1       7.870   5.623  14.796  0.00  0.00    +0.000 OA
ATOM     10  H   UNL     1       8.062   5.075  14.018  0.00  0.00    +0.000 HD
ENDBRANCH   6   9
BRANCH   8  11
ATOM     11  O   UNL     1       6.187   3.882  18.840  0.00  0.00    +0.000 OA
ATOM     12  H   UNL     1       5.460   3.341  19.187  0.00  0.00    +0.000 HD
ENDBRANCH   8  11
ENDBRANCH   1   3
BRANCH   2  13
ATOM     13  O   UNL     1       2.846   1.303  18.697  0.00  0.00    +0.000 OA
ATOM     14  H   UNL     1       2.106   1.411  18.073  0.00  0.00    +0.000 HD
ENDBRANCH   2  13
BRANCH   1  15
ATOM     15  C   UNL     1       2.257   3.858  17.618  0.00  0.00    +0.000 C 
BRANCH  15  19
ATOM     16  C   UNL     1       1.954   7.345  20.127  0.00  0.00    +0.000 A 
ATOM     17  C   UNL     1       2.311   7.481  18.783  0.00  0.00    +0.000 A 
ATOM     18  C   UNL     1       2.376   6.364  17.948  0.00  0.00    +0.000 A 
ATOM     19  C   UNL     1       2.097   5.094  18.462  0.00  0.00    +0.000 A 
ATOM     20  C   UNL     1       1.690   4.969  19.798  0.00  0.00    +0.000 A 
ATOM     21  C   UNL     1       1.626   6.086  20.624  0.00  0.00    +0.000 A 
BRANCH  16  23
ATOM     22  C   UNL     1       0.935   8.702  21.777  0.00  0.00    +0.000 C 
ATOM     23  O   UNL     1       1.997   8.503  20.853  0.00  0.00    +0.000 OA
ENDBRANCH  16  23
ENDBRANCH  15  19
ENDBRANCH   1  15
TORSDOF 7
ENDMDL
MODEL 9
REMARK VINA RESULT:      -6.8      1.762      5.428
REMARK  Name = 
REMARK  8 active torsions:
REMARK  status: ('A' for Active; 'I' for Inactive)
REMARK    1  A    between atoms: C_1  and  O_2
REMARK    2  A    between atoms: O_2  and  C_3
REMARK    3  A    between atoms: C_6  and  C_7
REMARK    4  A    between atoms: C_7  and  C_8
REMARK    5  A    between atoms: C_8  and  C_11
REMARK    6  A    between atoms: N_9  and  O_10
REMARK    7  A    between atoms: C_14  and  O_15
REMARK    8  A    between atoms: C_17  and  O_18
REMARK                            x       y       z     vdW  Elec       q    Type
REMARK                         _______ _______ _______ _____ _____    ______ ____
ROOT
ATOM      1  C   UNL     1       2.699   3.659  18.410  0.00  0.00    +0.000 C 
ATOM      2  N   UNL     1       1.713   2.969  17.902  0.00  0.00    +0.000 NA
ENDROOT
BRANCH   1   3
ATOM      3  C   UNL     1       2.324   5.001  19.008  0.00  0.00    +0.000 A 
ATOM      4  C   UNL     1       2.539   6.147  18.215  0.00  0.00    +0.000 A 
ATOM      5  C   UNL     1       2.317   7.429  18.726  0.00  0.00    +0.000 A 
ATOM      6  C   UNL     1       1.862   7.571  20.030  0.00  0.00    +0.000 A 
ATOM      7  C   UNL     1       1.594   6.460  20.814  0.00  0.00    +0.000 A 
ATOM      8  C   UNL     1       1.818   5.178  20.305  0.00  0.00    +0.000 A 
BRANCH   6   9
ATOM      9  O   UNL     1       1.667   8.796  20.591  0.00  0.00    +0.000 OA
ATOM     10  H   UNL     1       1.140   9.337  19.981  0.00  0.00    +0.000 HD
ENDBRANCH   6   9
BRANCH   8  11
ATOM     11  O   UNL     1       1.518   4.113  21.108  0.00  0.00    +0.000 OA
ATOM     12  H   UNL     1       1.023   4.419  21.885  0.00  0.00    +0.000 HD
ENDBRANCH   8  11
ENDBRANCH   1   3
BRANCH   2  13
ATOM     13  O   UNL     1       2.096   1.765  17.325  0.00  0.00    +0.000 OA
ATOM     14  H   UNL     1       1.285   1.461  16.882  0.00  0.00    +0.000 HD
ENDBRANCH   2  13
BRANCH   1  15
ATOM     15  C   UNL     1       4.191   3.305  18.454  0.00  0.00    +0.000 C 
BRANCH  15  19
ATOM     16  C   UNL     1       7.004   6.248  17.050  0.00  0.00    +0.000 A 
ATOM     17  C   UNL     1       6.914   5.965  18.415  0.00  0.00    +0.000 A 
ATOM     18  C   UNL     1       6.034   4.986  18.881  0.00  0.00    +0.000 A 
ATOM     19  C   UNL     1       5.224   4.292  17.978  0.00  0.00    +0.000 A 
ATOM     20  C   UNL     1       5.353   4.545  16.605  0.00  0.00    +0.000 A 
ATOM     21  C   UNL     1       6.233   5.521  16.147  0.00  0.00    +0.000 A 
BRANCH  16  23
ATOM     22  C   UNL     1       7.889   8.361  17.649  0.00  0.00    +0.000 C 
ATOM     23  O   UNL     1       7.849   7.276  16.731  0.00  0.00    +0.000 OA
ENDBRANCH  16  23
ENDBRANCH  15  19
ENDBRANCH   1  15
TORSDOF 7
ENDMDL
