MODEL 1
REMARK VINA RESULT:      -8.0      0.000      0.000
REMARK  Name = 
REMARK  3 active torsions:
REMARK  status: ('A' for Active; 'I' for Inactive)
REMARK    1  A    between atoms: C_2  and  C_4
REMARK    2  A    between atoms: C_4  and  C_5
REMARK    3  A    between atoms: C_10  and  C_11
REMARK                            x       y       z     vdW  Elec       q    Type
REMARK                         _______ _______ _______ _____ _____    ______ ____
ROOT
ATOM      1  C   UNL     1       6.483   4.263  14.208  0.00  0.00    +0.000 A 
ATOM      2  C   UNL     1       7.386   5.037  14.942  0.00  0.00    +0.000 A 
ATOM      3  C   UNL     1       7.220   5.243  16.317  0.00  0.00    +0.000 A 
ATOM      4  C   UNL     1       6.102   4.672  16.944  0.00  0.00    +0.000 A 
ATOM      5  S   UNL     1       5.609   4.765  18.588  0.00  0.00    +0.000 S 
ATOM      6  C   UNL     1       4.200   3.840  18.234  0.00  0.00    +0.000 A 
ATOM      7  N   UNL     1       4.107   3.437  16.981  0.00  0.00    +0.000 NA
ATOM      8  C   UNL     1       5.176   3.907  16.240  0.00  0.00    +0.000 A 
ATOM      9  C   UNL     1       5.377   3.692  14.861  0.00  0.00    +0.000 A 
ENDROOT
BRANCH   6  10
ATOM     10  C   UNL     1       3.157   3.604  19.251  0.00  0.00    +0.000 A 
ATOM     11  C   UNL     1       3.497   2.887  20.412  0.00  0.00    +0.000 A 
ATOM     12  C   UNL     1       2.540   2.596  21.387  0.00  0.00    +0.000 A 
ATOM     13  C   UNL     1       1.228   3.028  21.223  0.00  0.00    +0.000 A 
ATOM     14  C   UNL     1       0.875   3.758  20.092  0.00  0.00    +0.000 A 
ATOM     15  C   UNL     1       1.833   4.046  19.113  0.00  0.00    +0.000 A 
ENDBRANCH   6  10
BRANCH   1  16
ATOM     16  C   UNL     1       6.661   4.080  12.720  0.00  0.00    +0.000 C 
BRANCH  16  18
ATOM     17  N   UNL     1       6.055   1.892  11.825  0.00  0.00    +0.000 N 
ATOM     18  C   UNL     1       5.620   3.154  12.124  0.00  0.00    +0.000 C 
ATOM     19  O   UNL     1       4.458   3.484  11.915  0.00  0.00    +0.000 OA
ATOM     20  H   UNL     1       5.358   1.232  11.502  0.00  0.00    +0.000 HD
ATOM     21  H   UNL     1       6.938   1.531  12.153  0.00  0.00    +0.000 HD
ENDBRANCH  16  18
ENDBRANCH   1  16
TORSDOF 3
ENDMDL
MODEL 2
REMARK VINA RESULT:      -8.0      0.147      1.114
REMARK  Name = 
REMARK  3 active torsions:
REMARK  status: ('A' for Active; 'I' for Inactive)
REMARK    1  A    between atoms: C_2  and  C_4
REMARK    2  A    between atoms: C_4  and  C_5
REMARK    3  A    between atoms: C_10  and  C_11
REMARK                            x       y       z     vdW  Elec       q    Type
REMARK                         _______ _______ _______ _____ _____    ______ ____
ROOT
ATOM      1  C   UNL     1       6.402   4.349  14.220  0.00  0.00    +0.000 A 
ATOM      2  C   UNL     1       7.359   5.029  14.980  0.00  0.00    +0.000 A 
ATOM      3  C   UNL     1       7.246   5.132  16.371  0.00  0.00    +0.000 A 
ATOM      4  C   UNL     1       6.127   4.555  16.991  0.00  0.00    +0.000 A 
ATOM      5  S   UNL     1       5.692   4.536  18.654  0.00  0.00    +0.000 S 
ATOM      6  C   UNL     1       4.237   3.694  18.280  0.00  0.00    +0.000 A 
ATOM      7  N   UNL     1       4.087   3.395  17.004  0.00  0.00    +0.000 NA
ATOM      8  C   UNL     1       5.149   3.882  16.263  0.00  0.00    +0.000 A 
ATOM      9  C   UNL     1       5.296   3.769  14.866  0.00  0.00    +0.000 A 
ENDROOT
BRANCH   6  10
ATOM     10  C   UNL     1       3.219   3.416  19.312  0.00  0.00    +0.000 A 
ATOM     11  C   UNL     1       1.899   3.845  19.090  0.00  0.00    +0.000 A 
ATOM     12  C   UNL     1       0.904   3.648  20.049  0.00  0.00    +0.000 A 
ATOM     13  C   UNL     1       1.210   3.007  21.246  0.00  0.00    +0.000 A 
ATOM     14  C   UNL     1       2.506   2.555  21.478  0.00  0.00    +0.000 A 
ATOM     15  C   UNL     1       3.504   2.756  20.517  0.00  0.00    +0.000 A 
ENDBRANCH   6  10
BRANCH   1  16
ATOM     16  C   UNL     1       6.525   4.277  12.717  0.00  0.00    +0.000 C 
BRANCH  16  18
ATOM     17  N   UNL     1       6.201   2.006  11.886  0.00  0.00    +0.000 N 
ATOM     18  C   UNL     1       5.619   3.222  12.114  0.00  0.00    +0.000 C 
ATOM     19  O   UNL     1       4.439   3.415  11.841  0.00  0.00    +0.000 OA
ATOM     20  H   UNL     1       5.596   1.263  11.560  0.00  0.00    +0.000 HD
ATOM     21  H   UNL     1       7.102   1.755  12.267  0.00  0.00    +0.000 HD
ENDBRANCH  16  18
ENDBRANCH   1  16
TORSDOF 3
ENDMDL
MODEL 3
REMARK VINA RESULT:      -7.6      3.974      4.998
REMARK  Name = 
REMARK  3 active torsions:
REMARK  status: ('A' for Active; 'I' for Inactive)
REMARK    1  A    between atoms: C_2  and  C_4
REMARK    2  A    between atoms: C_4  and  C_5
REMARK    3  A    between atoms: C_10  and  C_11
REMARK                            x       y       z     vdW  Elec       q    Type
REMARK                         _______ _______ _______ _____ _____    ______ ____
ROOT
ATOM      1  C   UNL     1       4.833   4.382  16.930  0.00  0.00    +0.000 A 
ATOM      2  C   UNL     1       4.537   3.411  17.892  0.00  0.00    +0.000 A 
ATOM      3  C   UNL     1       3.684   3.688  18.967  0.00  0.00    +0.000 A 
ATOM      4  C   UNL     1       3.149   4.981  19.075  0.00  0.00    +0.000 A 
ATOM      5  S   UNL     1       2.109   5.632  20.279  0.00  0.00    +0.000 S 
ATOM      6  C   UNL     1       2.157   7.172  19.509  0.00  0.00    +0.000 A 
ATOM      7  N   UNL     1       2.863   7.209  18.395  0.00  0.00    +0.000 NA
ATOM      8  C   UNL     1       3.434   5.974  18.142  0.00  0.00    +0.000 A 
ATOM      9  C   UNL     1       4.275   5.666  17.054  0.00  0.00    +0.000 A 
ENDROOT
BRANCH   6  10
ATOM     10  C   UNL     1       1.520   8.357  20.114  0.00  0.00    +0.000 A 
ATOM     11  C   UNL     1       1.252   8.349  21.495  0.00  0.00    +0.000 A 
ATOM     12  C   UNL     1       0.612   9.424  22.113  0.00  0.00    +0.000 A 
ATOM     13  C   UNL     1       0.237  10.534  21.363  0.00  0.00    +0.000 A 
ATOM     14  C   UNL     1       0.512  10.573  19.999  0.00  0.00    +0.000 A 
ATOM     15  C   UNL     1       1.150   9.493  19.379  0.00  0.00    +0.000 A 
ENDBRANCH   6  10
BRANCH   1  16
ATOM     16  C   UNL     1       5.781   4.074  15.796  0.00  0.00    +0.000 C 
BRANCH  16  18
ATOM     17  N   UNL     1       7.862   4.318  17.047  0.00  0.00    +0.000 N 
ATOM     18  C   UNL     1       7.129   4.742  15.973  0.00  0.00    +0.000 C 
ATOM     19  O   UNL     1       7.564   5.605  15.218  0.00  0.00    +0.000 OA
ATOM     20  H   UNL     1       8.798   4.691  17.139  0.00  0.00    +0.000 HD
ATOM     21  H   UNL     1       7.624   3.490  17.573  0.00  0.00    +0.000 HD
ENDBRANCH  16  18
ENDBRANCH   1  16
TORSDOF 3
ENDMDL
MODEL 4
REMARK VINA RESULT:      -7.5      3.007      7.300
REMARK  Name = 
REMARK  3 active torsions:
REMARK  status: ('A' for Active; 'I' for Inactive)
REMARK    1  A    between atoms: C_2  and  C_4
REMARK    2  A    between atoms: C_4  and  C_5
REMARK    3  A    between atoms: C_10  and  C_11
REMARK                            x       y       z     vdW  Elec       q    Type
REMARK                         _______ _______ _______ _____ _____    ______ ____
ROOT
ATOM      1  C   UNL     1       3.454   3.480  19.752  0.00  0.00    +0.000 A 
ATOM      2  C   UNL     1       3.452   4.859  19.976  0.00  0.00    +0.000 A 
ATOM      3  C   UNL     1       3.909   5.757  19.004  0.00  0.00    +0.000 A 
ATOM      4  C   UNL     1       4.399   5.235  17.796  0.00  0.00    +0.000 A 
ATOM      5  S   UNL     1       5.049   6.062  16.437  0.00  0.00    +0.000 S 
ATOM      6  C   UNL     1       5.360   4.560  15.653  0.00  0.00    +0.000 A 
ATOM      7  N   UNL     1       4.969   3.496  16.328  0.00  0.00    +0.000 NA
ATOM      8  C   UNL     1       4.427   3.866  17.546  0.00  0.00    +0.000 A 
ATOM      9  C   UNL     1       3.939   2.982  18.530  0.00  0.00    +0.000 A 
ENDROOT
BRANCH   6  10
ATOM     10  C   UNL     1       6.083   4.496  14.369  0.00  0.00    +0.000 A 
ATOM     11  C   UNL     1       5.627   3.605  13.381  0.00  0.00    +0.000 A 
ATOM     12  C   UNL     1       6.297   3.471  12.163  0.00  0.00    +0.000 A 
ATOM     13  C   UNL     1       7.431   4.235  11.907  0.00  0.00    +0.000 A 
ATOM     14  C   UNL     1       7.888   5.139  12.862  0.00  0.00    +0.000 A 
ATOM     15  C   UNL     1       7.218   5.270  14.083  0.00  0.00    +0.000 A 
ENDBRANCH   6  10
BRANCH   1  16
ATOM     16  C   UNL     1       2.988   2.527  20.825  0.00  0.00    +0.000 C 
BRANCH  16  18
ATOM     17  N   UNL     1       0.685   2.964  20.146  0.00  0.00    +0.000 N 
ATOM     18  C   UNL     1       1.533   2.740  21.195  0.00  0.00    +0.000 C 
ATOM     19  O   UNL     1       1.115   2.715  22.347  0.00  0.00    +0.000 OA
ATOM     20  H   UNL     1      -0.302   3.028  20.361  0.00  0.00    +0.000 HD
ATOM     21  H   UNL     1       0.955   2.805  19.187  0.00  0.00    +0.000 HD
ENDBRANCH  16  18
ENDBRANCH   1  16
TORSDOF 3
ENDMDL
MODEL 5
REMARK VINA RESULT:      -7.5      4.095      5.122
REMARK  Name = 
REMARK  3 active torsions:
REMARK  status: ('A' for Active; 'I' for Inactive)
REMARK    1  A    between atoms: C_2  and  C_4
REMARK    2  A    between atoms: C_4  and  C_5
REMARK    3  A    between atoms: C_10  and  C_11
REMARK                            x       y       z     vdW  Elec       q    Type
REMARK                         _______ _______ _______ _____ _____    ______ ____
ROOT
ATOM      1  C   UNL     1       4.837   4.306  16.994  0.00  0.00    +0.000 A 
ATOM      2  C   UNL     1       4.539   3.343  17.963  0.00  0.00    +0.000 A 
ATOM      3  C   UNL     1       3.688   3.629  19.037  0.00  0.00    +0.000 A 
ATOM      4  C   UNL     1       3.157   4.924  19.137  0.00  0.00    +0.000 A 
ATOM      5  S   UNL     1       2.121   5.586  20.338  0.00  0.00    +0.000 S 
ATOM      6  C   UNL     1       2.174   7.121  19.559  0.00  0.00    +0.000 A 
ATOM      7  N   UNL     1       2.879   7.149  18.444  0.00  0.00    +0.000 NA
ATOM      8  C   UNL     1       3.445   5.911  18.198  0.00  0.00    +0.000 A 
ATOM      9  C   UNL     1       4.284   5.593  17.110  0.00  0.00    +0.000 A 
ENDROOT
BRANCH   6  10
ATOM     10  C   UNL     1       1.541   8.312  20.157  0.00  0.00    +0.000 A 
ATOM     11  C   UNL     1       1.179   9.379  19.316  0.00  0.00    +0.000 A 
ATOM     12  C   UNL     1       0.617  10.548  19.832  0.00  0.00    +0.000 A 
ATOM     13  C   UNL     1       0.396  10.668  21.201  0.00  0.00    +0.000 A 
ATOM     14  C   UNL     1       0.726   9.615  22.050  0.00  0.00    +0.000 A 
ATOM     15  C   UNL     1       1.293   8.445  21.532  0.00  0.00    +0.000 A 
ENDBRANCH   6  10
BRANCH   1  16
ATOM     16  C   UNL     1       5.782   3.988  15.861  0.00  0.00    +0.000 C 
BRANCH  16  18
ATOM     17  N   UNL     1       7.513   5.519  15.076  0.00  0.00    +0.000 N 
ATOM     18  C   UNL     1       7.143   4.631  16.046  0.00  0.00    +0.000 C 
ATOM     19  O   UNL     1       7.883   4.392  16.995  0.00  0.00    +0.000 OA
ATOM     20  H   UNL     1       8.380   6.021  15.220  0.00  0.00    +0.000 HD
ATOM     21  H   UNL     1       6.862   5.878  14.392  0.00  0.00    +0.000 HD
ENDBRANCH  16  18
ENDBRANCH   1  16
TORSDOF 3
ENDMDL
MODEL 6
REMARK VINA RESULT:      -7.3      2.961      7.326
REMARK  Name = 
REMARK  3 active torsions:
REMARK  status: ('A' for Active; 'I' for Inactive)
REMARK    1  A    between atoms: C_2  and  C_4
REMARK    2  A    between atoms: C_4  and  C_5
REMARK    3  A    between atoms: C_10  and  C_11
REMARK                            x       y       z     vdW  Elec       q    Type
REMARK                         _______ _______ _______ _____ _____    ______ ____
ROOT
ATOM      1  C   UNL     1       2.105   4.194  19.462  0.00  0.00    +0.000 A 
ATOM      2  C   UNL     1       2.547   5.457  19.865  0.00  0.00    +0.000 A 
ATOM      3  C   UNL     1       3.432   6.205  19.080  0.00  0.00    +0.000 A 
ATOM      4  C   UNL     1       3.893   5.642  17.879  0.00  0.00    +0.000 A 
ATOM      5  S   UNL     1       4.992   6.285  16.726  0.00  0.00    +0.000 S 
ATOM      6  C   UNL     1       4.881   4.842  15.792  0.00  0.00    +0.000 A 
ATOM      7  N   UNL     1       4.045   3.941  16.270  0.00  0.00    +0.000 NA
ATOM      8  C   UNL     1       3.483   4.380  17.455  0.00  0.00    +0.000 A 
ATOM      9  C   UNL     1       2.571   3.656  18.250  0.00  0.00    +0.000 A 
ENDROOT
BRANCH   6  10
ATOM     10  C   UNL     1       5.728   4.626  14.603  0.00  0.00    +0.000 A 
ATOM     11  C   UNL     1       5.265   3.764  13.593  0.00  0.00    +0.000 A 
ATOM     12  C   UNL     1       6.042   3.488  12.466  0.00  0.00    +0.000 A 
ATOM     13  C   UNL     1       7.294   4.079  12.324  0.00  0.00    +0.000 A 
ATOM     14  C   UNL     1       7.763   4.953  13.301  0.00  0.00    +0.000 A 
ATOM     15  C   UNL     1       6.985   5.226  14.432  0.00  0.00    +0.000 A 
ENDBRANCH   6  10
BRANCH   1  16
ATOM     16  C   UNL     1       1.176   3.390  20.339  0.00  0.00    +0.000 C 
BRANCH  16  18
ATOM     17  N   UNL     1       1.120   2.276  22.509  0.00  0.00    +0.000 N 
ATOM     18  C   UNL     1       1.906   2.700  21.474  0.00  0.00    +0.000 C 
ATOM     19  O   UNL     1       3.118   2.516  21.488  0.00  0.00    +0.000 OA
ATOM     20  H   UNL     1       1.574   1.740  23.239  0.00  0.00    +0.000 HD
ATOM     21  H   UNL     1       0.113   2.239  22.447  0.00  0.00    +0.000 HD
ENDBRANCH  16  18
ENDBRANCH   1  16
TORSDOF 3
ENDMDL
MODEL 7
REMARK VINA RESULT:      -7.3      2.692      7.152
REMARK  Name = 
REMARK  3 active torsions:
REMARK  status: ('A' for Active; 'I' for Inactive)
REMARK    1  A    between atoms: C_2  and  C_4
REMARK    2  A    between atoms: C_4  and  C_5
REMARK    3  A    between atoms: C_10  and  C_11
REMARK                            x       y       z     vdW  Elec       q    Type
REMARK                         _______ _______ _______ _____ _____    ______ ____
ROOT
ATOM      1  C   UNL     1       2.632   4.562  19.310  0.00  0.00    +0.000 A 
ATOM      2  C   UNL     1       3.688   5.169  19.997  0.00  0.00    +0.000 A 
ATOM      3  C   UNL     1       4.877   5.519  19.345  0.00  0.00    +0.000 A 
ATOM      4  C   UNL     1       4.997   5.220  17.979  0.00  0.00    +0.000 A 
ATOM      5  S   UNL     1       6.322   5.491  16.918  0.00  0.00    +0.000 S 
ATOM      6  C   UNL     1       5.464   4.736  15.630  0.00  0.00    +0.000 A 
ATOM      7  N   UNL     1       4.245   4.340  15.938  0.00  0.00    +0.000 NA
ATOM      8  C   UNL     1       3.971   4.604  17.268  0.00  0.00    +0.000 A 
ATOM      9  C   UNL     1       2.773   4.283  17.940  0.00  0.00    +0.000 A 
ENDROOT
BRANCH   6  10
ATOM     10  C   UNL     1       6.098   4.491  14.320  0.00  0.00    +0.000 A 
ATOM     11  C   UNL     1       7.267   5.201  13.993  0.00  0.00    +0.000 A 
ATOM     12  C   UNL     1       7.886   5.041  12.751  0.00  0.00    +0.000 A 
ATOM     13  C   UNL     1       7.351   4.159  11.817  0.00  0.00    +0.000 A 
ATOM     14  C   UNL     1       6.207   3.430  12.128  0.00  0.00    +0.000 A 
ATOM     15  C   UNL     1       5.586   3.593  13.371  0.00  0.00    +0.000 A 
ENDBRANCH   6  10
BRANCH   1  16
ATOM     16  C   UNL     1       1.372   4.164  20.038  0.00  0.00    +0.000 C 
BRANCH  16  18
ATOM     17  N   UNL     1       1.548   2.649  21.944  0.00  0.00    +0.000 N 
ATOM     18  C   UNL     1       1.442   2.751  20.584  0.00  0.00    +0.000 C 
ATOM     19  O   UNL     1       1.405   1.748  19.879  0.00  0.00    +0.000 OA
ATOM     20  H   UNL     1       1.515   1.717  22.337  0.00  0.00    +0.000 HD
ATOM     21  H   UNL     1       1.392   3.432  22.561  0.00  0.00    +0.000 HD
ENDBRANCH  16  18
ENDBRANCH   1  16
TORSDOF 3
ENDMDL
MODEL 8
REMARK VINA RESULT:      -7.2      5.537      8.181
REMARK  Name = 
REMARK  3 active torsions:
REMARK  status: ('A' for Active; 'I' for Inactive)
REMARK    1  A    between atoms: C_2  and  C_4
REMARK    2  A    between atoms: C_4  and  C_5
REMARK    3  A    between atoms: C_10  and  C_11
REMARK                            x       y       z     vdW  Elec       q    Type
REMARK                         _______ _______ _______ _____ _____    ______ ____
ROOT
ATOM      1  C   UNL     1       0.397  10.141  19.566  0.00  0.00    +0.000 A 
ATOM      2  C   UNL     1       0.294   9.373  20.730  0.00  0.00    +0.000 A 
ATOM      3  C   UNL     1       1.020   8.186  20.886  0.00  0.00    +0.000 A 
ATOM      4  C   UNL     1       1.841   7.766  19.828  0.00  0.00    +0.000 A 
ATOM      5  S   UNL     1       2.822   6.360  19.703  0.00  0.00    +0.000 S 
ATOM      6  C   UNL     1       3.277   6.801  18.102  0.00  0.00    +0.000 A 
ATOM      7  N   UNL     1       2.775   7.947  17.683  0.00  0.00    +0.000 NA
ATOM      8  C   UNL     1       1.957   8.501  18.651  0.00  0.00    +0.000 A 
ATOM      9  C   UNL     1       1.235   9.705  18.526  0.00  0.00    +0.000 A 
ENDROOT
BRANCH   6  10
ATOM     10  C   UNL     1       4.095   5.908  17.259  0.00  0.00    +0.000 A 
ATOM     11  C   UNL     1       4.922   6.480  16.276  0.00  0.00    +0.000 A 
ATOM     12  C   UNL     1       5.686   5.682  15.421  0.00  0.00    +0.000 A 
ATOM     13  C   UNL     1       5.644   4.296  15.541  0.00  0.00    +0.000 A 
ATOM     14  C   UNL     1       4.848   3.710  16.522  0.00  0.00    +0.000 A 
ATOM     15  C   UNL     1       4.081   4.510  17.376  0.00  0.00    +0.000 A 
ENDBRANCH   6  10
BRANCH   1  16
ATOM     16  C   UNL     1      -0.419  11.401  19.404  0.00  0.00    +0.000 C 
BRANCH  16  18
ATOM     17  N   UNL     1      -1.470  12.330  17.407  0.00  0.00    +0.000 N 
ATOM     18  C   UNL     1      -1.441  11.287  18.290  0.00  0.00    +0.000 C 
ATOM     19  O   UNL     1      -2.201  10.333  18.161  0.00  0.00    +0.000 OA
ATOM     20  H   UNL     1      -2.087  12.239  16.610  0.00  0.00    +0.000 HD
ATOM     21  H   UNL     1      -0.744  13.030  17.370  0.00  0.00    +0.000 HD
ENDBRANCH  16  18
ENDBRANCH   1  16
TORSDOF 3
ENDMDL
MODEL 9
REMARK VINA RESULT:      -7.2      2.608      7.129
REMARK  Name = 
REMARK  3 active torsions:
REMARK  status: ('A' for Active; 'I' for Inactive)
REMARK    1  A    between atoms: C_2  and  C_4
REMARK    2  A    between atoms: C_4  and  C_5
REMARK    3  A    between atoms: C_10  and  C_11
REMARK                            x       y       z     vdW  Elec       q    Type
REMARK                         _______ _______ _______ _____ _____    ______ ____
ROOT
ATOM      1  C   UNL     1       2.792   4.736  19.286  0.00  0.00    +0.000 A 
ATOM      2  C   UNL     1       3.957   4.766  20.060  0.00  0.00    +0.000 A 
ATOM      3  C   UNL     1       5.224   4.809  19.467  0.00  0.00    +0.000 A 
ATOM      4  C   UNL     1       5.303   4.795  18.066  0.00  0.00    +0.000 A 
ATOM      5  S   UNL     1       6.692   4.810  17.053  0.00  0.00    +0.000 S 
ATOM      6  C   UNL     1       5.692   4.708  15.654  0.00  0.00    +0.000 A 
ATOM      7  N   UNL     1       4.396   4.708  15.903  0.00  0.00    +0.000 NA
ATOM      8  C   UNL     1       4.164   4.752  17.266  0.00  0.00    +0.000 A 
ATOM      9  C   UNL     1       2.897   4.734  17.885  0.00  0.00    +0.000 A 
ENDROOT
BRANCH   6  10
ATOM     10  C   UNL     1       6.267   4.550  14.305  0.00  0.00    +0.000 A 
ATOM     11  C   UNL     1       5.687   3.615  13.429  0.00  0.00    +0.000 A 
ATOM     12  C   UNL     1       6.215   3.393  12.156  0.00  0.00    +0.000 A 
ATOM     13  C   UNL     1       7.329   4.110  11.731  0.00  0.00    +0.000 A 
ATOM     14  C   UNL     1       7.906   5.057  12.573  0.00  0.00    +0.000 A 
ATOM     15  C   UNL     1       7.378   5.276  13.851  0.00  0.00    +0.000 A 
ENDBRANCH   6  10
BRANCH   1  16
ATOM     16  C   UNL     1       1.436   4.656  19.944  0.00  0.00    +0.000 C 
BRANCH  16  18
ATOM     17  N   UNL     1       1.059   2.727  21.391  0.00  0.00    +0.000 N 
ATOM     18  C   UNL     1       0.964   3.227  20.122  0.00  0.00    +0.000 C 
ATOM     19  O   UNL     1       0.517   2.541  19.208  0.00  0.00    +0.000 OA
ATOM     20  H   UNL     1       0.674   1.805  21.550  0.00  0.00    +0.000 HD
ATOM     21  H   UNL     1       1.239   3.314  22.193  0.00  0.00    +0.000 HD
ENDBRANCH  16  18
ENDBRANCH   1  16
TORSDOF 3
ENDMDL
