MODEL 1
REMARK VINA RESULT:      -4.4      0.000      0.000
REMARK  Name = 
REMARK  8 active torsions:
REMARK  status: ('A' for Active; 'I' for Inactive)
REMARK    1  A    between atoms: C_1  and  C_2
REMARK    2  A    between atoms: C_2  and  O_4
REMARK    3  A    between atoms: O_4  and  C_5
REMARK    4  A    between atoms: C_5  and  C_6
REMARK    5  A    between atoms: C_6  and  N_7
REMARK    6  A    between atoms: N_7  and  C_8
REMARK    7  A    between atoms: N_7  and  C_9
REMARK    8  A    between atoms: N_7  and  C_10
REMARK                            x       y       z     vdW  Elec       q    Type
REMARK                         _______ _______ _______ _____ _____    ______ ____
ROOT
ATOM      1  C   UNL     1       5.337   4.639  19.066  0.00  0.00    +0.000 C 
ENDROOT
BRANCH   1   2
ATOM      2  O   UNL     1       6.696   4.463  18.872  0.00  0.00    +0.000 OA
BRANCH   2   4
ATOM      3  C   UNL     1       7.435   6.530  17.751  0.00  0.00    +0.000 C 
ATOM      4  C   UNL     1       7.415   5.039  17.871  0.00  0.00    +0.000 C 
ATOM      5  O   UNL     1       8.011   4.359  17.049  0.00  0.00    +0.000 OA
ENDBRANCH   2   4
ENDBRANCH   1   2
BRANCH   1   6
ATOM      6  C   UNL     1       4.513   3.990  17.926  0.00  0.00    +0.000 C 
BRANCH   6   7
ATOM      7  N   UNL     1       3.277   3.271  18.365  0.00  0.00    +0.000 N 
ATOM      8  C   UNL     1       2.066   3.793  17.687  0.00  0.00    +0.000 C 
ATOM      9  C   UNL     1       3.393   1.813  18.118  0.00  0.00    +0.000 C 
ATOM     10  C   UNL     1       3.114   3.479  19.826  0.00  0.00    +0.000 C 
ENDBRANCH   6   7
ENDBRANCH   1   6
TORSDOF 4
ENDMDL
MODEL 2
REMARK VINA RESULT:      -4.3      2.258      2.908
REMARK  Name = 
REMARK  8 active torsions:
REMARK  status: ('A' for Active; 'I' for Inactive)
REMARK    1  A    between atoms: C_1  and  C_2
REMARK    2  A    between atoms: C_2  and  O_4
REMARK    3  A    between atoms: O_4  and  C_5
REMARK    4  A    between atoms: C_5  and  C_6
REMARK    5  A    between atoms: C_6  and  N_7
REMARK    6  A    between atoms: N_7  and  C_8
REMARK    7  A    between atoms: N_7  and  C_9
REMARK    8  A    between atoms: N_7  and  C_10
REMARK                            x       y       z     vdW  Elec       q    Type
REMARK                         _______ _______ _______ _____ _____    ______ ____
ROOT
ATOM      1  C   UNL     1       7.066   5.443  17.215  0.00  0.00    +0.000 C 
ENDROOT
BRANCH   1   2
ATOM      2  O   UNL     1       7.480   4.656  16.154  0.00  0.00    +0.000 OA
BRANCH   2   4
ATOM      3  C   UNL     1       5.863   4.168  14.360  0.00  0.00    +0.000 C 
ATOM      4  C   UNL     1       7.102   4.840  14.861  0.00  0.00    +0.000 C 
ATOM      5  O   UNL     1       7.777   5.512  14.095  0.00  0.00    +0.000 OA
ENDBRANCH   2   4
ENDBRANCH   1   2
BRANCH   1   6
ATOM      6  C   UNL     1       6.092   4.676  18.144  0.00  0.00    +0.000 C 
BRANCH   6   7
ATOM      7  N   UNL     1       4.653   5.065  18.016  0.00  0.00    +0.000 N 
ATOM      8  C   UNL     1       4.485   6.297  17.208  0.00  0.00    +0.000 C 
ATOM      9  C   UNL     1       3.857   3.967  17.415  0.00  0.00    +0.000 C 
ATOM     10  C   UNL     1       4.121   5.328  19.377  0.00  0.00    +0.000 C 
ENDBRANCH   6   7
ENDBRANCH   1   6
TORSDOF 4
ENDMDL
MODEL 3
REMARK VINA RESULT:      -4.2      0.800      1.399
REMARK  Name = 
REMARK  8 active torsions:
REMARK  status: ('A' for Active; 'I' for Inactive)
REMARK    1  A    between atoms: C_1  and  C_2
REMARK    2  A    between atoms: C_2  and  O_4
REMARK    3  A    between atoms: O_4  and  C_5
REMARK    4  A    between atoms: C_5  and  C_6
REMARK    5  A    between atoms: C_6  and  N_7
REMARK    6  A    between atoms: N_7  and  C_8
REMARK    7  A    between atoms: N_7  and  C_9
REMARK    8  A    between atoms: N_7  and  C_10
REMARK                            x       y       z     vdW  Elec       q    Type
REMARK                         _______ _______ _______ _____ _____    ______ ____
ROOT
ATOM      1  C   UNL     1       5.301   4.918  19.156  0.00  0.00    +0.000 C 
ENDROOT
BRANCH   1   2
ATOM      2  O   UNL     1       6.469   4.337  18.693  0.00  0.00    +0.000 OA
BRANCH   2   4
ATOM      3  C   UNL     1       7.632   6.438  18.139  0.00  0.00    +0.000 C 
ATOM      4  C   UNL     1       7.402   4.973  17.936  0.00  0.00    +0.000 C 
ATOM      5  O   UNL     1       8.026   4.378  17.070  0.00  0.00    +0.000 OA
ENDBRANCH   2   4
ENDBRANCH   1   2
BRANCH   1   6
ATOM      6  C   UNL     1       4.118   4.660  18.190  0.00  0.00    +0.000 C 
BRANCH   6   7
ATOM      7  N   UNL     1       2.846   4.224  18.845  0.00  0.00    +0.000 N 
ATOM      8  C   UNL     1       2.542   5.034  20.050  0.00  0.00    +0.000 C 
ATOM      9  C   UNL     1       1.707   4.298  17.899  0.00  0.00    +0.000 C 
ATOM     10  C   UNL     1       3.003   2.809  19.267  0.00  0.00    +0.000 C 
ENDBRANCH   6   7
ENDBRANCH   1   6
TORSDOF 4
ENDMDL
MODEL 4
REMARK VINA RESULT:      -4.2      2.326      3.043
REMARK  Name = 
REMARK  8 active torsions:
REMARK  status: ('A' for Active; 'I' for Inactive)
REMARK    1  A    between atoms: C_1  and  C_2
REMARK    2  A    between atoms: C_2  and  O_4
REMARK    3  A    between atoms: O_4  and  C_5
REMARK    4  A    between atoms: C_5  and  C_6
REMARK    5  A    between atoms: C_6  and  N_7
REMARK    6  A    between atoms: N_7  and  C_8
REMARK    7  A    between atoms: N_7  and  C_9
REMARK    8  A    between atoms: N_7  and  C_10
REMARK                            x       y       z     vdW  Elec       q    Type
REMARK                         _______ _______ _______ _____ _____    ______ ____
ROOT
ATOM      1  C   UNL     1       5.228   6.354  16.628  0.00  0.00    +0.000 C 
ENDROOT
BRANCH   1   2
ATOM      2  O   UNL     1       5.845   6.042  15.428  0.00  0.00    +0.000 OA
BRANCH   2   4
ATOM      3  C   UNL     1       6.223   3.938  14.203  0.00  0.00    +0.000 C 
ATOM      4  C   UNL     1       6.632   4.953  15.223  0.00  0.00    +0.000 C 
ATOM      5  O   UNL     1       7.645   4.772  15.884  0.00  0.00    +0.000 OA
ENDBRANCH   2   4
ENDBRANCH   1   2
BRANCH   1   6
ATOM      6  C   UNL     1       4.430   5.149  17.184  0.00  0.00    +0.000 C 
BRANCH   6   7
ATOM      7  N   UNL     1       4.662   4.846  18.631  0.00  0.00    +0.000 N 
ATOM      8  C   UNL     1       4.471   3.406  18.929  0.00  0.00    +0.000 C 
ATOM      9  C   UNL     1       6.022   5.262  19.050  0.00  0.00    +0.000 C 
ATOM     10  C   UNL     1       3.678   5.618  19.430  0.00  0.00    +0.000 C 
ENDBRANCH   6   7
ENDBRANCH   1   6
TORSDOF 4
ENDMDL
MODEL 5
REMARK VINA RESULT:      -4.2      1.613      2.323
REMARK  Name = 
REMARK  8 active torsions:
REMARK  status: ('A' for Active; 'I' for Inactive)
REMARK    1  A    between atoms: C_1  and  C_2
REMARK    2  A    between atoms: C_2  and  O_4
REMARK    3  A    between atoms: O_4  and  C_5
REMARK    4  A    between atoms: C_5  and  C_6
REMARK    5  A    between atoms: C_6  and  N_7
REMARK    6  A    between atoms: N_7  and  C_8
REMARK    7  A    between atoms: N_7  and  C_9
REMARK    8  A    between atoms: N_7  and  C_10
REMARK                            x       y       z     vdW  Elec       q    Type
REMARK                         _______ _______ _______ _____ _____    ______ ____
ROOT
ATOM      1  C   UNL     1       5.024   4.497  18.420  0.00  0.00    +0.000 C 
ENDROOT
BRANCH   1   2
ATOM      2  O   UNL     1       6.377   4.360  18.678  0.00  0.00    +0.000 OA
BRANCH   2   4
ATOM      3  C   UNL     1       7.517   6.405  17.909  0.00  0.00    +0.000 C 
ATOM      4  C   UNL     1       7.366   4.917  17.929  0.00  0.00    +0.000 C 
ATOM      5  O   UNL     1       8.108   4.225  17.247  0.00  0.00    +0.000 OA
ENDBRANCH   2   4
ENDBRANCH   1   2
BRANCH   1   6
ATOM      6  C   UNL     1       4.322   5.346  19.510  0.00  0.00    +0.000 C 
BRANCH   6   7
ATOM      7  N   UNL     1       2.845   5.507  19.337  0.00  0.00    +0.000 N 
ATOM      8  C   UNL     1       2.087   4.832  20.419  0.00  0.00    +0.000 C 
ATOM      9  C   UNL     1       2.468   6.940  19.288  0.00  0.00    +0.000 C 
ATOM     10  C   UNL     1       2.459   4.885  18.045  0.00  0.00    +0.000 C 
ENDBRANCH   6   7
ENDBRANCH   1   6
TORSDOF 4
ENDMDL
MODEL 6
REMARK VINA RESULT:      -4.2      2.394      3.182
REMARK  Name = 
REMARK  8 active torsions:
REMARK  status: ('A' for Active; 'I' for Inactive)
REMARK    1  A    between atoms: C_1  and  C_2
REMARK    2  A    between atoms: C_2  and  O_4
REMARK    3  A    between atoms: O_4  and  C_5
REMARK    4  A    between atoms: C_5  and  C_6
REMARK    5  A    between atoms: C_6  and  N_7
REMARK    6  A    between atoms: N_7  and  C_8
REMARK    7  A    between atoms: N_7  and  C_9
REMARK    8  A    between atoms: N_7  and  C_10
REMARK                            x       y       z     vdW  Elec       q    Type
REMARK                         _______ _______ _______ _____ _____    ______ ____
ROOT
ATOM      1  C   UNL     1       5.102   6.376  16.615  0.00  0.00    +0.000 C 
ENDROOT
BRANCH   1   2
ATOM      2  O   UNL     1       5.709   6.093  15.403  0.00  0.00    +0.000 OA
BRANCH   2   4
ATOM      3  C   UNL     1       6.078   4.014  14.133  0.00  0.00    +0.000 C 
ATOM      4  C   UNL     1       6.498   5.011  15.167  0.00  0.00    +0.000 C 
ATOM      5  O   UNL     1       7.520   4.822  15.810  0.00  0.00    +0.000 OA
ENDBRANCH   2   4
ENDBRANCH   1   2
BRANCH   1   6
ATOM      6  C   UNL     1       4.398   5.126  17.201  0.00  0.00    +0.000 C 
BRANCH   6   7
ATOM      7  N   UNL     1       4.631   4.892  18.660  0.00  0.00    +0.000 N 
ATOM      8  C   UNL     1       5.998   5.297  19.071  0.00  0.00    +0.000 C 
ATOM      9  C   UNL     1       3.632   5.616  19.482  0.00  0.00    +0.000 C 
ATOM     10  C   UNL     1       4.480   3.439  18.925  0.00  0.00    +0.000 C 
ENDBRANCH   6   7
ENDBRANCH   1   6
TORSDOF 4
ENDMDL
MODEL 7
REMARK VINA RESULT:      -4.1      2.114      2.371
REMARK  Name = 
REMARK  8 active torsions:
REMARK  status: ('A' for Active; 'I' for Inactive)
REMARK    1  A    between atoms: C_1  and  C_2
REMARK    2  A    between atoms: C_2  and  O_4
REMARK    3  A    between atoms: O_4  and  C_5
REMARK    4  A    between atoms: C_5  and  C_6
REMARK    5  A    between atoms: C_6  and  N_7
REMARK    6  A    between atoms: N_7  and  C_8
REMARK    7  A    between atoms: N_7  and  C_9
REMARK    8  A    between atoms: N_7  and  C_10
REMARK                            x       y       z     vdW  Elec       q    Type
REMARK                         _______ _______ _______ _____ _____    ______ ____
ROOT
ATOM      1  C   UNL     1       5.626   4.527  17.092  0.00  0.00    +0.000 C 
ENDROOT
BRANCH   1   2
ATOM      2  O   UNL     1       6.490   3.974  16.163  0.00  0.00    +0.000 OA
BRANCH   2   4
ATOM      3  C   UNL     1       6.189   3.946  13.717  0.00  0.00    +0.000 C 
ATOM      4  C   UNL     1       6.788   4.530  14.958  0.00  0.00    +0.000 C 
ATOM      5  O   UNL     1       7.563   5.471  14.870  0.00  0.00    +0.000 OA
ENDBRANCH   2   4
ENDBRANCH   1   2
BRANCH   1   6
ATOM      6  C   UNL     1       4.201   3.932  16.966  0.00  0.00    +0.000 C 
BRANCH   6   7
ATOM      7  N   UNL     1       3.655   3.322  18.218  0.00  0.00    +0.000 N 
ATOM      8  C   UNL     1       2.372   3.947  18.621  0.00  0.00    +0.000 C 
ATOM      9  C   UNL     1       3.464   1.860  18.057  0.00  0.00    +0.000 C 
ATOM     10  C   UNL     1       4.639   3.540  19.308  0.00  0.00    +0.000 C 
ENDBRANCH   6   7
ENDBRANCH   1   6
TORSDOF 4
ENDMDL
MODEL 8
REMARK VINA RESULT:      -4.1      3.152      4.875
REMARK  Name = 
REMARK  8 active torsions:
REMARK  status: ('A' for Active; 'I' for Inactive)
REMARK    1  A    between atoms: C_1  and  C_2
REMARK    2  A    between atoms: C_2  and  O_4
REMARK    3  A    between atoms: O_4  and  C_5
REMARK    4  A    between atoms: C_5  and  C_6
REMARK    5  A    between atoms: C_6  and  N_7
REMARK    6  A    between atoms: N_7  and  C_8
REMARK    7  A    between atoms: N_7  and  C_9
REMARK    8  A    between atoms: N_7  and  C_10
REMARK                            x       y       z     vdW  Elec       q    Type
REMARK                         _______ _______ _______ _____ _____    ______ ____
ROOT
ATOM      1  C   UNL     1       2.833   2.246  18.922  0.00  0.00    +0.000 C 
ENDROOT
BRANCH   1   2
ATOM      2  O   UNL     1       2.097   2.053  20.078  0.00  0.00    +0.000 OA
BRANCH   2   4
ATOM      3  C   UNL     1       0.906   4.187  20.396  0.00  0.00    +0.000 C 
ATOM      4  C   UNL     1       1.715   3.045  20.926  0.00  0.00    +0.000 C 
ATOM      5  O   UNL     1       2.052   3.036  22.101  0.00  0.00    +0.000 OA
ENDBRANCH   2   4
ENDBRANCH   1   2
BRANCH   1   6
ATOM      6  C   UNL     1       4.168   2.975  19.215  0.00  0.00    +0.000 C 
BRANCH   6   7
ATOM      7  N   UNL     1       4.330   4.301  18.542  0.00  0.00    +0.000 N 
ATOM      8  C   UNL     1       4.204   5.424  19.502  0.00  0.00    +0.000 C 
ATOM      9  C   UNL     1       5.636   4.389  17.845  0.00  0.00    +0.000 C 
ATOM     10  C   UNL     1       3.255   4.439  17.527  0.00  0.00    +0.000 C 
ENDBRANCH   6   7
ENDBRANCH   1   6
TORSDOF 4
ENDMDL
MODEL 9
REMARK VINA RESULT:      -4.1      1.035      1.865
REMARK  Name = 
REMARK  8 active torsions:
REMARK  status: ('A' for Active; 'I' for Inactive)
REMARK    1  A    between atoms: C_1  and  C_2
REMARK    2  A    between atoms: C_2  and  O_4
REMARK    3  A    between atoms: O_4  and  C_5
REMARK    4  A    between atoms: C_5  and  C_6
REMARK    5  A    between atoms: C_6  and  N_7
REMARK    6  A    between atoms: N_7  and  C_8
REMARK    7  A    between atoms: N_7  and  C_9
REMARK    8  A    between atoms: N_7  and  C_10
REMARK                            x       y       z     vdW  Elec       q    Type
REMARK                         _______ _______ _______ _____ _____    ______ ____
ROOT
ATOM      1  C   UNL     1       5.141   4.100  19.216  0.00  0.00    +0.000 C 
ENDROOT
BRANCH   1   2
ATOM      2  O   UNL     1       6.333   4.468  18.615  0.00  0.00    +0.000 OA
BRANCH   2   4
ATOM      3  C   UNL     1       7.569   6.541  18.117  0.00  0.00    +0.000 C 
ATOM      4  C   UNL     1       7.151   5.458  19.061  0.00  0.00    +0.000 C 
ATOM      5  O   UNL     1       7.578   5.457  20.207  0.00  0.00    +0.000 OA
ENDBRANCH   2   4
ENDBRANCH   1   2
BRANCH   1   6
ATOM      6  C   UNL     1       3.919   4.571  18.389  0.00  0.00    +0.000 C 
BRANCH   6   7
ATOM      7  N   UNL     1       2.712   3.693  18.483  0.00  0.00    +0.000 N 
ATOM      8  C   UNL     1       2.315   3.451  19.892  0.00  0.00    +0.000 C 
ATOM      9  C   UNL     1       1.569   4.278  17.741  0.00  0.00    +0.000 C 
ATOM     10  C   UNL     1       3.041   2.384  17.864  0.00  0.00    +0.000 C 
ENDBRANCH   6   7
ENDBRANCH   1   6
TORSDOF 4
ENDMDL
