MODEL 1
REMARK VINA RESULT:      -5.6      0.000      0.000
REMARK  Name = 
REMARK  8 active torsions:
REMARK  status: ('A' for Active; 'I' for Inactive)
REMARK    1  A    between atoms: C_1  and  N_2
REMARK    2  A    between atoms: N_2  and  C_3
REMARK    3  A    between atoms: N_2  and  C_4
REMARK    4  A    between atoms: C_4  and  C_5
REMARK    5  A    between atoms: C_5  and  N_6
REMARK    6  A    between atoms: C_7  and  S_8
REMARK    7  A    between atoms: C_7  and  C_9
REMARK    8  A    between atoms: C_14  and  S_15
REMARK                            x       y       z     vdW  Elec       q    Type
REMARK                         _______ _______ _______ _____ _____    ______ ____
ROOT
ATOM      1  N   UNL     1       4.835   3.515  18.722  0.00  0.00    +0.000 NA
ATOM      2  C   UNL     1       4.691   4.511  17.926  0.00  0.00    +0.000 C 
ENDROOT
BRANCH   2   3
ATOM      3  C   UNL     1       5.565   4.628  16.722  0.00  0.00    +0.000 A 
ATOM      4  C   UNL     1       5.214   3.981  15.524  0.00  0.00    +0.000 A 
ATOM      5  C   UNL     1       6.001   4.133  14.385  0.00  0.00    +0.000 A 
ATOM      6  C   UNL     1       7.113   4.946  14.466  0.00  0.00    +0.000 A 
ATOM      7  N   UNL     1       7.487   5.585  15.593  0.00  0.00    +0.000 NA
ATOM      8  C   UNL     1       6.721   5.419  16.708  0.00  0.00    +0.000 A 
BRANCH   8   9
ATOM      9  S   UNL     1       7.414   6.265  18.112  0.00  0.00    +0.000 S 
ATOM     10  H   UNL     1       8.374   5.352  18.300  0.00  0.00    +0.000 HD
ENDBRANCH   8   9
ENDBRANCH   2   3
BRANCH   2  11
ATOM     11  S   UNL     1       3.531   5.821  18.162  0.00  0.00    +0.000 S 
ATOM     12  H   UNL     1       3.567   6.334  16.928  0.00  0.00    +0.000 HD
ENDBRANCH   2  11
BRANCH   1  13
ATOM     13  C   UNL     1       3.995   3.292  19.893  0.00  0.00    +0.000 C 
BRANCH  13  14
ATOM     14  C   UNL     1       2.840   2.350  19.502  0.00  0.00    +0.000 C 
BRANCH  14  16
ATOM     15  C   UNL     1       2.011   2.777  21.718  0.00  0.00    +0.000 C 
ATOM     16  N   UNL     1       1.624   2.496  20.332  0.00  0.00    +0.000 NA
ATOM     17  C   UNL     1       0.751   3.561  19.840  0.00  0.00    +0.000 C 
ENDBRANCH  14  16
ENDBRANCH  13  14
ENDBRANCH   1  13
TORSDOF 6
ENDMDL
MODEL 2
REMARK VINA RESULT:      -5.4      0.978      1.316
REMARK  Name = 
REMARK  8 active torsions:
REMARK  status: ('A' for Active; 'I' for Inactive)
REMARK    1  A    between atoms: C_1  and  N_2
REMARK    2  A    between atoms: N_2  and  C_3
REMARK    3  A    between atoms: N_2  and  C_4
REMARK    4  A    between atoms: C_4  and  C_5
REMARK    5  A    between atoms: C_5  and  N_6
REMARK    6  A    between atoms: C_7  and  S_8
REMARK    7  A    between atoms: C_7  and  C_9
REMARK    8  A    between atoms: C_14  and  S_15
REMARK                            x       y       z     vdW  Elec       q    Type
REMARK                         _______ _______ _______ _____ _____    ______ ____
ROOT
ATOM      1  N   UNL     1       4.199   4.717  18.669  0.00  0.00    +0.000 NA
ATOM      2  C   UNL     1       4.395   5.569  17.731  0.00  0.00    +0.000 C 
ENDROOT
BRANCH   2   3
ATOM      3  C   UNL     1       5.344   5.247  16.625  0.00  0.00    +0.000 A 
ATOM      4  C   UNL     1       4.934   4.436  15.551  0.00  0.00    +0.000 A 
ATOM      5  C   UNL     1       5.801   4.179  14.493  0.00  0.00    +0.000 A 
ATOM      6  C   UNL     1       7.054   4.755  14.523  0.00  0.00    +0.000 A 
ATOM      7  N   UNL     1       7.488   5.539  15.531  0.00  0.00    +0.000 NA
ATOM      8  C   UNL     1       6.640   5.774  16.572  0.00  0.00    +0.000 A 
BRANCH   8   9
ATOM      9  S   UNL     1       7.414   6.752  17.842  0.00  0.00    +0.000 S 
ATOM     10  H   UNL     1       8.654   6.498  17.405  0.00  0.00    +0.000 HD
ENDBRANCH   8   9
ENDBRANCH   2   3
BRANCH   2  11
ATOM     11  S   UNL     1       3.640   7.164  17.654  0.00  0.00    +0.000 S 
ATOM     12  H   UNL     1       3.309   7.157  16.359  0.00  0.00    +0.000 HD
ENDBRANCH   2  11
BRANCH   1  13
ATOM     13  C   UNL     1       3.255   4.923  19.761  0.00  0.00    +0.000 C 
BRANCH  13  14
ATOM     14  C   UNL     1       1.862   4.445  19.310  0.00  0.00    +0.000 C 
BRANCH  14  16
ATOM     15  C   UNL     1       1.744   2.044  19.318  0.00  0.00    +0.000 C 
ATOM     16  N   UNL     1       1.355   3.261  20.037  0.00  0.00    +0.000 NA
ATOM     17  C   UNL     1       1.861   3.204  21.408  0.00  0.00    +0.000 C 
ENDBRANCH  14  16
ENDBRANCH  13  14
ENDBRANCH   1  13
TORSDOF 6
ENDMDL
MODEL 3
REMARK VINA RESULT:      -5.4      1.371      1.628
REMARK  Name = 
REMARK  8 active torsions:
REMARK  status: ('A' for Active; 'I' for Inactive)
REMARK    1  A    between atoms: C_1  and  N_2
REMARK    2  A    between atoms: N_2  and  C_3
REMARK    3  A    between atoms: N_2  and  C_4
REMARK    4  A    between atoms: C_4  and  C_5
REMARK    5  A    between atoms: C_5  and  N_6
REMARK    6  A    between atoms: C_7  and  S_8
REMARK    7  A    between atoms: C_7  and  C_9
REMARK    8  A    between atoms: C_14  and  S_15
REMARK                            x       y       z     vdW  Elec       q    Type
REMARK                         _______ _______ _______ _____ _____    ______ ____
ROOT
ATOM      1  N   UNL     1       3.412   5.194  17.410  0.00  0.00    +0.000 NA
ATOM      2  C   UNL     1       4.601   4.739  17.565  0.00  0.00    +0.000 C 
ENDROOT
BRANCH   2   3
ATOM      3  C   UNL     1       5.554   4.755  16.418  0.00  0.00    +0.000 A 
ATOM      4  C   UNL     1       5.362   3.895  15.322  0.00  0.00    +0.000 A 
ATOM      5  C   UNL     1       6.220   3.948  14.226  0.00  0.00    +0.000 A 
ATOM      6  C   UNL     1       7.242   4.874  14.245  0.00  0.00    +0.000 A 
ATOM      7  N   UNL     1       7.464   5.717  15.273  0.00  0.00    +0.000 NA
ATOM      8  C   UNL     1       6.629   5.650  16.349  0.00  0.00    +0.000 A 
BRANCH   8   9
ATOM      9  S   UNL     1       7.127   6.773  17.637  0.00  0.00    +0.000 S 
ATOM     10  H   UNL     1       7.459   5.792  18.485  0.00  0.00    +0.000 HD
ENDBRANCH   8   9
ENDBRANCH   2   3
BRANCH   2  11
ATOM     11  S   UNL     1       5.215   4.035  19.064  0.00  0.00    +0.000 S 
ATOM     12  H   UNL     1       4.094   3.426  19.464  0.00  0.00    +0.000 HD
ENDBRANCH   2  11
BRANCH   1  13
ATOM     13  C   UNL     1       2.429   5.266  18.485  0.00  0.00    +0.000 C 
BRANCH  13  14
ATOM     14  C   UNL     1       1.353   4.190  18.246  0.00  0.00    +0.000 C 
BRANCH  14  16
ATOM     15  C   UNL     1       1.909   2.100  19.296  0.00  0.00    +0.000 C 
ATOM     16  N   UNL     1       1.095   3.314  19.410  0.00  0.00    +0.000 NA
ATOM     17  C   UNL     1       1.388   3.985  20.675  0.00  0.00    +0.000 C 
ENDBRANCH  14  16
ENDBRANCH  13  14
ENDBRANCH   1  13
TORSDOF 6
ENDMDL
MODEL 4
REMARK VINA RESULT:      -5.3      2.360      6.086
REMARK  Name = 
REMARK  8 active torsions:
REMARK  status: ('A' for Active; 'I' for Inactive)
REMARK    1  A    between atoms: C_1  and  N_2
REMARK    2  A    between atoms: N_2  and  C_3
REMARK    3  A    between atoms: N_2  and  C_4
REMARK    4  A    between atoms: C_4  and  C_5
REMARK    5  A    between atoms: C_5  and  N_6
REMARK    6  A    between atoms: C_7  and  S_8
REMARK    7  A    between atoms: C_7  and  C_9
REMARK    8  A    between atoms: C_14  and  S_15
REMARK                            x       y       z     vdW  Elec       q    Type
REMARK                         _______ _______ _______ _____ _____    ______ ____
ROOT
ATOM      1  N   UNL     1       6.061   4.432  18.991  0.00  0.00    +0.000 NA
ATOM      2  C   UNL     1       4.888   4.071  18.616  0.00  0.00    +0.000 C 
ENDROOT
BRANCH   2   3
ATOM      3  C   UNL     1       3.826   3.833  19.637  0.00  0.00    +0.000 A 
ATOM      4  C   UNL     1       3.746   2.598  20.304  0.00  0.00    +0.000 A 
ATOM      5  C   UNL     1       2.789   2.394  21.295  0.00  0.00    +0.000 A 
ATOM      6  C   UNL     1       1.945   3.438  21.608  0.00  0.00    +0.000 A 
ATOM      7  N   UNL     1       1.986   4.639  20.996  0.00  0.00    +0.000 NA
ATOM      8  C   UNL     1       2.915   4.827  20.016  0.00  0.00    +0.000 A 
BRANCH   8   9
ATOM      9  S   UNL     1       2.762   6.434  19.266  0.00  0.00    +0.000 S 
ATOM     10  H   UNL     1       4.042   6.471  18.876  0.00  0.00    +0.000 HD
ENDBRANCH   8   9
ENDBRANCH   2   3
BRANCH   2  11
ATOM     11  S   UNL     1       4.419   3.787  16.938  0.00  0.00    +0.000 S 
ATOM     12  H   UNL     1       3.539   2.803  17.149  0.00  0.00    +0.000 HD
ENDBRANCH   2  11
BRANCH   1  13
ATOM     13  C   UNL     1       7.146   4.736  18.066  0.00  0.00    +0.000 C 
BRANCH  13  14
ATOM     14  C   UNL     1       7.673   6.152  18.367  0.00  0.00    +0.000 C 
BRANCH  14  16
ATOM     15  C   UNL     1       5.998   7.189  16.989  0.00  0.00    +0.000 C 
ATOM     16  N   UNL     1       7.432   7.137  17.290  0.00  0.00    +0.000 NA
ATOM     17  C   UNL     1       7.906   8.472  17.653  0.00  0.00    +0.000 C 
ENDBRANCH  14  16
ENDBRANCH  13  14
ENDBRANCH   1  13
TORSDOF 6
ENDMDL
MODEL 5
REMARK VINA RESULT:      -5.3      1.457      1.771
REMARK  Name = 
REMARK  8 active torsions:
REMARK  status: ('A' for Active; 'I' for Inactive)
REMARK    1  A    between atoms: C_1  and  N_2
REMARK    2  A    between atoms: N_2  and  C_3
REMARK    3  A    between atoms: N_2  and  C_4
REMARK    4  A    between atoms: C_4  and  C_5
REMARK    5  A    between atoms: C_5  and  N_6
REMARK    6  A    between atoms: C_7  and  S_8
REMARK    7  A    between atoms: C_7  and  C_9
REMARK    8  A    between atoms: C_14  and  S_15
REMARK                            x       y       z     vdW  Elec       q    Type
REMARK                         _______ _______ _______ _____ _____    ______ ____
ROOT
ATOM      1  N   UNL     1       3.907   5.352  18.998  0.00  0.00    +0.000 NA
ATOM      2  C   UNL     1       4.578   4.342  18.577  0.00  0.00    +0.000 C 
ENDROOT
BRANCH   2   3
ATOM      3  C   UNL     1       5.437   4.478  17.365  0.00  0.00    +0.000 A 
ATOM      4  C   UNL     1       4.970   4.048  16.110  0.00  0.00    +0.000 A 
ATOM      5  C   UNL     1       5.749   4.225  14.970  0.00  0.00    +0.000 A 
ATOM      6  C   UNL     1       6.973   4.845  15.109  0.00  0.00    +0.000 A 
ATOM      7  N   UNL     1       7.461   5.274  16.291  0.00  0.00    +0.000 NA
ATOM      8  C   UNL     1       6.700   5.084  17.405  0.00  0.00    +0.000 A 
BRANCH   8   9
ATOM      9  S   UNL     1       7.540   5.632  18.875  0.00  0.00    +0.000 S 
ATOM     10  H   UNL     1       7.016   6.862  18.823  0.00  0.00    +0.000 HD
ENDBRANCH   8   9
ENDBRANCH   2   3
BRANCH   2  11
ATOM     11  S   UNL     1       4.541   2.739  19.316  0.00  0.00    +0.000 S 
ATOM     12  H   UNL     1       3.460   2.264  18.690  0.00  0.00    +0.000 HD
ENDBRANCH   2  11
BRANCH   1  13
ATOM     13  C   UNL     1       3.083   5.328  20.200  0.00  0.00    +0.000 C 
BRANCH  13  14
ATOM     14  C   UNL     1       1.629   5.016  19.797  0.00  0.00    +0.000 C 
BRANCH  14  16
ATOM     15  C   UNL     1       0.816   2.767  19.544  0.00  0.00    +0.000 C 
ATOM     16  N   UNL     1       1.035   3.857  20.500  0.00  0.00    +0.000 NA
ATOM     17  C   UNL     1       1.883   3.388  21.595  0.00  0.00    +0.000 C 
ENDBRANCH  14  16
ENDBRANCH  13  14
ENDBRANCH   1  13
TORSDOF 6
ENDMDL
MODEL 6
REMARK VINA RESULT:      -5.2      0.858      1.225
REMARK  Name = 
REMARK  8 active torsions:
REMARK  status: ('A' for Active; 'I' for Inactive)
REMARK    1  A    between atoms: C_1  and  N_2
REMARK    2  A    between atoms: N_2  and  C_3
REMARK    3  A    between atoms: N_2  and  C_4
REMARK    4  A    between atoms: C_4  and  C_5
REMARK    5  A    between atoms: C_5  and  N_6
REMARK    6  A    between atoms: C_7  and  S_8
REMARK    7  A    between atoms: C_7  and  C_9
REMARK    8  A    between atoms: C_14  and  S_15
REMARK                            x       y       z     vdW  Elec       q    Type
REMARK                         _______ _______ _______ _____ _____    ______ ____
ROOT
ATOM      1  N   UNL     1       4.941   4.137  18.784  0.00  0.00    +0.000 NA
ATOM      2  C   UNL     1       4.780   4.993  17.842  0.00  0.00    +0.000 C 
ENDROOT
BRANCH   2   3
ATOM      3  C   UNL     1       5.639   4.923  16.624  0.00  0.00    +0.000 A 
ATOM      4  C   UNL     1       5.281   4.091  15.549  0.00  0.00    +0.000 A 
ATOM      5  C   UNL     1       6.054   4.066  14.391  0.00  0.00    +0.000 A 
ATOM      6  C   UNL     1       7.157   4.891  14.327  0.00  0.00    +0.000 A 
ATOM      7  N   UNL     1       7.537   5.705  15.333  0.00  0.00    +0.000 NA
ATOM      8  C   UNL     1       6.786   5.713  16.470  0.00  0.00    +0.000 A 
BRANCH   8   9
ATOM      9  S   UNL     1       7.486   6.778  17.713  0.00  0.00    +0.000 S 
ATOM     10  H   UNL     1       7.480   7.855  16.918  0.00  0.00    +0.000 HD
ENDBRANCH   8   9
ENDBRANCH   2   3
BRANCH   2  11
ATOM     11  S   UNL     1       3.611   6.316  17.883  0.00  0.00    +0.000 S 
ATOM     12  H   UNL     1       4.124   6.994  18.915  0.00  0.00    +0.000 HD
ENDBRANCH   2  11
BRANCH   1  13
ATOM     13  C   UNL     1       4.117   4.095  19.986  0.00  0.00    +0.000 C 
BRANCH  13  14
ATOM     14  C   UNL     1       3.169   2.884  19.896  0.00  0.00    +0.000 C 
BRANCH  14  16
ATOM     15  C   UNL     1       2.343   2.129  17.769  0.00  0.00    +0.000 C 
ATOM     16  N   UNL     1       2.087   3.027  18.898  0.00  0.00    +0.000 NA
ATOM     17  C   UNL     1       0.773   2.734  19.471  0.00  0.00    +0.000 C 
ENDBRANCH  14  16
ENDBRANCH  13  14
ENDBRANCH   1  13
TORSDOF 6
ENDMDL
MODEL 7
REMARK VINA RESULT:      -5.2      1.676      1.975
REMARK  Name = 
REMARK  8 active torsions:
REMARK  status: ('A' for Active; 'I' for Inactive)
REMARK    1  A    between atoms: C_1  and  N_2
REMARK    2  A    between atoms: N_2  and  C_3
REMARK    3  A    between atoms: N_2  and  C_4
REMARK    4  A    between atoms: C_4  and  C_5
REMARK    5  A    between atoms: C_5  and  N_6
REMARK    6  A    between atoms: C_7  and  S_8
REMARK    7  A    between atoms: C_7  and  C_9
REMARK    8  A    between atoms: C_14  and  S_15
REMARK                            x       y       z     vdW  Elec       q    Type
REMARK                         _______ _______ _______ _____ _____    ______ ____
ROOT
ATOM      1  N   UNL     1       2.838   3.046  17.544  0.00  0.00    +0.000 NA
ATOM      2  C   UNL     1       3.994   3.523  17.830  0.00  0.00    +0.000 C 
ENDROOT
BRANCH   2   3
ATOM      3  C   UNL     1       4.794   4.207  16.772  0.00  0.00    +0.000 A 
ATOM      4  C   UNL     1       5.574   3.456  15.875  0.00  0.00    +0.000 A 
ATOM      5  C   UNL     1       6.278   4.089  14.854  0.00  0.00    +0.000 A 
ATOM      6  C   UNL     1       6.171   5.460  14.743  0.00  0.00    +0.000 A 
ATOM      7  N   UNL     1       5.435   6.219  15.580  0.00  0.00    +0.000 NA
ATOM      8  C   UNL     1       4.761   5.594  16.587  0.00  0.00    +0.000 A 
BRANCH   8   9
ATOM      9  S   UNL     1       3.920   6.761  17.636  0.00  0.00    +0.000 S 
ATOM     10  H   UNL     1       4.998   7.541  17.781  0.00  0.00    +0.000 HD
ENDBRANCH   8   9
ENDBRANCH   2   3
BRANCH   2  11
ATOM     11  S   UNL     1       4.761   3.403  19.416  0.00  0.00    +0.000 S 
ATOM     12  H   UNL     1       5.407   4.573  19.406  0.00  0.00    +0.000 HD
ENDBRANCH   2  11
BRANCH   1  13
ATOM     13  C   UNL     1       1.964   2.408  18.521  0.00  0.00    +0.000 C 
BRANCH  13  14
ATOM     14  C   UNL     1       0.858   3.403  18.922  0.00  0.00    +0.000 C 
BRANCH  14  16
ATOM     15  C   UNL     1       1.459   2.712  21.145  0.00  0.00    +0.000 C 
ATOM     16  N   UNL     1       0.876   3.796  20.348  0.00  0.00    +0.000 NA
ATOM     17  C   UNL     1       1.633   5.028  20.567  0.00  0.00    +0.000 C 
ENDBRANCH  14  16
ENDBRANCH  13  14
ENDBRANCH   1  13
TORSDOF 6
ENDMDL
MODEL 8
REMARK VINA RESULT:      -5.2      1.309      1.367
REMARK  Name = 
REMARK  8 active torsions:
REMARK  status: ('A' for Active; 'I' for Inactive)
REMARK    1  A    between atoms: C_1  and  N_2
REMARK    2  A    between atoms: N_2  and  C_3
REMARK    3  A    between atoms: N_2  and  C_4
REMARK    4  A    between atoms: C_4  and  C_5
REMARK    5  A    between atoms: C_5  and  N_6
REMARK    6  A    between atoms: C_7  and  S_8
REMARK    7  A    between atoms: C_7  and  C_9
REMARK    8  A    between atoms: C_14  and  S_15
REMARK                            x       y       z     vdW  Elec       q    Type
REMARK                         _______ _______ _______ _____ _____    ______ ____
ROOT
ATOM      1  N   UNL     1       2.939   3.725  17.532  0.00  0.00    +0.000 NA
ATOM      2  C   UNL     1       3.624   4.799  17.377  0.00  0.00    +0.000 C 
ENDROOT
BRANCH   2   3
ATOM      3  C   UNL     1       4.946   4.741  16.688  0.00  0.00    +0.000 A 
ATOM      4  C   UNL     1       5.016   4.499  15.304  0.00  0.00    +0.000 A 
ATOM      5  C   UNL     1       6.246   4.498  14.651  0.00  0.00    +0.000 A 
ATOM      6  C   UNL     1       7.378   4.758  15.396  0.00  0.00    +0.000 A 
ATOM      7  N   UNL     1       7.357   4.996  16.723  0.00  0.00    +0.000 NA
ATOM      8  C   UNL     1       6.152   4.980  17.359  0.00  0.00    +0.000 A 
BRANCH   8   9
ATOM      9  S   UNL     1       6.331   5.227  19.112  0.00  0.00    +0.000 S 
ATOM     10  H   UNL     1       5.326   4.400  19.421  0.00  0.00    +0.000 HD
ENDBRANCH   8   9
ENDBRANCH   2   3
BRANCH   2  11
ATOM     11  S   UNL     1       3.133   6.391  17.963  0.00  0.00    +0.000 S 
ATOM     12  H   UNL     1       2.083   6.577  17.157  0.00  0.00    +0.000 HD
ENDBRANCH   2  11
BRANCH   1  13
ATOM     13  C   UNL     1       1.617   3.693  18.146  0.00  0.00    +0.000 C 
BRANCH  13  14
ATOM     14  C   UNL     1       1.614   2.627  19.259  0.00  0.00    +0.000 C 
BRANCH  14  16
ATOM     15  C   UNL     1       2.142   2.617  21.604  0.00  0.00    +0.000 C 
ATOM     16  N   UNL     1       1.219   3.136  20.591  0.00  0.00    +0.000 NA
ATOM     17  C   UNL     1       1.209   4.597  20.638  0.00  0.00    +0.000 C 
ENDBRANCH  14  16
ENDBRANCH  13  14
ENDBRANCH   1  13
TORSDOF 6
ENDMDL
MODEL 9
REMARK VINA RESULT:      -5.2      1.824      5.929
REMARK  Name = 
REMARK  8 active torsions:
REMARK  status: ('A' for Active; 'I' for Inactive)
REMARK    1  A    between atoms: C_1  and  N_2
REMARK    2  A    between atoms: N_2  and  C_3
REMARK    3  A    between atoms: N_2  and  C_4
REMARK    4  A    between atoms: C_4  and  C_5
REMARK    5  A    between atoms: C_5  and  N_6
REMARK    6  A    between atoms: C_7  and  S_8
REMARK    7  A    between atoms: C_7  and  C_9
REMARK    8  A    between atoms: C_14  and  S_15
REMARK                            x       y       z     vdW  Elec       q    Type
REMARK                         _______ _______ _______ _____ _____    ______ ____
ROOT
ATOM      1  N   UNL     1       5.970   4.362  18.799  0.00  0.00    +0.000 NA
ATOM      2  C   UNL     1       4.799   3.915  18.523  0.00  0.00    +0.000 C 
ENDROOT
BRANCH   2   3
ATOM      3  C   UNL     1       3.780   3.793  19.605  0.00  0.00    +0.000 A 
ATOM      4  C   UNL     1       3.674   2.606  20.352  0.00  0.00    +0.000 A 
ATOM      5  C   UNL     1       2.760   2.512  21.398  0.00  0.00    +0.000 A 
ATOM      6  C   UNL     1       1.983   3.615  21.685  0.00  0.00    +0.000 A 
ATOM      7  N   UNL     1       2.051   4.772  20.996  0.00  0.00    +0.000 NA
ATOM      8  C   UNL     1       2.938   4.853  19.964  0.00  0.00    +0.000 A 
BRANCH   8   9
ATOM      9  S   UNL     1       2.824   6.418  19.123  0.00  0.00    +0.000 S 
ATOM     10  H   UNL     1       1.498   6.336  18.964  0.00  0.00    +0.000 HD
ENDBRANCH   8   9
ENDBRANCH   2   3
BRANCH   2  11
ATOM     11  S   UNL     1       4.287   3.378  16.920  0.00  0.00    +0.000 S 
ATOM     12  H   UNL     1       3.410   4.353  16.663  0.00  0.00    +0.000 HD
ENDBRANCH   2  11
BRANCH   1  13
ATOM     13  C   UNL     1       7.013   4.563  17.800  0.00  0.00    +0.000 C 
BRANCH  13  14
ATOM     14  C   UNL     1       6.993   6.037  17.352  0.00  0.00    +0.000 C 
BRANCH  14  16
ATOM     15  C   UNL     1       6.970   5.028  15.170  0.00  0.00    +0.000 C 
ATOM     16  N   UNL     1       6.644   6.239  15.929  0.00  0.00    +0.000 NA
ATOM     17  C   UNL     1       5.228   6.562  15.754  0.00  0.00    +0.000 C 
ENDBRANCH  14  16
ENDBRANCH  13  14
ENDBRANCH   1  13
TORSDOF 6
ENDMDL
