MODEL 1
REMARK VINA RESULT:      -6.9      0.000      0.000
REMARK  Name = 
REMARK  15 active torsions:
REMARK  status: ('A' for Active; 'I' for Inactive)
REMARK    1  A    between atoms: C_1  and  O_2
REMARK    2  A    between atoms: O_2  and  C_3
REMARK    3  A    between atoms: C_6  and  C_7
REMARK    4  A    between atoms: C_8  and  C_9
REMARK    5  A    between atoms: C_11  and  O_12
REMARK    6  A    between atoms: O_12  and  C_13
REMARK    7  A    between atoms: C_14  and  O_15
REMARK    8  A    between atoms: O_15  and  C_16
REMARK    9  A    between atoms: C_17  and  O_18
REMARK   10  A    between atoms: O_18  and  C_19
REMARK   11  A    between atoms: C_22  and  O_23
REMARK   12  A    between atoms: O_23  and  C_24
REMARK   13  A    between atoms: C_24  and  C_25
REMARK   14  A    between atoms: C_25  and  C_26
REMARK   15  A    between atoms: C_26  and  O_27
REMARK                            x       y       z     vdW  Elec       q    Type
REMARK                         _______ _______ _______ _____ _____    ______ ____
ROOT
ATOM      1  C   UNL     1       4.985   4.955  16.362  0.00  0.00    +0.000 A 
ATOM      2  C   UNL     1       5.232   6.332  16.410  0.00  0.00    +0.000 A 
ATOM      3  C   UNL     1       4.401   7.182  17.144  0.00  0.00    +0.000 A 
ATOM      4  C   UNL     1       3.324   6.671  17.873  0.00  0.00    +0.000 A 
ATOM      5  C   UNL     1       3.084   5.294  17.838  0.00  0.00    +0.000 A 
ATOM      6  C   UNL     1       3.914   4.431  17.112  0.00  0.00    +0.000 A 
ENDROOT
BRANCH   1   8
ATOM      7  C   UNL     1       6.868   4.546  14.913  0.00  0.00    +0.000 C 
ATOM      8  O   UNL     1       5.712   4.088  15.600  0.00  0.00    +0.000 OA
ENDBRANCH   1   8
BRANCH   4   9
ATOM      9  C   UNL     1       2.459   7.619  18.579  0.00  0.00    +0.000 C 
ATOM     10  C   UNL     1       1.652   8.517  17.985  0.00  0.00    +0.000 C 
BRANCH  10  11
ATOM     11  C   UNL     1       0.833   9.467  18.747  0.00  0.00    +0.000 A 
ATOM     12  C   UNL     1       1.012   9.618  20.124  0.00  0.00    +0.000 A 
ATOM     13  C   UNL     1       0.248  10.524  20.856  0.00  0.00    +0.000 A 
ATOM     14  C   UNL     1      -0.731  11.302  20.203  0.00  0.00    +0.000 A 
ATOM     15  C   UNL     1      -0.914  11.170  18.808  0.00  0.00    +0.000 A 
ATOM     16  C   UNL     1      -0.114  10.263  18.093  0.00  0.00    +0.000 A 
BRANCH  13  17
ATOM     17  O   UNL     1       0.392  10.694  22.215  0.00  0.00    +0.000 OA
ATOM     18  C   UNL     1      -0.055   9.616  23.033  0.00  0.00    +0.000 C 
ENDBRANCH  13  17
BRANCH  14  19
ATOM     19  O   UNL     1      -1.481  12.104  21.033  0.00  0.00    +0.000 OA
ATOM     20  C   UNL     1      -1.149  13.485  21.081  0.00  0.00    +0.000 C 
ENDBRANCH  14  19
BRANCH  15  21
ATOM     21  O   UNL     1      -1.897  11.919  18.216  0.00  0.00    +0.000 OA
ATOM     22  C   UNL     1      -3.124  11.283  17.884  0.00  0.00    +0.000 C 
ENDBRANCH  15  21
ENDBRANCH  10  11
ENDBRANCH   4   9
BRANCH   6  23
ATOM     23  O   UNL     1       3.517   3.114  17.167  0.00  0.00    +0.000 OA
BRANCH  23  24
ATOM     24  C   UNL     1       2.371   2.840  17.976  0.00  0.00    +0.000 C 
BRANCH  24  25
ATOM     25  C   UNL     1       2.750   1.883  19.103  0.00  0.00    +0.000 C 
BRANCH  25  26
ATOM     26  C   UNL     1       3.747   2.478  20.084  0.00  0.00    +0.000 C 
BRANCH  26  27
ATOM     27  O   UNL     1       5.072   2.187  19.647  0.00  0.00    +0.000 OA
ATOM     28  H   UNL     1       5.684   2.549  20.311  0.00  0.00    +0.000 HD
ENDBRANCH  26  27
ENDBRANCH  25  26
ENDBRANCH  24  25
ENDBRANCH  23  24
ENDBRANCH   6  23
TORSDOF 11
ENDMDL
MODEL 2
REMARK VINA RESULT:      -6.7      0.763      1.092
REMARK  Name = 
REMARK  15 active torsions:
REMARK  status: ('A' for Active; 'I' for Inactive)
REMARK    1  A    between atoms: C_1  and  O_2
REMARK    2  A    between atoms: O_2  and  C_3
REMARK    3  A    between atoms: C_6  and  C_7
REMARK    4  A    between atoms: C_8  and  C_9
REMARK    5  A    between atoms: C_11  and  O_12
REMARK    6  A    between atoms: O_12  and  C_13
REMARK    7  A    between atoms: C_14  and  O_15
REMARK    8  A    between atoms: O_15  and  C_16
REMARK    9  A    between atoms: C_17  and  O_18
REMARK   10  A    between atoms: O_18  and  C_19
REMARK   11  A    between atoms: C_22  and  O_23
REMARK   12  A    between atoms: O_23  and  C_24
REMARK   13  A    between atoms: C_24  and  C_25
REMARK   14  A    between atoms: C_25  and  C_26
REMARK   15  A    between atoms: C_26  and  O_27
REMARK                            x       y       z     vdW  Elec       q    Type
REMARK                         _______ _______ _______ _____ _____    ______ ____
ROOT
ATOM      1  C   UNL     1       5.026   5.169  16.537  0.00  0.00    +0.000 A 
ATOM      2  C   UNL     1       5.183   6.560  16.555  0.00  0.00    +0.000 A 
ATOM      3  C   UNL     1       4.299   7.370  17.271  0.00  0.00    +0.000 A 
ATOM      4  C   UNL     1       3.257   6.807  18.013  0.00  0.00    +0.000 A 
ATOM      5  C   UNL     1       3.106   5.417  18.008  0.00  0.00    +0.000 A 
ATOM      6  C   UNL     1       3.990   4.594  17.300  0.00  0.00    +0.000 A 
ENDROOT
BRANCH   1   8
ATOM      7  C   UNL     1       5.733   4.371  14.375  0.00  0.00    +0.000 C 
ATOM      8  O   UNL     1       5.807   4.334  15.793  0.00  0.00    +0.000 OA
ENDBRANCH   1   8
BRANCH   4   9
ATOM      9  C   UNL     1       2.333   7.712  18.698  0.00  0.00    +0.000 C 
ATOM     10  C   UNL     1       1.688   8.742  18.118  0.00  0.00    +0.000 C 
BRANCH  10  11
ATOM     11  C   UNL     1       0.799   9.638  18.867  0.00  0.00    +0.000 A 
ATOM     12  C   UNL     1       0.920   9.769  20.252  0.00  0.00    +0.000 A 
ATOM     13  C   UNL     1       0.089  10.625  20.972  0.00  0.00    +0.000 A 
ATOM     14  C   UNL     1      -0.900  11.371  20.297  0.00  0.00    +0.000 A 
ATOM     15  C   UNL     1      -1.025  11.259  18.895  0.00  0.00    +0.000 A 
ATOM     16  C   UNL     1      -0.159  10.404  18.193  0.00  0.00    +0.000 A 
BRANCH  13  17
ATOM     17  O   UNL     1       0.176  10.773  22.338  0.00  0.00    +0.000 OA
ATOM     18  C   UNL     1      -0.113   9.613  23.115  0.00  0.00    +0.000 C 
ENDBRANCH  13  17
BRANCH  14  19
ATOM     19  O   UNL     1      -1.716  12.121  21.114  0.00  0.00    +0.000 OA
ATOM     20  C   UNL     1      -1.455  13.515  21.194  0.00  0.00    +0.000 C 
ENDBRANCH  14  19
BRANCH  15  21
ATOM     21  O   UNL     1      -2.020  11.975  18.280  0.00  0.00    +0.000 OA
ATOM     22  C   UNL     1      -3.246  11.318  17.992  0.00  0.00    +0.000 C 
ENDBRANCH  15  21
ENDBRANCH  10  11
ENDBRANCH   4   9
BRANCH   6  23
ATOM     23  O   UNL     1       3.679   3.255  17.384  0.00  0.00    +0.000 OA
BRANCH  23  24
ATOM     24  C   UNL     1       3.888   2.644  18.659  0.00  0.00    +0.000 C 
BRANCH  24  25
ATOM     25  C   UNL     1       2.768   1.646  18.944  0.00  0.00    +0.000 C 
BRANCH  25  26
ATOM     26  C   UNL     1       1.460   2.311  19.343  0.00  0.00    +0.000 C 
BRANCH  26  27
ATOM     27  O   UNL     1       0.814   2.819  18.179  0.00  0.00    +0.000 OA
ATOM     28  H   UNL     1      -0.141   2.674  18.289  0.00  0.00    +0.000 HD
ENDBRANCH  26  27
ENDBRANCH  25  26
ENDBRANCH  24  25
ENDBRANCH  23  24
ENDBRANCH   6  23
TORSDOF 11
ENDMDL
MODEL 3
REMARK VINA RESULT:      -6.7      1.686      9.441
REMARK  Name = 
REMARK  15 active torsions:
REMARK  status: ('A' for Active; 'I' for Inactive)
REMARK    1  A    between atoms: C_1  and  O_2
REMARK    2  A    between atoms: O_2  and  C_3
REMARK    3  A    between atoms: C_6  and  C_7
REMARK    4  A    between atoms: C_8  and  C_9
REMARK    5  A    between atoms: C_11  and  O_12
REMARK    6  A    between atoms: O_12  and  C_13
REMARK    7  A    between atoms: C_14  and  O_15
REMARK    8  A    between atoms: O_15  and  C_16
REMARK    9  A    between atoms: C_17  and  O_18
REMARK   10  A    between atoms: O_18  and  C_19
REMARK   11  A    between atoms: C_22  and  O_23
REMARK   12  A    between atoms: O_23  and  C_24
REMARK   13  A    between atoms: C_24  and  C_25
REMARK   14  A    between atoms: C_25  and  C_26
REMARK   15  A    between atoms: C_26  and  O_27
REMARK                            x       y       z     vdW  Elec       q    Type
REMARK                         _______ _______ _______ _____ _____    ______ ____
ROOT
ATOM      1  C   UNL     1      -0.975  11.564  22.260  0.00  0.00    +0.000 A 
ATOM      2  C   UNL     1      -0.838  10.484  23.140  0.00  0.00    +0.000 A 
ATOM      3  C   UNL     1      -0.166   9.324  22.748  0.00  0.00    +0.000 A 
ATOM      4  C   UNL     1       0.416   9.231  21.481  0.00  0.00    +0.000 A 
ATOM      5  C   UNL     1       0.293  10.314  20.606  0.00  0.00    +0.000 A 
ATOM      6  C   UNL     1      -0.373  11.484  20.989  0.00  0.00    +0.000 A 
ENDROOT
BRANCH   1   8
ATOM      7  C   UNL     1      -3.104  12.623  22.656  0.00  0.00    +0.000 C 
ATOM      8  O   UNL     1      -1.688  12.689  22.557  0.00  0.00    +0.000 OA
ENDBRANCH   1   8
BRANCH   4   9
ATOM      9  C   UNL     1       1.061   7.969  21.111  0.00  0.00    +0.000 C 
ATOM     10  C   UNL     1       1.764   7.763  19.983  0.00  0.00    +0.000 C 
BRANCH  10  11
ATOM     11  C   UNL     1       2.359   6.463  19.650  0.00  0.00    +0.000 A 
ATOM     12  C   UNL     1       2.989   6.261  18.420  0.00  0.00    +0.000 A 
ATOM     13  C   UNL     1       3.567   5.036  18.097  0.00  0.00    +0.000 A 
ATOM     14  C   UNL     1       3.514   3.972  19.021  0.00  0.00    +0.000 A 
ATOM     15  C   UNL     1       2.893   4.165  20.275  0.00  0.00    +0.000 A 
ATOM     16  C   UNL     1       2.337   5.418  20.581  0.00  0.00    +0.000 A 
BRANCH  13  17
ATOM     17  O   UNL     1       4.189   4.800  16.891  0.00  0.00    +0.000 OA
ATOM     18  C   UNL     1       5.301   5.637  16.585  0.00  0.00    +0.000 C 
ENDBRANCH  13  17
BRANCH  14  19
ATOM     19  O   UNL     1       4.044   2.785  18.568  0.00  0.00    +0.000 OA
ATOM     20  C   UNL     1       3.151   1.858  17.969  0.00  0.00    +0.000 C 
ENDBRANCH  14  19
BRANCH  15  21
ATOM     21  O   UNL     1       2.832   3.098  21.133  0.00  0.00    +0.000 OA
ATOM     22  C   UNL     1       1.556   2.661  21.580  0.00  0.00    +0.000 C 
ENDBRANCH  15  21
ENDBRANCH  10  11
ENDBRANCH   4   9
BRANCH   6  23
ATOM     23  O   UNL     1      -0.421  12.437  19.996  0.00  0.00    +0.000 OA
BRANCH  23  24
ATOM     24  C   UNL     1      -1.027  12.030  18.768  0.00  0.00    +0.000 C 
BRANCH  24  25
ATOM     25  C   UNL     1      -2.522  11.806  18.977  0.00  0.00    +0.000 C 
BRANCH  25  26
ATOM     26  C   UNL     1      -3.194  11.109  17.805  0.00  0.00    +0.000 C 
BRANCH  26  27
ATOM     27  O   UNL     1      -4.002  12.046  17.098  0.00  0.00    +0.000 OA
ATOM     28  H   UNL     1      -3.637  12.126  16.200  0.00  0.00    +0.000 HD
ENDBRANCH  26  27
ENDBRANCH  25  26
ENDBRANCH  24  25
ENDBRANCH  23  24
ENDBRANCH   6  23
TORSDOF 11
ENDMDL
MODEL 4
REMARK VINA RESULT:      -6.6      1.435      2.618
REMARK  Name = 
REMARK  15 active torsions:
REMARK  status: ('A' for Active; 'I' for Inactive)
REMARK    1  A    between atoms: C_1  and  O_2
REMARK    2  A    between atoms: O_2  and  C_3
REMARK    3  A    between atoms: C_6  and  C_7
REMARK    4  A    between atoms: C_8  and  C_9
REMARK    5  A    between atoms: C_11  and  O_12
REMARK    6  A    between atoms: O_12  and  C_13
REMARK    7  A    between atoms: C_14  and  O_15
REMARK    8  A    between atoms: O_15  and  C_16
REMARK    9  A    between atoms: C_17  and  O_18
REMARK   10  A    between atoms: O_18  and  C_19
REMARK   11  A    between atoms: C_22  and  O_23
REMARK   12  A    between atoms: O_23  and  C_24
REMARK   13  A    between atoms: C_24  and  C_25
REMARK   14  A    between atoms: C_25  and  C_26
REMARK   15  A    between atoms: C_26  and  O_27
REMARK                            x       y       z     vdW  Elec       q    Type
REMARK                         _______ _______ _______ _____ _____    ______ ____
ROOT
ATOM      1  C   UNL     1       5.096   4.833  16.658  0.00  0.00    +0.000 A 
ATOM      2  C   UNL     1       5.361   6.204  16.550  0.00  0.00    +0.000 A 
ATOM      3  C   UNL     1       4.507   7.144  17.130  0.00  0.00    +0.000 A 
ATOM      4  C   UNL     1       3.387   6.737  17.860  0.00  0.00    +0.000 A 
ATOM      5  C   UNL     1       3.128   5.369  17.981  0.00  0.00    +0.000 A 
ATOM      6  C   UNL     1       3.980   4.415  17.410  0.00  0.00    +0.000 A 
ENDROOT
BRANCH   1   8
ATOM      7  C   UNL     1       6.231   4.031  14.688  0.00  0.00    +0.000 C 
ATOM      8  O   UNL     1       5.847   3.872  16.047  0.00  0.00    +0.000 OA
ENDBRANCH   1   8
BRANCH   4   9
ATOM      9  C   UNL     1       2.502   7.772  18.398  0.00  0.00    +0.000 C 
ATOM     10  C   UNL     1       1.748   8.604  17.657  0.00  0.00    +0.000 C 
BRANCH  10  11
ATOM     11  C   UNL     1       0.905   9.648  18.253  0.00  0.00    +0.000 A 
ATOM     12  C   UNL     1      -0.430   9.791  17.870  0.00  0.00    +0.000 A 
ATOM     13  C   UNL     1      -1.243  10.770  18.437  0.00  0.00    +0.000 A 
ATOM     14  C   UNL     1      -0.713  11.641  19.411  0.00  0.00    +0.000 A 
ATOM     15  C   UNL     1       0.633  11.500  19.819  0.00  0.00    +0.000 A 
ATOM     16  C   UNL     1       1.422  10.490  19.245  0.00  0.00    +0.000 A 
BRANCH  13  17
ATOM     17  O   UNL     1      -2.561  10.944  18.078  0.00  0.00    +0.000 OA
ATOM     18  C   UNL     1      -2.813  11.139  16.689  0.00  0.00    +0.000 C 
ENDBRANCH  13  17
BRANCH  14  19
ATOM     19  O   UNL     1      -1.579  12.621  19.845  0.00  0.00    +0.000 OA
ATOM     20  C   UNL     1      -2.201  12.429  21.107  0.00  0.00    +0.000 C 
ENDBRANCH  14  19
BRANCH  15  21
ATOM     21  O   UNL     1       1.120  12.387  20.743  0.00  0.00    +0.000 OA
ATOM     22  C   UNL     1       2.116  13.313  20.332  0.00  0.00    +0.000 C 
ENDBRANCH  15  21
ENDBRANCH  10  11
ENDBRANCH   4   9
BRANCH   6  23
ATOM     23  O   UNL     1       3.561   3.118  17.605  0.00  0.00    +0.000 OA
BRANCH  23  24
ATOM     24  C   UNL     1       2.158   2.940  17.814  0.00  0.00    +0.000 C 
BRANCH  24  25
ATOM     25  C   UNL     1       1.926   2.006  18.998  0.00  0.00    +0.000 C 
BRANCH  25  26
ATOM     26  C   UNL     1       1.897   2.729  20.335  0.00  0.00    +0.000 C 
BRANCH  26  27
ATOM     27  O   UNL     1       0.548   3.032  20.680  0.00  0.00    +0.000 OA
ATOM     28  H   UNL     1      -0.008   2.307  20.347  0.00  0.00    +0.000 HD
ENDBRANCH  26  27
ENDBRANCH  25  26
ENDBRANCH  24  25
ENDBRANCH  23  24
ENDBRANCH   6  23
TORSDOF 11
ENDMDL
MODEL 5
REMARK VINA RESULT:      -6.6      1.497      9.417
REMARK  Name = 
REMARK  15 active torsions:
REMARK  status: ('A' for Active; 'I' for Inactive)
REMARK    1  A    between atoms: C_1  and  O_2
REMARK    2  A    between atoms: O_2  and  C_3
REMARK    3  A    between atoms: C_6  and  C_7
REMARK    4  A    between atoms: C_8  and  C_9
REMARK    5  A    between atoms: C_11  and  O_12
REMARK    6  A    between atoms: O_12  and  C_13
REMARK    7  A    between atoms: C_14  and  O_15
REMARK    8  A    between atoms: O_15  and  C_16
REMARK    9  A    between atoms: C_17  and  O_18
REMARK   10  A    between atoms: O_18  and  C_19
REMARK   11  A    between atoms: C_22  and  O_23
REMARK   12  A    between atoms: O_23  and  C_24
REMARK   13  A    between atoms: C_24  and  C_25
REMARK   14  A    between atoms: C_25  and  C_26
REMARK   15  A    between atoms: C_26  and  O_27
REMARK                            x       y       z     vdW  Elec       q    Type
REMARK                         _______ _______ _______ _____ _____    ______ ____
ROOT
ATOM      1  C   UNL     1      -1.207  11.434  19.661  0.00  0.00    +0.000 A 
ATOM      2  C   UNL     1      -0.070  11.064  20.390  0.00  0.00    +0.000 A 
ATOM      3  C   UNL     1       0.889  10.214  19.835  0.00  0.00    +0.000 A 
ATOM      4  C   UNL     1       0.751   9.742  18.527  0.00  0.00    +0.000 A 
ATOM      5  C   UNL     1      -0.375  10.121  17.792  0.00  0.00    +0.000 A 
ATOM      6  C   UNL     1      -1.341  10.978  18.335  0.00  0.00    +0.000 A 
ENDROOT
BRANCH   1   8
ATOM      7  C   UNL     1      -2.194  12.563  21.549  0.00  0.00    +0.000 C 
ATOM      8  O   UNL     1      -2.216  12.195  20.177  0.00  0.00    +0.000 OA
ENDBRANCH   1   8
BRANCH   4   9
ATOM      9  C   UNL     1       1.764   8.812  18.022  0.00  0.00    +0.000 C 
ATOM     10  C   UNL     1       2.004   7.586  18.522  0.00  0.00    +0.000 C 
BRANCH  10  11
ATOM     11  C   UNL     1       3.058   6.711  17.994  0.00  0.00    +0.000 A 
ATOM     12  C   UNL     1       2.899   5.324  17.994  0.00  0.00    +0.000 A 
ATOM     13  C   UNL     1       3.888   4.484  17.485  0.00  0.00    +0.000 A 
ATOM     14  C   UNL     1       5.077   5.037  16.967  0.00  0.00    +0.000 A 
ATOM     15  C   UNL     1       5.246   6.439  16.947  0.00  0.00    +0.000 A 
ATOM     16  C   UNL     1       4.223   7.262  17.447  0.00  0.00    +0.000 A 
BRANCH  13  17
ATOM     17  O   UNL     1       3.768   3.112  17.476  0.00  0.00    +0.000 OA
ATOM     18  C   UNL     1       2.446   2.597  17.612  0.00  0.00    +0.000 C 
ENDBRANCH  13  17
BRANCH  14  19
ATOM     19  O   UNL     1       6.018   4.114  16.566  0.00  0.00    +0.000 OA
ATOM     20  C   UNL     1       6.140   3.870  15.172  0.00  0.00    +0.000 C 
ENDBRANCH  14  19
BRANCH  15  21
ATOM     21  O   UNL     1       6.429   6.936  16.466  0.00  0.00    +0.000 OA
ATOM     22  C   UNL     1       7.441   7.294  17.397  0.00  0.00    +0.000 C 
ENDBRANCH  15  21
ENDBRANCH  10  11
ENDBRANCH   4   9
BRANCH   6  23
ATOM     23  O   UNL     1      -2.394  11.226  17.484  0.00  0.00    +0.000 OA
BRANCH  23  24
ATOM     24  C   UNL     1      -3.403  10.215  17.426  0.00  0.00    +0.000 C 
BRANCH  24  25
ATOM     25  C   UNL     1      -4.721  10.767  17.959  0.00  0.00    +0.000 C 
BRANCH  25  26
ATOM     26  C   UNL     1      -5.237  11.957  17.165  0.00  0.00    +0.000 C 
BRANCH  26  27
ATOM     27  O   UNL     1      -6.662  11.931  17.146  0.00  0.00    +0.000 OA
ATOM     28  H   UNL     1      -6.974  12.664  17.704  0.00  0.00    +0.000 HD
ENDBRANCH  26  27
ENDBRANCH  25  26
ENDBRANCH  24  25
ENDBRANCH  23  24
ENDBRANCH   6  23
TORSDOF 11
ENDMDL
MODEL 6
REMARK VINA RESULT:      -6.5      0.892      2.597
REMARK  Name = 
REMARK  15 active torsions:
REMARK  status: ('A' for Active; 'I' for Inactive)
REMARK    1  A    between atoms: C_1  and  O_2
REMARK    2  A    between atoms: O_2  and  C_3
REMARK    3  A    between atoms: C_6  and  C_7
REMARK    4  A    between atoms: C_8  and  C_9
REMARK    5  A    between atoms: C_11  and  O_12
REMARK    6  A    between atoms: O_12  and  C_13
REMARK    7  A    between atoms: C_14  and  O_15
REMARK    8  A    between atoms: O_15  and  C_16
REMARK    9  A    between atoms: C_17  and  O_18
REMARK   10  A    between atoms: O_18  and  C_19
REMARK   11  A    between atoms: C_22  and  O_23
REMARK   12  A    between atoms: O_23  and  C_24
REMARK   13  A    between atoms: C_24  and  C_25
REMARK   14  A    between atoms: C_25  and  C_26
REMARK   15  A    between atoms: C_26  and  O_27
REMARK                            x       y       z     vdW  Elec       q    Type
REMARK                         _______ _______ _______ _____ _____    ______ ____
ROOT
ATOM      1  C   UNL     1       5.408   5.084  17.119  0.00  0.00    +0.000 A 
ATOM      2  C   UNL     1       5.016   6.293  16.532  0.00  0.00    +0.000 A 
ATOM      3  C   UNL     1       4.068   7.112  17.148  0.00  0.00    +0.000 A 
ATOM      4  C   UNL     1       3.514   6.759  18.382  0.00  0.00    +0.000 A 
ATOM      5  C   UNL     1       3.915   5.559  18.977  0.00  0.00    +0.000 A 
ATOM      6  C   UNL     1       4.870   4.733  18.372  0.00  0.00    +0.000 A 
ENDROOT
BRANCH   1   8
ATOM      7  C   UNL     1       6.051   3.798  15.183  0.00  0.00    +0.000 C 
ATOM      8  O   UNL     1       6.269   4.206  16.527  0.00  0.00    +0.000 OA
ENDBRANCH   1   8
BRANCH   4   9
ATOM      9  C   UNL     1       2.486   7.633  18.951  0.00  0.00    +0.000 C 
ATOM     10  C   UNL     1       1.958   8.706  18.334  0.00  0.00    +0.000 C 
BRANCH  10  11
ATOM     11  C   UNL     1       0.954   9.567  18.971  0.00  0.00    +0.000 A 
ATOM     12  C   UNL     1      -0.003  10.234  18.202  0.00  0.00    +0.000 A 
ATOM     13  C   UNL     1      -0.969  11.044  18.795  0.00  0.00    +0.000 A 
ATOM     14  C   UNL     1      -0.983  11.205  20.196  0.00  0.00    +0.000 A 
ATOM     15  C   UNL     1      -0.030  10.525  20.988  0.00  0.00    +0.000 A 
ATOM     16  C   UNL     1       0.918   9.698  20.364  0.00  0.00    +0.000 A 
BRANCH  13  17
ATOM     17  O   UNL     1      -1.922  11.722  18.068  0.00  0.00    +0.000 OA
ATOM     18  C   UNL     1      -2.979  10.933  17.529  0.00  0.00    +0.000 C 
ENDBRANCH  13  17
BRANCH  14  19
ATOM     19  O   UNL     1      -1.927  12.089  20.668  0.00  0.00    +0.000 OA
ATOM     20  C   UNL     1      -1.509  13.427  20.898  0.00  0.00    +0.000 C 
ENDBRANCH  14  19
BRANCH  15  21
ATOM     21  O   UNL     1      -0.056  10.733  22.342  0.00  0.00    +0.000 OA
ATOM     22  C   UNL     1      -0.105   9.601  23.200  0.00  0.00    +0.000 C 
ENDBRANCH  15  21
ENDBRANCH  10  11
ENDBRANCH   4   9
BRANCH   6  23
ATOM     23  O   UNL     1       5.126   3.581  19.082  0.00  0.00    +0.000 OA
BRANCH  23  24
ATOM     24  C   UNL     1       4.060   3.104  19.905  0.00  0.00    +0.000 C 
BRANCH  24  25
ATOM     25  C   UNL     1       2.927   2.576  19.030  0.00  0.00    +0.000 C 
BRANCH  25  26
ATOM     26  C   UNL     1       3.396   1.588  17.973  0.00  0.00    +0.000 C 
BRANCH  26  27
ATOM     27  O   UNL     1       4.376   0.722  18.538  0.00  0.00    +0.000 OA
ATOM     28  H   UNL     1       3.940  -0.127  18.729  0.00  0.00    +0.000 HD
ENDBRANCH  26  27
ENDBRANCH  25  26
ENDBRANCH  24  25
ENDBRANCH  23  24
ENDBRANCH   6  23
TORSDOF 11
ENDMDL
MODEL 7
REMARK VINA RESULT:      -6.5      1.672      9.221
REMARK  Name = 
REMARK  15 active torsions:
REMARK  status: ('A' for Active; 'I' for Inactive)
REMARK    1  A    between atoms: C_1  and  O_2
REMARK    2  A    between atoms: O_2  and  C_3
REMARK    3  A    between atoms: C_6  and  C_7
REMARK    4  A    between atoms: C_8  and  C_9
REMARK    5  A    between atoms: C_11  and  O_12
REMARK    6  A    between atoms: O_12  and  C_13
REMARK    7  A    between atoms: C_14  and  O_15
REMARK    8  A    between atoms: O_15  and  C_16
REMARK    9  A    between atoms: C_17  and  O_18
REMARK   10  A    between atoms: O_18  and  C_19
REMARK   11  A    between atoms: C_22  and  O_23
REMARK   12  A    between atoms: O_23  and  C_24
REMARK   13  A    between atoms: C_24  and  C_25
REMARK   14  A    between atoms: C_25  and  C_26
REMARK   15  A    between atoms: C_26  and  O_27
REMARK                            x       y       z     vdW  Elec       q    Type
REMARK                         _______ _______ _______ _____ _____    ______ ____
ROOT
ATOM      1  C   UNL     1      -0.312  12.134  19.246  0.00  0.00    +0.000 A 
ATOM      2  C   UNL     1       1.083  12.251  19.255  0.00  0.00    +0.000 A 
ATOM      3  C   UNL     1       1.889  11.225  18.759  0.00  0.00    +0.000 A 
ATOM      4  C   UNL     1       1.320  10.072  18.211  0.00  0.00    +0.000 A 
ATOM      5  C   UNL     1      -0.073   9.959  18.188  0.00  0.00    +0.000 A 
ATOM      6  C   UNL     1      -0.893  10.984  18.676  0.00  0.00    +0.000 A 
ENDROOT
BRANCH   1   8
ATOM      7  C   UNL     1      -0.785  14.439  19.769  0.00  0.00    +0.000 C 
ATOM      8  O   UNL     1      -1.148  13.066  19.788  0.00  0.00    +0.000 OA
ENDBRANCH   1   8
BRANCH   4   9
ATOM      9  C   UNL     1       2.220   9.009  17.757  0.00  0.00    +0.000 C 
ATOM     10  C   UNL     1       2.311   7.786  18.310  0.00  0.00    +0.000 C 
BRANCH  10  11
ATOM     11  C   UNL     1       3.259   6.773  17.832  0.00  0.00    +0.000 A 
ATOM     12  C   UNL     1       4.537   7.138  17.402  0.00  0.00    +0.000 A 
ATOM     13  C   UNL     1       5.449   6.184  16.956  0.00  0.00    +0.000 A 
ATOM     14  C   UNL     1       5.081   4.823  16.928  0.00  0.00    +0.000 A 
ATOM     15  C   UNL     1       3.796   4.437  17.373  0.00  0.00    +0.000 A 
ATOM     16  C   UNL     1       2.905   5.418  17.837  0.00  0.00    +0.000 A 
BRANCH  13  17
ATOM     17  O   UNL     1       6.714   6.510  16.519  0.00  0.00    +0.000 OA
ATOM     18  C   UNL     1       7.531   7.226  17.441  0.00  0.00    +0.000 C 
ENDBRANCH  13  17
BRANCH  14  19
ATOM     19  O   UNL     1       6.028   3.978  16.395  0.00  0.00    +0.000 OA
ATOM     20  C   UNL     1       6.001   3.771  14.990  0.00  0.00    +0.000 C 
ENDBRANCH  14  19
BRANCH  15  21
ATOM     21  O   UNL     1       3.464   3.109  17.299  0.00  0.00    +0.000 OA
ATOM     22  C   UNL     1       3.674   2.295  18.444  0.00  0.00    +0.000 C 
ENDBRANCH  15  21
ENDBRANCH  10  11
ENDBRANCH   4   9
BRANCH   6  23
ATOM     23  O   UNL     1      -2.237  10.694  18.599  0.00  0.00    +0.000 OA
BRANCH  23  24
ATOM     24  C   UNL     1      -2.639   9.885  17.492  0.00  0.00    +0.000 C 
BRANCH  24  25
ATOM     25  C   UNL     1      -3.857  10.506  16.813  0.00  0.00    +0.000 C 
BRANCH  25  26
ATOM     26  C   UNL     1      -4.859  11.090  17.796  0.00  0.00    +0.000 C 
BRANCH  26  27
ATOM     27  O   UNL     1      -4.453  12.407  18.159  0.00  0.00    +0.000 OA
ATOM     28  H   UNL     1      -5.133  13.021  17.834  0.00  0.00    +0.000 HD
ENDBRANCH  26  27
ENDBRANCH  25  26
ENDBRANCH  24  25
ENDBRANCH  23  24
ENDBRANCH   6  23
TORSDOF 11
ENDMDL
MODEL 8
REMARK VINA RESULT:      -6.5      2.055      9.408
REMARK  Name = 
REMARK  15 active torsions:
REMARK  status: ('A' for Active; 'I' for Inactive)
REMARK    1  A    between atoms: C_1  and  O_2
REMARK    2  A    between atoms: O_2  and  C_3
REMARK    3  A    between atoms: C_6  and  C_7
REMARK    4  A    between atoms: C_8  and  C_9
REMARK    5  A    between atoms: C_11  and  O_12
REMARK    6  A    between atoms: O_12  and  C_13
REMARK    7  A    between atoms: C_14  and  O_15
REMARK    8  A    between atoms: O_15  and  C_16
REMARK    9  A    between atoms: C_17  and  O_18
REMARK   10  A    between atoms: O_18  and  C_19
REMARK   11  A    between atoms: C_22  and  O_23
REMARK   12  A    between atoms: O_23  and  C_24
REMARK   13  A    between atoms: C_24  and  C_25
REMARK   14  A    between atoms: C_25  and  C_26
REMARK   15  A    between atoms: C_26  and  O_27
REMARK                            x       y       z     vdW  Elec       q    Type
REMARK                         _______ _______ _______ _____ _____    ______ ____
ROOT
ATOM      1  C   UNL     1      -0.851  11.618  22.327  0.00  0.00    +0.000 A 
ATOM      2  C   UNL     1      -0.972  10.447  23.084  0.00  0.00    +0.000 A 
ATOM      3  C   UNL     1      -0.270   9.292  22.729  0.00  0.00    +0.000 A 
ATOM      4  C   UNL     1       0.595   9.292  21.632  0.00  0.00    +0.000 A 
ATOM      5  C   UNL     1       0.728  10.465  20.884  0.00  0.00    +0.000 A 
ATOM      6  C   UNL     1       0.035  11.631  21.232  0.00  0.00    +0.000 A 
ENDROOT
BRANCH   1   8
ATOM      7  C   UNL     1      -2.909  12.651  23.040  0.00  0.00    +0.000 C 
ATOM      8  O   UNL     1      -1.571  12.751  22.576  0.00  0.00    +0.000 OA
ENDBRANCH   1   8
BRANCH   4   9
ATOM      9  C   UNL     1       1.260   8.035  21.281  0.00  0.00    +0.000 C 
ATOM     10  C   UNL     1       1.849   7.778  20.099  0.00  0.00    +0.000 C 
BRANCH  10  11
ATOM     11  C   UNL     1       2.471   6.484  19.792  0.00  0.00    +0.000 A 
ATOM     12  C   UNL     1       2.221   5.366  20.591  0.00  0.00    +0.000 A 
ATOM     13  C   UNL     1       2.797   4.130  20.304  0.00  0.00    +0.000 A 
ATOM     14  C   UNL     1       3.654   3.999  19.192  0.00  0.00    +0.000 A 
ATOM     15  C   UNL     1       3.906   5.118  18.367  0.00  0.00    +0.000 A 
ATOM     16  C   UNL     1       3.294   6.346  18.669  0.00  0.00    +0.000 A 
BRANCH  13  17
ATOM     17  O   UNL     1       2.578   3.009  21.074  0.00  0.00    +0.000 OA
ATOM     18  C   UNL     1       1.215   2.679  21.329  0.00  0.00    +0.000 C 
ENDBRANCH  13  17
BRANCH  14  19
ATOM     19  O   UNL     1       4.230   2.757  19.049  0.00  0.00    +0.000 OA
ATOM     20  C   UNL     1       3.564   1.821  18.214  0.00  0.00    +0.000 C 
ENDBRANCH  14  19
BRANCH  15  21
ATOM     21  O   UNL     1       4.771   4.958  17.316  0.00  0.00    +0.000 OA
ATOM     22  C   UNL     1       4.840   5.984  16.335  0.00  0.00    +0.000 C 
ENDBRANCH  15  21
ENDBRANCH  10  11
ENDBRANCH   4   9
BRANCH   6  23
ATOM     23  O   UNL     1       0.264  12.682  20.373  0.00  0.00    +0.000 OA
BRANCH  23  24
ATOM     24  C   UNL     1       1.268  12.468  19.378  0.00  0.00    +0.000 C 
BRANCH  24  25
ATOM     25  C   UNL     1       1.539  13.770  18.629  0.00  0.00    +0.000 C 
BRANCH  25  26
ATOM     26  C   UNL     1       0.751  14.951  19.174  0.00  0.00    +0.000 C 
BRANCH  26  27
ATOM     27  O   UNL     1      -0.614  14.830  18.783  0.00  0.00    +0.000 OA
ATOM     28  H   UNL     1      -0.850  13.888  18.840  0.00  0.00    +0.000 HD
ENDBRANCH  26  27
ENDBRANCH  25  26
ENDBRANCH  24  25
ENDBRANCH  23  24
ENDBRANCH   6  23
TORSDOF 11
ENDMDL
MODEL 9
REMARK VINA RESULT:      -6.5      1.385      1.648
REMARK  Name = 
REMARK  15 active torsions:
REMARK  status: ('A' for Active; 'I' for Inactive)
REMARK    1  A    between atoms: C_1  and  O_2
REMARK    2  A    between atoms: O_2  and  C_3
REMARK    3  A    between atoms: C_6  and  C_7
REMARK    4  A    between atoms: C_8  and  C_9
REMARK    5  A    between atoms: C_11  and  O_12
REMARK    6  A    between atoms: O_12  and  C_13
REMARK    7  A    between atoms: C_14  and  O_15
REMARK    8  A    between atoms: O_15  and  C_16
REMARK    9  A    between atoms: C_17  and  O_18
REMARK   10  A    between atoms: O_18  and  C_19
REMARK   11  A    between atoms: C_22  and  O_23
REMARK   12  A    between atoms: O_23  and  C_24
REMARK   13  A    between atoms: C_24  and  C_25
REMARK   14  A    between atoms: C_25  and  C_26
REMARK   15  A    between atoms: C_26  and  O_27
REMARK                            x       y       z     vdW  Elec       q    Type
REMARK                         _______ _______ _______ _____ _____    ______ ____
ROOT
ATOM      1  C   UNL     1       4.677   4.871  16.667  0.00  0.00    +0.000 A 
ATOM      2  C   UNL     1       4.959   6.242  16.620  0.00  0.00    +0.000 A 
ATOM      3  C   UNL     1       4.169   7.158  17.318  0.00  0.00    +0.000 A 
ATOM      4  C   UNL     1       3.101   6.723  18.107  0.00  0.00    +0.000 A 
ATOM      5  C   UNL     1       2.826   5.354  18.167  0.00  0.00    +0.000 A 
ATOM      6  C   UNL     1       3.614   4.425  17.477  0.00  0.00    +0.000 A 
ENDROOT
BRANCH   1   8
ATOM      7  C   UNL     1       5.895   4.280  14.672  0.00  0.00    +0.000 C 
ATOM      8  O   UNL     1       5.361   3.938  15.943  0.00  0.00    +0.000 OA
ENDBRANCH   1   8
BRANCH   4   9
ATOM      9  C   UNL     1       2.279   7.736  18.772  0.00  0.00    +0.000 C 
ATOM     10  C   UNL     1       1.900   8.905  18.223  0.00  0.00    +0.000 C 
BRANCH  10  11
ATOM     11  C   UNL     1       1.104   9.898  18.953  0.00  0.00    +0.000 A 
ATOM     12  C   UNL     1       0.617   9.621  20.232  0.00  0.00    +0.000 A 
ATOM     13  C   UNL     1      -0.131  10.560  20.940  0.00  0.00    +0.000 A 
ATOM     14  C   UNL     1      -0.411  11.814  20.357  0.00  0.00    +0.000 A 
ATOM     15  C   UNL     1       0.086  12.114  19.069  0.00  0.00    +0.000 A 
ATOM     16  C   UNL     1       0.855  11.155  18.389  0.00  0.00    +0.000 A 
BRANCH  13  17
ATOM     17  O   UNL     1      -0.633  10.318  22.199  0.00  0.00    +0.000 OA
ATOM     18  C   UNL     1       0.159   9.483  23.040  0.00  0.00    +0.000 C 
ENDBRANCH  13  17
BRANCH  14  19
ATOM     19  O   UNL     1      -1.224  12.632  21.109  0.00  0.00    +0.000 OA
ATOM     20  C   UNL     1      -2.591  12.720  20.731  0.00  0.00    +0.000 C 
ENDBRANCH  14  19
BRANCH  15  21
ATOM     21  O   UNL     1      -0.236  13.329  18.524  0.00  0.00    +0.000 OA
ATOM     22  C   UNL     1       0.554  14.458  18.874  0.00  0.00    +0.000 C 
ENDBRANCH  15  21
ENDBRANCH  10  11
ENDBRANCH   4   9
BRANCH   6  23
ATOM     23  O   UNL     1       3.187   3.125  17.627  0.00  0.00    +0.000 OA
BRANCH  23  24
ATOM     24  C   UNL     1       1.946   2.950  18.315  0.00  0.00    +0.000 C 
BRANCH  24  25
ATOM     25  C   UNL     1       2.182   2.205  19.626  0.00  0.00    +0.000 C 
BRANCH  25  26
ATOM     26  C   UNL     1       1.324   2.720  20.771  0.00  0.00    +0.000 C 
BRANCH  26  27
ATOM     27  O   UNL     1       0.418   3.703  20.278  0.00  0.00    +0.000 OA
ATOM     28  H   UNL     1       0.057   3.371  19.438  0.00  0.00    +0.000 HD
ENDBRANCH  26  27
ENDBRANCH  25  26
ENDBRANCH  24  25
ENDBRANCH  23  24
ENDBRANCH   6  23
TORSDOF 11
ENDMDL
