MODEL 1
REMARK VINA RESULT:      -7.2      0.000      0.000
REMARK  Name = 
REMARK  6 active torsions:
REMARK  status: ('A' for Active; 'I' for Inactive)
REMARK    1  A    between atoms: C_1  and  C_2
REMARK    2  A    between atoms: C_2  and  O_3
REMARK    3  A    between atoms: O_3  and  C_4
REMARK    4  A    between atoms: C_4  and  C_6
REMARK    5  A    between atoms: C_8  and  N_9
REMARK    6  A    between atoms: C_10  and  C_12
REMARK                            x       y       z     vdW  Elec       q    Type
REMARK                         _______ _______ _______ _____ _____    ______ ____
ROOT
ATOM      1  N   UNL     1       4.635   4.387  16.949  0.00  0.00    +0.000 N 
ATOM      2  C   UNL     1       5.035   4.231  18.321  0.00  0.00    +0.000 C 
ATOM      3  O   UNL     1       6.213   4.179  18.634  0.00  0.00    +0.000 OA
ATOM      4  H   UNL     1       3.643   4.413  16.730  0.00  0.00    +0.000 HD
ENDROOT
BRANCH   2   5
ATOM      5  C   UNL     1       3.978   4.133  19.350  0.00  0.00    +0.000 A 
ATOM      6  C   UNL     1       3.766   2.900  19.989  0.00  0.00    +0.000 A 
ATOM      7  C   UNL     1       2.775   2.774  20.964  0.00  0.00    +0.000 A 
ATOM      8  C   UNL     1       1.991   3.876  21.307  0.00  0.00    +0.000 A 
ATOM      9  C   UNL     1       2.201   5.102  20.674  0.00  0.00    +0.000 A 
ATOM     10 CL   UNL     1       1.229   6.454  21.104  0.00  0.00    +0.000 Cl
ATOM     11  C   UNL     1       3.192   5.228  19.701  0.00  0.00    +0.000 A 
ATOM     12  F   UNL     1       3.390   6.412  19.096  0.00  0.00    +0.000 F 
ENDBRANCH   2   5
BRANCH   1  15
ATOM     13  C   UNL     1       6.634   4.494  13.959  0.00  0.00    +0.000 A 
ATOM     14  C   UNL     1       5.383   4.215  14.572  0.00  0.00    +0.000 A 
ATOM     15  C   UNL     1       5.534   4.531  15.900  0.00  0.00    +0.000 A 
ATOM     16  N   UNL     1       6.811   5.016  16.009  0.00  0.00    +0.000 N 
ATOM     17  N   UNL     1       7.497   5.007  14.858  0.00  0.00    +0.000 NA
ATOM     18  H   UNL     1       7.288   5.349  16.839  0.00  0.00    +0.000 HD
BRANCH  13  19
ATOM     19  C   UNL     1       6.986   4.191  12.565  0.00  0.00    +0.000 C 
ATOM     20  O   UNL     1       7.710   4.918  11.897  0.00  0.00    +0.000 OA
BRANCH  19  21
ATOM     21  O   UNL     1       6.334   3.091  12.088  0.00  0.00    +0.000 OA
BRANCH  21  23
ATOM     22  C   UNL     1       6.298   0.943  11.045  0.00  0.00    +0.000 C 
ATOM     23  C   UNL     1       7.148   2.162  11.363  0.00  0.00    +0.000 C 
ENDBRANCH  21  23
ENDBRANCH  19  21
ENDBRANCH  13  19
ENDBRANCH   1  15
TORSDOF 5
ENDMDL
MODEL 2
REMARK VINA RESULT:      -7.2      2.919      3.533
REMARK  Name = 
REMARK  6 active torsions:
REMARK  status: ('A' for Active; 'I' for Inactive)
REMARK    1  A    between atoms: C_1  and  C_2
REMARK    2  A    between atoms: C_2  and  O_3
REMARK    3  A    between atoms: O_3  and  C_4
REMARK    4  A    between atoms: C_4  and  C_6
REMARK    5  A    between atoms: C_8  and  N_9
REMARK    6  A    between atoms: C_10  and  C_12
REMARK                            x       y       z     vdW  Elec       q    Type
REMARK                         _______ _______ _______ _____ _____    ______ ____
ROOT
ATOM      1  N   UNL     1       4.151   6.907  17.709  0.00  0.00    +0.000 N 
ATOM      2  C   UNL     1       2.851   6.574  18.224  0.00  0.00    +0.000 C 
ATOM      3  O   UNL     1       2.341   5.490  17.998  0.00  0.00    +0.000 OA
ATOM      4  H   UNL     1       4.535   7.826  17.910  0.00  0.00    +0.000 HD
ENDROOT
BRANCH   2   5
ATOM      5  C   UNL     1       2.143   7.584  19.040  0.00  0.00    +0.000 A 
ATOM      6  C   UNL     1       1.865   7.294  20.385  0.00  0.00    +0.000 A 
ATOM      7  C   UNL     1       1.197   8.225  21.182  0.00  0.00    +0.000 A 
ATOM      8  C   UNL     1       0.802   9.449  20.642  0.00  0.00    +0.000 A 
ATOM      9  C   UNL     1       1.078   9.739  19.305  0.00  0.00    +0.000 A 
ATOM     10 CL   UNL     1       0.588  11.251  18.648  0.00  0.00    +0.000 Cl
ATOM     11  C   UNL     1       1.748   8.809  18.509  0.00  0.00    +0.000 A 
ATOM     12  F   UNL     1       2.012   9.096  17.222  0.00  0.00    +0.000 F 
ENDBRANCH   2   5
BRANCH   1  15
ATOM     13  C   UNL     1       6.091   4.945  15.400  0.00  0.00    +0.000 A 
ATOM     14  C   UNL     1       5.436   6.169  15.698  0.00  0.00    +0.000 A 
ATOM     15  C   UNL     1       4.929   6.028  16.966  0.00  0.00    +0.000 A 
ATOM     16  N   UNL     1       5.333   4.785  17.376  0.00  0.00    +0.000 N 
ATOM     17  N   UNL     1       6.034   4.109  16.455  0.00  0.00    +0.000 NA
ATOM     18  H   UNL     1       5.148   4.322  18.259  0.00  0.00    +0.000 HD
BRANCH  13  19
ATOM     19  C   UNL     1       6.676   4.586  14.100  0.00  0.00    +0.000 C 
ATOM     20  O   UNL     1       7.481   5.304  13.521  0.00  0.00    +0.000 OA
BRANCH  19  21
ATOM     21  O   UNL     1       6.140   3.443  13.582  0.00  0.00    +0.000 OA
BRANCH  21  23
ATOM     22  C   UNL     1       4.633   3.300  11.736  0.00  0.00    +0.000 C 
ATOM     23  C   UNL     1       6.092   3.380  12.153  0.00  0.00    +0.000 C 
ENDBRANCH  21  23
ENDBRANCH  19  21
ENDBRANCH  13  19
ENDBRANCH   1  15
TORSDOF 5
ENDMDL
MODEL 3
REMARK VINA RESULT:      -7.0      1.347      1.758
REMARK  Name = 
REMARK  6 active torsions:
REMARK  status: ('A' for Active; 'I' for Inactive)
REMARK    1  A    between atoms: C_1  and  C_2
REMARK    2  A    between atoms: C_2  and  O_3
REMARK    3  A    between atoms: O_3  and  C_4
REMARK    4  A    between atoms: C_4  and  C_6
REMARK    5  A    between atoms: C_8  and  N_9
REMARK    6  A    between atoms: C_10  and  C_12
REMARK                            x       y       z     vdW  Elec       q    Type
REMARK                         _______ _______ _______ _____ _____    ______ ____
ROOT
ATOM      1  N   UNL     1       4.475   5.281  16.708  0.00  0.00    +0.000 N 
ATOM      2  C   UNL     1       4.630   4.664  17.997  0.00  0.00    +0.000 C 
ATOM      3  O   UNL     1       5.604   3.978  18.256  0.00  0.00    +0.000 OA
ATOM      4  H   UNL     1       3.642   5.835  16.529  0.00  0.00    +0.000 HD
ENDROOT
BRANCH   2   5
ATOM      5  C   UNL     1       3.573   4.882  19.008  0.00  0.00    +0.000 A 
ATOM      6  C   UNL     1       3.035   6.171  19.158  0.00  0.00    +0.000 A 
ATOM      7  C   UNL     1       2.038   6.411  20.104  0.00  0.00    +0.000 A 
ATOM      8  C   UNL     1       1.571   5.368  20.905  0.00  0.00    +0.000 A 
ATOM      9  C   UNL     1       2.104   4.087  20.756  0.00  0.00    +0.000 A 
ATOM     10 CL   UNL     1       1.522   2.808  21.748  0.00  0.00    +0.000 Cl
ATOM     11  C   UNL     1       3.100   3.847  19.809  0.00  0.00    +0.000 A 
ATOM     12  F   UNL     1       3.607   2.610  19.670  0.00  0.00    +0.000 F 
ENDBRANCH   2   5
BRANCH   1  15
ATOM     13  C   UNL     1       6.585   4.730  13.846  0.00  0.00    +0.000 A 
ATOM     14  C   UNL     1       5.300   4.627  14.443  0.00  0.00    +0.000 A 
ATOM     15  C   UNL     1       5.419   5.184  15.693  0.00  0.00    +0.000 A 
ATOM     16  N   UNL     1       6.713   5.624  15.767  0.00  0.00    +0.000 N 
ATOM     17  N   UNL     1       7.440   5.367  14.672  0.00  0.00    +0.000 NA
ATOM     18  H   UNL     1       7.176   6.088  16.541  0.00  0.00    +0.000 HD
BRANCH  13  19
ATOM     19  C   UNL     1       6.972   4.152  12.552  0.00  0.00    +0.000 C 
ATOM     20  O   UNL     1       7.675   4.752  11.748  0.00  0.00    +0.000 OA
BRANCH  19  21
ATOM     21  O   UNL     1       6.377   2.947  12.317  0.00  0.00    +0.000 OA
BRANCH  21  23
ATOM     22  C   UNL     1       6.175   0.876  11.146  0.00  0.00    +0.000 C 
ATOM     23  C   UNL     1       7.021   2.124  11.340  0.00  0.00    +0.000 C 
ENDBRANCH  21  23
ENDBRANCH  19  21
ENDBRANCH  13  19
ENDBRANCH   1  15
TORSDOF 5
ENDMDL
MODEL 4
REMARK VINA RESULT:      -6.9      1.819      2.129
REMARK  Name = 
REMARK  6 active torsions:
REMARK  status: ('A' for Active; 'I' for Inactive)
REMARK    1  A    between atoms: C_1  and  C_2
REMARK    2  A    between atoms: C_2  and  O_3
REMARK    3  A    between atoms: O_3  and  C_4
REMARK    4  A    between atoms: C_4  and  C_6
REMARK    5  A    between atoms: C_8  and  N_9
REMARK    6  A    between atoms: C_10  and  C_12
REMARK                            x       y       z     vdW  Elec       q    Type
REMARK                         _______ _______ _______ _____ _____    ______ ____
ROOT
ATOM      1  N   UNL     1       5.130   5.231  17.134  0.00  0.00    +0.000 N 
ATOM      2  C   UNL     1       3.859   4.592  17.340  0.00  0.00    +0.000 C 
ATOM      3  O   UNL     1       3.335   3.930  16.460  0.00  0.00    +0.000 OA
ATOM      4  H   UNL     1       5.526   5.783  17.889  0.00  0.00    +0.000 HD
ENDROOT
BRANCH   2   5
ATOM      5  C   UNL     1       3.198   4.757  18.652  0.00  0.00    +0.000 A 
ATOM      6  C   UNL     1       2.781   6.040  19.044  0.00  0.00    +0.000 A 
ATOM      7  C   UNL     1       2.156   6.230  20.277  0.00  0.00    +0.000 A 
ATOM      8  C   UNL     1       1.943   5.143  21.125  0.00  0.00    +0.000 A 
ATOM      9  C   UNL     1       2.355   3.868  20.737  0.00  0.00    +0.000 A 
ATOM     10 CL   UNL     1       2.088   2.534  21.789  0.00  0.00    +0.000 Cl
ATOM     11  C   UNL     1       2.979   3.677  19.504  0.00  0.00    +0.000 A 
ATOM     12  F   UNL     1       3.372   2.446  19.135  0.00  0.00    +0.000 F 
ENDBRANCH   2   5
BRANCH   1  15
ATOM     13  C   UNL     1       6.689   4.592  13.955  0.00  0.00    +0.000 A 
ATOM     14  C   UNL     1       5.556   4.449  14.800  0.00  0.00    +0.000 A 
ATOM     15  C   UNL     1       5.865   5.115  15.961  0.00  0.00    +0.000 A 
ATOM     16  N   UNL     1       7.107   5.650  15.747  0.00  0.00    +0.000 N 
ATOM     17  N   UNL     1       7.629   5.353  14.548  0.00  0.00    +0.000 NA
ATOM     18  H   UNL     1       7.670   6.208  16.379  0.00  0.00    +0.000 HD
BRANCH  13  19
ATOM     19  C   UNL     1       6.867   3.936  12.652  0.00  0.00    +0.000 C 
ATOM     20  O   UNL     1       7.475   4.463  11.728  0.00  0.00    +0.000 OA
BRANCH  19  21
ATOM     21  O   UNL     1       6.195   2.751  12.565  0.00  0.00    +0.000 OA
BRANCH  21  23
ATOM     22  C   UNL     1       4.164   3.202  11.393  0.00  0.00    +0.000 C 
ATOM     23  C   UNL     1       5.519   2.518  11.325  0.00  0.00    +0.000 C 
ENDBRANCH  21  23
ENDBRANCH  19  21
ENDBRANCH  13  19
ENDBRANCH   1  15
TORSDOF 5
ENDMDL
MODEL 5
REMARK VINA RESULT:      -6.8      3.283      4.110
REMARK  Name = 
REMARK  6 active torsions:
REMARK  status: ('A' for Active; 'I' for Inactive)
REMARK    1  A    between atoms: C_1  and  C_2
REMARK    2  A    between atoms: C_2  and  O_3
REMARK    3  A    between atoms: O_3  and  C_4
REMARK    4  A    between atoms: C_4  and  C_6
REMARK    5  A    between atoms: C_8  and  N_9
REMARK    6  A    between atoms: C_10  and  C_12
REMARK                            x       y       z     vdW  Elec       q    Type
REMARK                         _______ _______ _______ _____ _____    ______ ____
ROOT
ATOM      1  N   UNL     1       3.347   7.225  17.949  0.00  0.00    +0.000 N 
ATOM      2  C   UNL     1       2.489   6.942  19.067  0.00  0.00    +0.000 C 
ATOM      3  O   UNL     1       2.349   5.803  19.483  0.00  0.00    +0.000 OA
ATOM      4  H   UNL     1       3.426   8.185  17.626  0.00  0.00    +0.000 HD
ENDROOT
BRANCH   2   5
ATOM      5  C   UNL     1       1.777   8.069  19.706  0.00  0.00    +0.000 A 
ATOM      6  C   UNL     1       1.538   8.023  21.089  0.00  0.00    +0.000 A 
ATOM      7  C   UNL     1       0.867   9.070  21.722  0.00  0.00    +0.000 A 
ATOM      8  C   UNL     1       0.432  10.168  20.980  0.00  0.00    +0.000 A 
ATOM      9  C   UNL     1       0.669  10.216  19.606  0.00  0.00    +0.000 A 
ATOM     10 CL   UNL     1       0.128  11.574  18.700  0.00  0.00    +0.000 Cl
ATOM     11  C   UNL     1       1.341   9.170  18.973  0.00  0.00    +0.000 A 
ATOM     12  F   UNL     1       1.568   9.223  17.649  0.00  0.00    +0.000 F 
ENDBRANCH   2   5
BRANCH   1  15
ATOM     13  C   UNL     1       5.534   5.104  16.035  0.00  0.00    +0.000 A 
ATOM     14  C   UNL     1       5.220   6.403  16.515  0.00  0.00    +0.000 A 
ATOM     15  C   UNL     1       4.098   6.257  17.294  0.00  0.00    +0.000 A 
ATOM     16  N   UNL     1       3.829   4.914  17.286  0.00  0.00    +0.000 N 
ATOM     17  N   UNL     1       4.676   4.194  16.537  0.00  0.00    +0.000 NA
ATOM     18  H   UNL     1       3.074   4.421  17.748  0.00  0.00    +0.000 HD
BRANCH  13  19
ATOM     19  C   UNL     1       6.584   4.788  15.057  0.00  0.00    +0.000 C 
ATOM     20  O   UNL     1       7.586   5.480  14.922  0.00  0.00    +0.000 OA
BRANCH  19  21
ATOM     21  O   UNL     1       6.261   3.725  14.265  0.00  0.00    +0.000 OA
BRANCH  21  23
ATOM     22  C   UNL     1       5.537   3.162  12.061  0.00  0.00    +0.000 C 
ATOM     23  C   UNL     1       6.606   3.862  12.882  0.00  0.00    +0.000 C 
ENDBRANCH  21  23
ENDBRANCH  19  21
ENDBRANCH  13  19
ENDBRANCH   1  15
TORSDOF 5
ENDMDL
MODEL 6
REMARK VINA RESULT:      -6.8      1.374      1.413
REMARK  Name = 
REMARK  6 active torsions:
REMARK  status: ('A' for Active; 'I' for Inactive)
REMARK    1  A    between atoms: C_1  and  C_2
REMARK    2  A    between atoms: C_2  and  O_3
REMARK    3  A    between atoms: O_3  and  C_4
REMARK    4  A    between atoms: C_4  and  C_6
REMARK    5  A    between atoms: C_8  and  N_9
REMARK    6  A    between atoms: C_10  and  C_12
REMARK                            x       y       z     vdW  Elec       q    Type
REMARK                         _______ _______ _______ _____ _____    ______ ____
ROOT
ATOM      1  N   UNL     1       5.027   5.290  17.120  0.00  0.00    +0.000 N 
ATOM      2  C   UNL     1       3.877   4.490  17.442  0.00  0.00    +0.000 C 
ATOM      3  O   UNL     1       3.467   3.635  16.674  0.00  0.00    +0.000 OA
ATOM      4  H   UNL     1       5.328   6.000  17.783  0.00  0.00    +0.000 HD
ENDROOT
BRANCH   2   5
ATOM      5  C   UNL     1       3.198   4.728  18.734  0.00  0.00    +0.000 A 
ATOM      6  C   UNL     1       3.074   3.663  19.640  0.00  0.00    +0.000 A 
ATOM      7  C   UNL     1       2.437   3.855  20.867  0.00  0.00    +0.000 A 
ATOM      8  C   UNL     1       1.921   5.108  21.196  0.00  0.00    +0.000 A 
ATOM      9  C   UNL     1       2.043   6.167  20.297  0.00  0.00    +0.000 A 
ATOM     10 CL   UNL     1       1.403   7.709  20.711  0.00  0.00    +0.000 Cl
ATOM     11  C   UNL     1       2.681   5.976  19.071  0.00  0.00    +0.000 A 
ATOM     12  F   UNL     1       2.797   7.002  18.209  0.00  0.00    +0.000 F 
ENDBRANCH   2   5
BRANCH   1  15
ATOM     13  C   UNL     1       6.586   4.569  13.960  0.00  0.00    +0.000 A 
ATOM     14  C   UNL     1       5.431   4.505  14.784  0.00  0.00    +0.000 A 
ATOM     15  C   UNL     1       5.771   5.131  15.959  0.00  0.00    +0.000 A 
ATOM     16  N   UNL     1       7.055   5.569  15.772  0.00  0.00    +0.000 N 
ATOM     17  N   UNL     1       7.572   5.247  14.579  0.00  0.00    +0.000 NA
ATOM     18  H   UNL     1       7.648   6.074  16.421  0.00  0.00    +0.000 HD
BRANCH  13  19
ATOM     19  C   UNL     1       6.736   3.916  12.651  0.00  0.00    +0.000 C 
ATOM     20  O   UNL     1       7.410   4.398  11.749  0.00  0.00    +0.000 OA
BRANCH  19  21
ATOM     21  O   UNL     1       5.963   2.798  12.532  0.00  0.00    +0.000 OA
BRANCH  21  23
ATOM     22  C   UNL     1       3.995   3.224  11.249  0.00  0.00    +0.000 C 
ATOM     23  C   UNL     1       5.376   2.591  11.243  0.00  0.00    +0.000 C 
ENDBRANCH  21  23
ENDBRANCH  19  21
ENDBRANCH  13  19
ENDBRANCH   1  15
TORSDOF 5
ENDMDL
MODEL 7
REMARK VINA RESULT:      -6.8      3.567      4.761
REMARK  Name = 
REMARK  6 active torsions:
REMARK  status: ('A' for Active; 'I' for Inactive)
REMARK    1  A    between atoms: C_1  and  C_2
REMARK    2  A    between atoms: C_2  and  O_3
REMARK    3  A    between atoms: O_3  and  C_4
REMARK    4  A    between atoms: C_4  and  C_6
REMARK    5  A    between atoms: C_8  and  N_9
REMARK    6  A    between atoms: C_10  and  C_12
REMARK                            x       y       z     vdW  Elec       q    Type
REMARK                         _______ _______ _______ _____ _____    ______ ____
ROOT
ATOM      1  N   UNL     1       3.171   7.483  17.935  0.00  0.00    +0.000 N 
ATOM      2  C   UNL     1       2.380   7.451  19.135  0.00  0.00    +0.000 C 
ATOM      3  O   UNL     1       2.452   6.515  19.913  0.00  0.00    +0.000 OA
ATOM      4  H   UNL     1       3.072   8.277  17.307  0.00  0.00    +0.000 HD
ENDROOT
BRANCH   2   5
ATOM      5  C   UNL     1       1.473   8.587  19.406  0.00  0.00    +0.000 A 
ATOM      6  C   UNL     1       1.063   9.396  18.333  0.00  0.00    +0.000 A 
ATOM      7  C   UNL     1       0.208  10.477  18.555  0.00  0.00    +0.000 A 
ATOM      8  C   UNL     1      -0.241  10.757  19.846  0.00  0.00    +0.000 A 
ATOM      9  C   UNL     1       0.165   9.954  20.912  0.00  0.00    +0.000 A 
ATOM     10 CL   UNL     1      -0.393  10.307  22.500  0.00  0.00    +0.000 Cl
ATOM     11  C   UNL     1       1.018   8.872  20.690  0.00  0.00    +0.000 A 
ATOM     12  F   UNL     1       1.405   8.101  21.722  0.00  0.00    +0.000 F 
ENDBRANCH   2   5
BRANCH   1  15
ATOM     13  C   UNL     1       5.825   5.304  16.865  0.00  0.00    +0.000 A 
ATOM     14  C   UNL     1       5.370   6.625  17.118  0.00  0.00    +0.000 A 
ATOM     15  C   UNL     1       4.087   6.497  17.594  0.00  0.00    +0.000 A 
ATOM     16  N   UNL     1       3.859   5.148  17.647  0.00  0.00    +0.000 N 
ATOM     17  N   UNL     1       4.886   4.404  17.216  0.00  0.00    +0.000 NA
ATOM     18  H   UNL     1       3.019   4.664  17.946  0.00  0.00    +0.000 HD
BRANCH  13  19
ATOM     19  C   UNL     1       7.101   4.951  16.226  0.00  0.00    +0.000 C 
ATOM     20  O   UNL     1       7.923   4.216  16.760  0.00  0.00    +0.000 OA
BRANCH  19  21
ATOM     21  O   UNL     1       7.298   5.613  15.049  0.00  0.00    +0.000 OA
BRANCH  21  23
ATOM     22  C   UNL     1       6.052   4.020  13.780  0.00  0.00    +0.000 C 
ATOM     23  C   UNL     1       7.360   4.785  13.882  0.00  0.00    +0.000 C 
ENDBRANCH  21  23
ENDBRANCH  19  21
ENDBRANCH  13  19
ENDBRANCH   1  15
TORSDOF 5
ENDMDL
MODEL 8
REMARK VINA RESULT:      -6.8      1.680      2.026
REMARK  Name = 
REMARK  6 active torsions:
REMARK  status: ('A' for Active; 'I' for Inactive)
REMARK    1  A    between atoms: C_1  and  C_2
REMARK    2  A    between atoms: C_2  and  O_3
REMARK    3  A    between atoms: O_3  and  C_4
REMARK    4  A    between atoms: C_4  and  C_6
REMARK    5  A    between atoms: C_8  and  N_9
REMARK    6  A    between atoms: C_10  and  C_12
REMARK                            x       y       z     vdW  Elec       q    Type
REMARK                         _______ _______ _______ _____ _____    ______ ____
ROOT
ATOM      1  N   UNL     1       4.738   4.714  16.858  0.00  0.00    +0.000 N 
ATOM      2  C   UNL     1       4.052   5.842  17.428  0.00  0.00    +0.000 C 
ATOM      3  O   UNL     1       4.190   6.963  16.969  0.00  0.00    +0.000 OA
ATOM      4  H   UNL     1       4.605   3.799  17.279  0.00  0.00    +0.000 HD
ENDROOT
BRANCH   2   5
ATOM      5  C   UNL     1       3.169   5.608  18.591  0.00  0.00    +0.000 A 
ATOM      6  C   UNL     1       2.741   6.711  19.348  0.00  0.00    +0.000 A 
ATOM      7  C   UNL     1       1.909   6.525  20.453  0.00  0.00    +0.000 A 
ATOM      8  C   UNL     1       1.500   5.240  20.809  0.00  0.00    +0.000 A 
ATOM      9  C   UNL     1       1.924   4.143  20.058  0.00  0.00    +0.000 A 
ATOM     10 CL   UNL     1       1.415   2.562  20.504  0.00  0.00    +0.000 Cl
ATOM     11  C   UNL     1       2.755   4.329  18.952  0.00  0.00    +0.000 A 
ATOM     12  F   UNL     1       3.159   3.268  18.231  0.00  0.00    +0.000 F 
ENDBRANCH   2   5
BRANCH   1  15
ATOM     13  C   UNL     1       6.578   4.573  13.770  0.00  0.00    +0.000 A 
ATOM     14  C   UNL     1       5.421   4.210  14.509  0.00  0.00    +0.000 A 
ATOM     15  C   UNL     1       5.559   4.801  15.741  0.00  0.00    +0.000 A 
ATOM     16  N   UNL     1       6.730   5.507  15.670  0.00  0.00    +0.000 N 
ATOM     17  N   UNL     1       7.366   5.391  14.496  0.00  0.00    +0.000 NA
ATOM     18  H   UNL     1       7.169   6.073  16.388  0.00  0.00    +0.000 HD
BRANCH  13  19
ATOM     19  C   UNL     1       6.930   4.067  12.436  0.00  0.00    +0.000 C 
ATOM     20  O   UNL     1       7.652   4.689  11.666  0.00  0.00    +0.000 OA
BRANCH  19  21
ATOM     21  O   UNL     1       6.282   2.907  12.128  0.00  0.00    +0.000 OA
BRANCH  21  23
ATOM     22  C   UNL     1       6.214   0.730  11.149  0.00  0.00    +0.000 C 
ATOM     23  C   UNL     1       6.959   2.053  11.199  0.00  0.00    +0.000 C 
ENDBRANCH  21  23
ENDBRANCH  19  21
ENDBRANCH  13  19
ENDBRANCH   1  15
TORSDOF 5
ENDMDL
MODEL 9
REMARK VINA RESULT:      -6.8      3.495      4.343
REMARK  Name = 
REMARK  6 active torsions:
REMARK  status: ('A' for Active; 'I' for Inactive)
REMARK    1  A    between atoms: C_1  and  C_2
REMARK    2  A    between atoms: C_2  and  O_3
REMARK    3  A    between atoms: O_3  and  C_4
REMARK    4  A    between atoms: C_4  and  C_6
REMARK    5  A    between atoms: C_8  and  N_9
REMARK    6  A    between atoms: C_10  and  C_12
REMARK                            x       y       z     vdW  Elec       q    Type
REMARK                         _______ _______ _______ _____ _____    ______ ____
ROOT
ATOM      1  N   UNL     1       3.366   7.714  17.692  0.00  0.00    +0.000 N 
ATOM      2  C   UNL     1       2.500   7.485  18.816  0.00  0.00    +0.000 C 
ATOM      3  O   UNL     1       2.515   6.425  19.419  0.00  0.00    +0.000 OA
ATOM      4  H   UNL     1       3.312   8.607  17.209  0.00  0.00    +0.000 HD
ENDROOT
BRANCH   2   5
ATOM      5  C   UNL     1       1.584   8.571  19.226  0.00  0.00    +0.000 A 
ATOM      6  C   UNL     1       1.175   9.510  18.266  0.00  0.00    +0.000 A 
ATOM      7  C   UNL     1       0.312  10.549  18.621  0.00  0.00    +0.000 A 
ATOM      8  C   UNL     1      -0.146  10.656  19.934  0.00  0.00    +0.000 A 
ATOM      9  C   UNL     1       0.259   9.723  20.889  0.00  0.00    +0.000 A 
ATOM     10 CL   UNL     1      -0.310   9.864  22.506  0.00  0.00    +0.000 Cl
ATOM     11  C   UNL     1       1.120   8.684  20.534  0.00  0.00    +0.000 A 
ATOM     12  F   UNL     1       1.506   7.787  21.459  0.00  0.00    +0.000 F 
ENDBRANCH   2   5
BRANCH   1  15
ATOM     13  C   UNL     1       5.721   5.532  16.068  0.00  0.00    +0.000 A 
ATOM     14  C   UNL     1       4.938   6.716  16.027  0.00  0.00    +0.000 A 
ATOM     15  C   UNL     1       4.296   6.787  17.239  0.00  0.00    +0.000 A 
ATOM     16  N   UNL     1       4.746   5.704  17.946  0.00  0.00    +0.000 N 
ATOM     17  N   UNL     1       5.605   4.930  17.268  0.00  0.00    +0.000 NA
ATOM     18  H   UNL     1       4.494   5.417  18.885  0.00  0.00    +0.000 HD
BRANCH  13  19
ATOM     19  C   UNL     1       6.485   4.976  14.943  0.00  0.00    +0.000 C 
ATOM     20  O   UNL     1       7.666   5.239  14.756  0.00  0.00    +0.000 OA
BRANCH  19  21
ATOM     21  O   UNL     1       5.708   4.243  14.094  0.00  0.00    +0.000 OA
BRANCH  21  23
ATOM     22  C   UNL     1       5.337   3.155  12.001  0.00  0.00    +0.000 C 
ATOM     23  C   UNL     1       6.386   3.698  12.957  0.00  0.00    +0.000 C 
ENDBRANCH  21  23
ENDBRANCH  19  21
ENDBRANCH  13  19
ENDBRANCH   1  15
TORSDOF 5
ENDMDL
