MODEL 1
REMARK VINA RESULT:      -7.0      0.000      0.000
REMARK  Name = 
REMARK  10 active torsions:
REMARK  status: ('A' for Active; 'I' for Inactive)
REMARK    1  A    between atoms: C_1  and  N_2
REMARK    2  A    between atoms: C_3  and  C_5
REMARK    3  A    between atoms: C_5  and  C_6
REMARK    4  A    between atoms: C_5  and  N_10
REMARK    5  A    between atoms: C_6  and  C_7
REMARK    6  A    between atoms: C_11  and  C_13
REMARK    7  A    between atoms: C_16  and  C_17
REMARK    8  A    between atoms: C_20  and  O_21
REMARK    9  A    between atoms: O_21  and  C_22
REMARK   10  A    between atoms: C_22  and  C_23
REMARK                            x       y       z     vdW  Elec       q    Type
REMARK                         _______ _______ _______ _____ _____    ______ ____
ROOT
ATOM      1  N   UNL     1       0.963   9.262  19.388  0.00  0.00    +0.000 N 
ATOM      2  C   UNL     1       1.865   8.952  18.391  0.00  0.00    +0.000 C 
ATOM      3  O   UNL     1       2.110   9.678  17.423  0.00  0.00    +0.000 OA
ATOM      4  H   UNL     1       0.891   8.621  20.165  0.00  0.00    +0.000 HD
ENDROOT
BRANCH   2   5
ATOM      5  C   UNL     1       2.565   7.644  18.579  0.00  0.00    +0.000 A 
ATOM      6  C   UNL     1       2.149   6.786  19.582  0.00  0.00    +0.000 A 
ATOM      7  N   UNL     1       2.758   5.597  19.821  0.00  0.00    +0.000 NA
ATOM      8  C   UNL     1       3.807   5.271  19.014  0.00  0.00    +0.000 A 
ATOM      9  C   UNL     1       4.218   6.168  18.005  0.00  0.00    +0.000 A 
ATOM     10  N   UNL     1       3.612   7.360  17.746  0.00  0.00    +0.000 NA
BRANCH   8  11
ATOM     11  C   UNL     1       4.528   3.963  19.249  0.00  0.00    +0.000 C 
ATOM     12  C   UNL     1       3.882   2.843  20.033  0.00  0.00    +0.000 C 
ATOM     13  C   UNL     1       4.035   2.715  18.551  0.00  0.00    +0.000 C 
ENDBRANCH   8  11
BRANCH   9  14
ATOM     14  O   UNL     1       5.256   5.739  17.198  0.00  0.00    +0.000 OA
BRANCH  14  15
ATOM     15  C   UNL     1       5.212   6.224  15.860  0.00  0.00    +0.000 C 
BRANCH  15  16
ATOM     16  C   UNL     1       5.381   5.042  14.943  0.00  0.00    +0.000 C 
ATOM     17  C   UNL     1       6.743   4.699  14.387  0.00  0.00    +0.000 C 
ATOM     18  C   UNL     1       6.101   3.799  15.402  0.00  0.00    +0.000 C 
ENDBRANCH  15  16
ENDBRANCH  14  15
ENDBRANCH   9  14
ENDBRANCH   2   5
BRANCH   1  19
ATOM     19  C   UNL     1       0.195  10.516  19.414  0.00  0.00    +0.000 C 
BRANCH  19  22
ATOM     20  C   UNL     1      -0.903  12.601  22.429  0.00  0.00    +0.000 C 
ATOM     21  N   UNL     1      -0.854  11.868  21.195  0.00  0.00    +0.000 N 
ATOM     22  C   UNL     1       0.314  11.274  20.761  0.00  0.00    +0.000 C 
ATOM     23  O   UNL     1       1.373  11.365  21.379  0.00  0.00    +0.000 OA
ATOM     24  H   UNL     1      -1.589  11.987  20.513  0.00  0.00    +0.000 HD
ENDBRANCH  19  22
BRANCH  19  25
ATOM     25  C   UNL     1      -1.287  10.280  19.068  0.00  0.00    +0.000 C 
BRANCH  25  26
ATOM     26  C   UNL     1      -1.556  10.135  17.586  0.00  0.00    +0.000 C 
ATOM     27  C   UNL     1      -2.946   9.767  17.123  0.00  0.00    +0.000 C 
ATOM     28  C   UNL     1      -2.403  11.141  16.849  0.00  0.00    +0.000 C 
ENDBRANCH  25  26
ENDBRANCH  19  25
ENDBRANCH   1  19
TORSDOF 9
ENDMDL
MODEL 2
REMARK VINA RESULT:      -6.7      2.135      4.413
REMARK  Name = 
REMARK  10 active torsions:
REMARK  status: ('A' for Active; 'I' for Inactive)
REMARK    1  A    between atoms: C_1  and  N_2
REMARK    2  A    between atoms: C_3  and  C_5
REMARK    3  A    between atoms: C_5  and  C_6
REMARK    4  A    between atoms: C_5  and  N_10
REMARK    5  A    between atoms: C_6  and  C_7
REMARK    6  A    between atoms: C_11  and  C_13
REMARK    7  A    between atoms: C_16  and  C_17
REMARK    8  A    between atoms: C_20  and  O_21
REMARK    9  A    between atoms: O_21  and  C_22
REMARK   10  A    between atoms: C_22  and  C_23
REMARK                            x       y       z     vdW  Elec       q    Type
REMARK                         _______ _______ _______ _____ _____    ______ ____
ROOT
ATOM      1  N   UNL     1       1.944   9.243  18.459  0.00  0.00    +0.000 N 
ATOM      2  C   UNL     1       2.113   8.073  19.168  0.00  0.00    +0.000 C 
ATOM      3  O   UNL     1       1.679   7.879  20.307  0.00  0.00    +0.000 OA
ATOM      4  H   UNL     1       2.288   9.264  17.509  0.00  0.00    +0.000 HD
ENDROOT
BRANCH   2   5
ATOM      5  C   UNL     1       2.866   7.010  18.433  0.00  0.00    +0.000 A 
ATOM      6  C   UNL     1       3.801   7.373  17.479  0.00  0.00    +0.000 A 
ATOM      7  N   UNL     1       4.498   6.458  16.759  0.00  0.00    +0.000 NA
ATOM      8  C   UNL     1       4.245   5.145  17.024  0.00  0.00    +0.000 A 
ATOM      9  C   UNL     1       3.279   4.801  17.995  0.00  0.00    +0.000 A 
ATOM     10  N   UNL     1       2.578   5.706  18.732  0.00  0.00    +0.000 NA
BRANCH   8  11
ATOM     11  C   UNL     1       4.985   4.086  16.239  0.00  0.00    +0.000 C 
ATOM     12  C   UNL     1       5.654   4.414  14.923  0.00  0.00    +0.000 C 
ATOM     13  C   UNL     1       6.493   4.166  16.136  0.00  0.00    +0.000 C 
ENDBRANCH   8  11
BRANCH   9  14
ATOM     14  O   UNL     1       3.120   3.449  18.239  0.00  0.00    +0.000 OA
BRANCH  14  15
ATOM     15  C   UNL     1       3.355   3.054  19.587  0.00  0.00    +0.000 C 
BRANCH  15  16
ATOM     16  C   UNL     1       2.081   2.446  20.111  0.00  0.00    +0.000 C 
ATOM     17  C   UNL     1       1.709   2.596  21.567  0.00  0.00    +0.000 C 
ATOM     18  C   UNL     1       0.915   3.313  20.515  0.00  0.00    +0.000 C 
ENDBRANCH  15  16
ENDBRANCH  14  15
ENDBRANCH   9  14
ENDBRANCH   2   5
BRANCH   1  19
ATOM     19  C   UNL     1       1.202  10.400  18.984  0.00  0.00    +0.000 C 
BRANCH  19  22
ATOM     20  C   UNL     1      -2.082  10.076  17.048  0.00  0.00    +0.000 C 
ATOM     21  N   UNL     1      -0.701  10.184  17.425  0.00  0.00    +0.000 N 
ATOM     22  C   UNL     1      -0.326  10.301  18.748  0.00  0.00    +0.000 C 
ATOM     23  O   UNL     1      -1.143  10.352  19.665  0.00  0.00    +0.000 OA
ATOM     24  H   UNL     1      -0.010  10.428  16.729  0.00  0.00    +0.000 HD
ENDBRANCH  19  22
BRANCH  19  25
ATOM     25  C   UNL     1       1.742  11.725  18.411  0.00  0.00    +0.000 C 
BRANCH  25  26
ATOM     26  C   UNL     1       1.548  12.913  19.327  0.00  0.00    +0.000 C 
ATOM     27  C   UNL     1       2.700  13.866  19.551  0.00  0.00    +0.000 C 
ATOM     28  C   UNL     1       1.493  14.316  18.777  0.00  0.00    +0.000 C 
ENDBRANCH  25  26
ENDBRANCH  19  25
ENDBRANCH   1  19
TORSDOF 9
ENDMDL
MODEL 3
REMARK VINA RESULT:      -6.6      2.449      4.437
REMARK  Name = 
REMARK  10 active torsions:
REMARK  status: ('A' for Active; 'I' for Inactive)
REMARK    1  A    between atoms: C_1  and  N_2
REMARK    2  A    between atoms: C_3  and  C_5
REMARK    3  A    between atoms: C_5  and  C_6
REMARK    4  A    between atoms: C_5  and  N_10
REMARK    5  A    between atoms: C_6  and  C_7
REMARK    6  A    between atoms: C_11  and  C_13
REMARK    7  A    between atoms: C_16  and  C_17
REMARK    8  A    between atoms: C_20  and  O_21
REMARK    9  A    between atoms: O_21  and  C_22
REMARK   10  A    between atoms: C_22  and  C_23
REMARK                            x       y       z     vdW  Elec       q    Type
REMARK                         _______ _______ _______ _____ _____    ______ ____
ROOT
ATOM      1  N   UNL     1      -0.461  10.246  18.677  0.00  0.00    +0.000 N 
ATOM      2  C   UNL     1       0.442   9.783  19.610  0.00  0.00    +0.000 C 
ATOM      3  O   UNL     1       0.418  10.076  20.809  0.00  0.00    +0.000 OA
ATOM      4  H   UNL     1      -0.382   9.888  17.736  0.00  0.00    +0.000 HD
ENDROOT
BRANCH   2   5
ATOM      5  C   UNL     1       1.476   8.854  19.058  0.00  0.00    +0.000 A 
ATOM      6  C   UNL     1       2.053   9.129  17.830  0.00  0.00    +0.000 A 
ATOM      7  N   UNL     1       2.978   8.313  17.263  0.00  0.00    +0.000 NA
ATOM      8  C   UNL     1       3.328   7.198  17.965  0.00  0.00    +0.000 A 
ATOM      9  C   UNL     1       2.717   6.936  19.210  0.00  0.00    +0.000 A 
ATOM     10  N   UNL     1       1.795   7.748  19.798  0.00  0.00    +0.000 NA
BRANCH   8  11
ATOM     11  C   UNL     1       4.343   6.250  17.369  0.00  0.00    +0.000 C 
ATOM     12  C   UNL     1       5.051   6.575  16.073  0.00  0.00    +0.000 C 
ATOM     13  C   UNL     1       5.804   6.643  17.363  0.00  0.00    +0.000 C 
ENDBRANCH   8  11
BRANCH   9  14
ATOM     14  O   UNL     1       3.166   5.813  19.881  0.00  0.00    +0.000 OA
BRANCH  14  15
ATOM     15  C   UNL     1       2.142   5.033  20.490  0.00  0.00    +0.000 C 
BRANCH  15  16
ATOM     16  C   UNL     1       2.108   3.701  19.788  0.00  0.00    +0.000 C 
ATOM     17  C   UNL     1       0.795   2.981  19.584  0.00  0.00    +0.000 C 
ATOM     18  C   UNL     1       1.517   3.566  18.406  0.00  0.00    +0.000 C 
ENDBRANCH  15  16
ENDBRANCH  14  15
ENDBRANCH   9  14
ENDBRANCH   2   5
BRANCH   1  19
ATOM     19  C   UNL     1      -1.579  11.141  19.016  0.00  0.00    +0.000 C 
BRANCH  19  22
ATOM     20  C   UNL     1      -2.995  10.923  15.469  0.00  0.00    +0.000 C 
ATOM     21  N   UNL     1      -2.162  10.844  16.635  0.00  0.00    +0.000 N 
ATOM     22  C   UNL     1      -2.597  11.307  17.860  0.00  0.00    +0.000 C 
ATOM     23  O   UNL     1      -3.696  11.837  18.015  0.00  0.00    +0.000 OA
ATOM     24  H   UNL     1      -1.169  10.687  16.531  0.00  0.00    +0.000 HD
ENDBRANCH  19  22
BRANCH  19  25
ATOM     25  C   UNL     1      -1.077  12.521  19.483  0.00  0.00    +0.000 C 
BRANCH  25  26
ATOM     26  C   UNL     1      -0.329  13.294  18.420  0.00  0.00    +0.000 C 
ATOM     27  C   UNL     1       0.176  14.682  18.738  0.00  0.00    +0.000 C 
ATOM     28  C   UNL     1       1.151  13.555  18.546  0.00  0.00    +0.000 C 
ENDBRANCH  25  26
ENDBRANCH  19  25
ENDBRANCH   1  19
TORSDOF 9
ENDMDL
MODEL 4
REMARK VINA RESULT:      -6.6      1.465      1.660
REMARK  Name = 
REMARK  10 active torsions:
REMARK  status: ('A' for Active; 'I' for Inactive)
REMARK    1  A    between atoms: C_1  and  N_2
REMARK    2  A    between atoms: C_3  and  C_5
REMARK    3  A    between atoms: C_5  and  C_6
REMARK    4  A    between atoms: C_5  and  N_10
REMARK    5  A    between atoms: C_6  and  C_7
REMARK    6  A    between atoms: C_11  and  C_13
REMARK    7  A    between atoms: C_16  and  C_17
REMARK    8  A    between atoms: C_20  and  O_21
REMARK    9  A    between atoms: O_21  and  C_22
REMARK   10  A    between atoms: C_22  and  C_23
REMARK                            x       y       z     vdW  Elec       q    Type
REMARK                         _______ _______ _______ _____ _____    ______ ____
ROOT
ATOM      1  N   UNL     1       0.914   9.562  19.541  0.00  0.00    +0.000 N 
ATOM      2  C   UNL     1       1.772   9.019  18.609  0.00  0.00    +0.000 C 
ATOM      3  O   UNL     1       2.200   9.622  17.620  0.00  0.00    +0.000 OA
ATOM      4  H   UNL     1       0.681   8.996  20.344  0.00  0.00    +0.000 HD
ENDROOT
BRANCH   2   5
ATOM      5  C   UNL     1       2.182   7.609  18.896  0.00  0.00    +0.000 A 
ATOM      6  C   UNL     1       1.802   7.020  20.089  0.00  0.00    +0.000 A 
ATOM      7  N   UNL     1       2.162   5.754  20.421  0.00  0.00    +0.000 NA
ATOM      8  C   UNL     1       2.917   5.071  19.514  0.00  0.00    +0.000 A 
ATOM      9  C   UNL     1       3.298   5.699  18.309  0.00  0.00    +0.000 A 
ATOM     10  N   UNL     1       2.938   6.964  17.956  0.00  0.00    +0.000 NA
BRANCH   8  11
ATOM     11  C   UNL     1       3.356   3.662  19.843  0.00  0.00    +0.000 C 
ATOM     12  C   UNL     1       2.708   2.883  20.965  0.00  0.00    +0.000 C 
ATOM     13  C   UNL     1       2.421   2.511  19.545  0.00  0.00    +0.000 C 
ENDBRANCH   8  11
BRANCH   9  14
ATOM     14  O   UNL     1       4.019   4.921  17.421  0.00  0.00    +0.000 OA
BRANCH  14  15
ATOM     15  C   UNL     1       5.259   5.484  17.004  0.00  0.00    +0.000 C 
BRANCH  15  16
ATOM     16  C   UNL     1       6.290   5.127  18.042  0.00  0.00    +0.000 C 
ATOM     17  C   UNL     1       7.638   4.588  17.621  0.00  0.00    +0.000 C 
ATOM     18  C   UNL     1       7.535   5.960  18.219  0.00  0.00    +0.000 C 
ENDBRANCH  15  16
ENDBRANCH  14  15
ENDBRANCH   9  14
ENDBRANCH   2   5
BRANCH   1  19
ATOM     19  C   UNL     1       0.419  10.946  19.467  0.00  0.00    +0.000 C 
BRANCH  19  22
ATOM     20  C   UNL     1      -0.980  10.737  23.022  0.00  0.00    +0.000 C 
ATOM     21  N   UNL     1      -0.382  10.448  21.750  0.00  0.00    +0.000 N 
ATOM     22  C   UNL     1      -0.255  11.422  20.779  0.00  0.00    +0.000 C 
ATOM     23  O   UNL     1      -0.671  12.568  20.933  0.00  0.00    +0.000 OA
ATOM     24  H   UNL     1      -0.277   9.488  21.452  0.00  0.00    +0.000 HD
ENDBRANCH  19  22
BRANCH  19  25
ATOM     25  C   UNL     1      -0.540  11.140  18.277  0.00  0.00    +0.000 C 
BRANCH  25  26
ATOM     26  C   UNL     1      -1.759  10.245  18.319  0.00  0.00    +0.000 C 
ATOM     27  C   UNL     1      -3.107  10.821  17.954  0.00  0.00    +0.000 C 
ATOM     28  C   UNL     1      -2.451   9.817  17.049  0.00  0.00    +0.000 C 
ENDBRANCH  25  26
ENDBRANCH  19  25
ENDBRANCH   1  19
TORSDOF 9
ENDMDL
MODEL 5
REMARK VINA RESULT:      -6.6      1.367      1.546
REMARK  Name = 
REMARK  10 active torsions:
REMARK  status: ('A' for Active; 'I' for Inactive)
REMARK    1  A    between atoms: C_1  and  N_2
REMARK    2  A    between atoms: C_3  and  C_5
REMARK    3  A    between atoms: C_5  and  C_6
REMARK    4  A    between atoms: C_5  and  N_10
REMARK    5  A    between atoms: C_6  and  C_7
REMARK    6  A    between atoms: C_11  and  C_13
REMARK    7  A    between atoms: C_16  and  C_17
REMARK    8  A    between atoms: C_20  and  O_21
REMARK    9  A    between atoms: O_21  and  C_22
REMARK   10  A    between atoms: C_22  and  C_23
REMARK                            x       y       z     vdW  Elec       q    Type
REMARK                         _______ _______ _______ _____ _____    ______ ____
ROOT
ATOM      1  N   UNL     1       0.720   9.492  19.569  0.00  0.00    +0.000 N 
ATOM      2  C   UNL     1       1.730   8.915  18.827  0.00  0.00    +0.000 C 
ATOM      3  O   UNL     1       2.388   9.507  17.967  0.00  0.00    +0.000 OA
ATOM      4  H   UNL     1       0.293   8.929  20.290  0.00  0.00    +0.000 HD
ENDROOT
BRANCH   2   5
ATOM      5  C   UNL     1       1.997   7.482  19.160  0.00  0.00    +0.000 A 
ATOM      6  C   UNL     1       1.695   7.009  20.426  0.00  0.00    +0.000 A 
ATOM      7  N   UNL     1       1.937   5.727  20.799  0.00  0.00    +0.000 NA
ATOM      8  C   UNL     1       2.489   4.907  19.861  0.00  0.00    +0.000 A 
ATOM      9  C   UNL     1       2.797   5.417  18.581  0.00  0.00    +0.000 A 
ATOM     10  N   UNL     1       2.552   6.697  18.187  0.00  0.00    +0.000 NA
BRANCH   8  11
ATOM     11  C   UNL     1       2.792   3.473  20.232  0.00  0.00    +0.000 C 
ATOM     12  C   UNL     1       2.238   2.860  21.499  0.00  0.00    +0.000 C 
ATOM     13  C   UNL     1       1.681   2.447  20.174  0.00  0.00    +0.000 C 
ENDBRANCH   8  11
BRANCH   9  14
ATOM     14  O   UNL     1       3.306   4.507  17.672  0.00  0.00    +0.000 OA
BRANCH  14  15
ATOM     15  C   UNL     1       4.717   4.570  17.492  0.00  0.00    +0.000 C 
BRANCH  15  16
ATOM     16  C   UNL     1       4.998   4.338  16.031  0.00  0.00    +0.000 C 
ATOM     17  C   UNL     1       5.579   5.445  15.182  0.00  0.00    +0.000 C 
ATOM     18  C   UNL     1       6.414   4.244  15.517  0.00  0.00    +0.000 C 
ENDBRANCH  15  16
ENDBRANCH  14  15
ENDBRANCH   9  14
ENDBRANCH   2   5
BRANCH   1  19
ATOM     19  C   UNL     1       0.322  10.901  19.424  0.00  0.00    +0.000 C 
BRANCH  19  22
ATOM     20  C   UNL     1      -1.074  10.967  22.986  0.00  0.00    +0.000 C 
ATOM     21  N   UNL     1      -0.465  10.584  21.743  0.00  0.00    +0.000 N 
ATOM     22  C   UNL     1      -0.368  11.471  20.689  0.00  0.00    +0.000 C 
ATOM     23  O   UNL     1      -0.821  12.612  20.741  0.00  0.00    +0.000 OA
ATOM     24  H   UNL     1      -0.330   9.605  21.533  0.00  0.00    +0.000 HD
ENDBRANCH  19  22
BRANCH  19  25
ATOM     25  C   UNL     1      -0.575  11.112  18.190  0.00  0.00    +0.000 C 
BRANCH  25  26
ATOM     26  C   UNL     1      -1.681  10.089  18.053  0.00  0.00    +0.000 C 
ATOM     27  C   UNL     1      -3.099  10.563  17.832  0.00  0.00    +0.000 C 
ATOM     28  C   UNL     1      -2.364   9.856  16.729  0.00  0.00    +0.000 C 
ENDBRANCH  25  26
ENDBRANCH  19  25
ENDBRANCH   1  19
TORSDOF 9
ENDMDL
MODEL 6
REMARK VINA RESULT:      -6.6      1.639      1.824
REMARK  Name = 
REMARK  10 active torsions:
REMARK  status: ('A' for Active; 'I' for Inactive)
REMARK    1  A    between atoms: C_1  and  N_2
REMARK    2  A    between atoms: C_3  and  C_5
REMARK    3  A    between atoms: C_5  and  C_6
REMARK    4  A    between atoms: C_5  and  N_10
REMARK    5  A    between atoms: C_6  and  C_7
REMARK    6  A    between atoms: C_11  and  C_13
REMARK    7  A    between atoms: C_16  and  C_17
REMARK    8  A    between atoms: C_20  and  O_21
REMARK    9  A    between atoms: O_21  and  C_22
REMARK   10  A    between atoms: C_22  and  C_23
REMARK                            x       y       z     vdW  Elec       q    Type
REMARK                         _______ _______ _______ _____ _____    ______ ____
ROOT
ATOM      1  N   UNL     1       1.204   9.148  19.305  0.00  0.00    +0.000 N 
ATOM      2  C   UNL     1       1.187   8.161  20.268  0.00  0.00    +0.000 C 
ATOM      3  O   UNL     1       0.529   8.216  21.311  0.00  0.00    +0.000 OA
ATOM      4  H   UNL     1       1.729   8.966  18.462  0.00  0.00    +0.000 HD
ENDROOT
BRANCH   2   5
ATOM      5  C   UNL     1       2.030   6.969  19.943  0.00  0.00    +0.000 A 
ATOM      6  C   UNL     1       1.976   5.854  20.761  0.00  0.00    +0.000 A 
ATOM      7  N   UNL     1       2.735   4.751  20.536  0.00  0.00    +0.000 NA
ATOM      8  C   UNL     1       3.558   4.781  19.450  0.00  0.00    +0.000 A 
ATOM      9  C   UNL     1       3.601   5.935  18.638  0.00  0.00    +0.000 A 
ATOM     10  N   UNL     1       2.840   7.046  18.844  0.00  0.00    +0.000 NA
BRANCH   8  11
ATOM     11  C   UNL     1       4.434   3.583  19.165  0.00  0.00    +0.000 C 
ATOM     12  C   UNL     1       4.312   2.314  19.979  0.00  0.00    +0.000 C 
ATOM     13  C   UNL     1       3.810   2.340  18.570  0.00  0.00    +0.000 C 
ENDBRANCH   8  11
BRANCH   9  14
ATOM     14  O   UNL     1       4.423   5.865  17.528  0.00  0.00    +0.000 OA
BRANCH  14  15
ATOM     15  C   UNL     1       5.149   7.057  17.247  0.00  0.00    +0.000 C 
BRANCH  15  16
ATOM     16  C   UNL     1       6.601   6.683  17.113  0.00  0.00    +0.000 C 
ATOM     17  C   UNL     1       7.677   7.616  17.620  0.00  0.00    +0.000 C 
ATOM     18  C   UNL     1       7.423   6.315  18.324  0.00  0.00    +0.000 C 
ENDBRANCH  15  16
ENDBRANCH  14  15
ENDBRANCH   9  14
ENDBRANCH   2   5
BRANCH   1  19
ATOM     19  C   UNL     1       0.416  10.387  19.411  0.00  0.00    +0.000 C 
BRANCH  19  22
ATOM     20  C   UNL     1      -0.842  11.493  22.851  0.00  0.00    +0.000 C 
ATOM     21  N   UNL     1      -0.728  10.957  21.524  0.00  0.00    +0.000 N 
ATOM     22  C   UNL     1       0.462  11.017  20.826  0.00  0.00    +0.000 C 
ATOM     23  O   UNL     1       1.469  11.555  21.281  0.00  0.00    +0.000 OA
ATOM     24  H   UNL     1      -1.563  10.760  20.990  0.00  0.00    +0.000 HD
ENDBRANCH  19  22
BRANCH  19  25
ATOM     25  C   UNL     1      -1.045  10.168  18.974  0.00  0.00    +0.000 C 
BRANCH  25  26
ATOM     26  C   UNL     1      -1.276  10.356  17.491  0.00  0.00    +0.000 C 
ATOM     27  C   UNL     1      -2.514   9.764  16.858  0.00  0.00    +0.000 C 
ATOM     28  C   UNL     1      -2.376  11.255  16.985  0.00  0.00    +0.000 C 
ENDBRANCH  25  26
ENDBRANCH  19  25
ENDBRANCH   1  19
TORSDOF 9
ENDMDL
MODEL 7
REMARK VINA RESULT:      -6.5      2.016      3.103
REMARK  Name = 
REMARK  10 active torsions:
REMARK  status: ('A' for Active; 'I' for Inactive)
REMARK    1  A    between atoms: C_1  and  N_2
REMARK    2  A    between atoms: C_3  and  C_5
REMARK    3  A    between atoms: C_5  and  C_6
REMARK    4  A    between atoms: C_5  and  N_10
REMARK    5  A    between atoms: C_6  and  C_7
REMARK    6  A    between atoms: C_11  and  C_13
REMARK    7  A    between atoms: C_16  and  C_17
REMARK    8  A    between atoms: C_20  and  O_21
REMARK    9  A    between atoms: O_21  and  C_22
REMARK   10  A    between atoms: C_22  and  C_23
REMARK                            x       y       z     vdW  Elec       q    Type
REMARK                         _______ _______ _______ _____ _____    ______ ____
ROOT
ATOM      1  N   UNL     1       1.466   9.196  19.050  0.00  0.00    +0.000 N 
ATOM      2  C   UNL     1       1.599   8.271  20.064  0.00  0.00    +0.000 C 
ATOM      3  O   UNL     1       1.250   8.461  21.232  0.00  0.00    +0.000 OA
ATOM      4  H   UNL     1       1.728   8.906  18.119  0.00  0.00    +0.000 HD
ENDROOT
BRANCH   2   5
ATOM      5  C   UNL     1       2.197   6.969  19.635  0.00  0.00    +0.000 A 
ATOM      6  C   UNL     1       2.048   5.853  20.440  0.00  0.00    +0.000 A 
ATOM      7  N   UNL     1       2.588   4.649  20.120  0.00  0.00    +0.000 NA
ATOM      8  C   UNL     1       3.286   4.579  18.952  0.00  0.00    +0.000 A 
ATOM      9  C   UNL     1       3.432   5.734  18.154  0.00  0.00    +0.000 A 
ATOM     10  N   UNL     1       2.889   6.947  18.455  0.00  0.00    +0.000 NA
BRANCH   8  11
ATOM     11  C   UNL     1       3.919   3.263  18.558  0.00  0.00    +0.000 C 
ATOM     12  C   UNL     1       3.481   1.964  19.194  0.00  0.00    +0.000 C 
ATOM     13  C   UNL     1       3.102   2.257  17.778  0.00  0.00    +0.000 C 
ENDBRANCH   8  11
BRANCH   9  14
ATOM     14  O   UNL     1       4.110   5.566  16.960  0.00  0.00    +0.000 OA
BRANCH  14  15
ATOM     15  C   UNL     1       5.124   6.533  16.708  0.00  0.00    +0.000 C 
BRANCH  15  16
ATOM     16  C   UNL     1       6.180   6.370  17.770  0.00  0.00    +0.000 C 
ATOM     17  C   UNL     1       7.427   5.566  17.486  0.00  0.00    +0.000 C 
ATOM     18  C   UNL     1       7.518   7.055  17.646  0.00  0.00    +0.000 C 
ENDBRANCH  15  16
ENDBRANCH  14  15
ENDBRANCH   9  14
ENDBRANCH   2   5
BRANCH   1  19
ATOM     19  C   UNL     1       0.869  10.526  19.250  0.00  0.00    +0.000 C 
BRANCH  19  22
ATOM     20  C   UNL     1      -2.169  10.069  16.969  0.00  0.00    +0.000 C 
ATOM     21  N   UNL     1      -0.849  10.074  17.534  0.00  0.00    +0.000 N 
ATOM     22  C   UNL     1      -0.608  10.606  18.785  0.00  0.00    +0.000 C 
ATOM     23  O   UNL     1      -1.489  11.129  19.463  0.00  0.00    +0.000 OA
ATOM     24  H   UNL     1      -0.048   9.924  16.937  0.00  0.00    +0.000 HD
ENDBRANCH  19  22
BRANCH  19  25
ATOM     25  C   UNL     1       1.700  11.628  18.567  0.00  0.00    +0.000 C 
BRANCH  25  26
ATOM     26  C   UNL     1       1.748  12.928  19.339  0.00  0.00    +0.000 C 
ATOM     27  C   UNL     1       2.249  14.176  18.650  0.00  0.00    +0.000 C 
ATOM     28  C   UNL     1       0.798  14.056  19.022  0.00  0.00    +0.000 C 
ENDBRANCH  25  26
ENDBRANCH  19  25
ENDBRANCH   1  19
TORSDOF 9
ENDMDL
MODEL 8
REMARK VINA RESULT:      -6.5      1.609      3.515
REMARK  Name = 
REMARK  10 active torsions:
REMARK  status: ('A' for Active; 'I' for Inactive)
REMARK    1  A    between atoms: C_1  and  N_2
REMARK    2  A    between atoms: C_3  and  C_5
REMARK    3  A    between atoms: C_5  and  C_6
REMARK    4  A    between atoms: C_5  and  N_10
REMARK    5  A    between atoms: C_6  and  C_7
REMARK    6  A    between atoms: C_11  and  C_13
REMARK    7  A    between atoms: C_16  and  C_17
REMARK    8  A    between atoms: C_20  and  O_21
REMARK    9  A    between atoms: O_21  and  C_22
REMARK   10  A    between atoms: C_22  and  C_23
REMARK                            x       y       z     vdW  Elec       q    Type
REMARK                         _______ _______ _______ _____ _____    ______ ____
ROOT
ATOM      1  N   UNL     1       1.313   9.252  17.835  0.00  0.00    +0.000 N 
ATOM      2  C   UNL     1       1.779   8.362  18.779  0.00  0.00    +0.000 C 
ATOM      3  O   UNL     1       1.454   8.375  19.970  0.00  0.00    +0.000 OA
ATOM      4  H   UNL     1       1.598   9.106  16.878  0.00  0.00    +0.000 HD
ENDROOT
BRANCH   2   5
ATOM      5  C   UNL     1       2.721   7.332  18.243  0.00  0.00    +0.000 A 
ATOM      6  C   UNL     1       3.721   7.714  17.365  0.00  0.00    +0.000 A 
ATOM      7  N   UNL     1       4.591   6.825  16.823  0.00  0.00    +0.000 NA
ATOM      8  C   UNL     1       4.445   5.520  17.190  0.00  0.00    +0.000 A 
ATOM      9  C   UNL     1       3.411   5.155  18.078  0.00  0.00    +0.000 A 
ATOM     10  N   UNL     1       2.536   6.035  18.639  0.00  0.00    +0.000 NA
BRANCH   8  11
ATOM     11  C   UNL     1       5.381   4.488  16.602  0.00  0.00    +0.000 C 
ATOM     12  C   UNL     1       6.368   4.856  15.517  0.00  0.00    +0.000 C 
ATOM     13  C   UNL     1       6.861   4.580  16.902  0.00  0.00    +0.000 C 
ENDBRANCH   8  11
BRANCH   9  14
ATOM     14  O   UNL     1       3.365   3.821  18.440  0.00  0.00    +0.000 OA
BRANCH  14  15
ATOM     15  C   UNL     1       3.498   3.575  19.836  0.00  0.00    +0.000 C 
BRANCH  15  16
ATOM     16  C   UNL     1       2.389   2.641  20.240  0.00  0.00    +0.000 C 
ATOM     17  C   UNL     1       1.694   2.815  21.571  0.00  0.00    +0.000 C 
ATOM     18  C   UNL     1       0.958   3.113  20.297  0.00  0.00    +0.000 C 
ENDBRANCH  15  16
ENDBRANCH  14  15
ENDBRANCH   9  14
ENDBRANCH   2   5
BRANCH   1  19
ATOM     19  C   UNL     1       0.350  10.321  18.145  0.00  0.00    +0.000 C 
BRANCH  19  22
ATOM     20  C   UNL     1      -0.109  11.240  21.830  0.00  0.00    +0.000 C 
ATOM     21  N   UNL     1      -0.244  10.681  20.515  0.00  0.00    +0.000 N 
ATOM     22  C   UNL     1       0.631  11.017  19.501  0.00  0.00    +0.000 C 
ATOM     23  O   UNL     1       1.541  11.828  19.654  0.00  0.00    +0.000 OA
ATOM     24  H   UNL     1      -1.112  10.240  20.245  0.00  0.00    +0.000 HD
ENDBRANCH  19  22
BRANCH  19  25
ATOM     25  C   UNL     1      -1.101   9.805  18.103  0.00  0.00    +0.000 C 
BRANCH  25  26
ATOM     26  C   UNL     1      -2.016  10.619  17.216  0.00  0.00    +0.000 C 
ATOM     27  C   UNL     1      -2.850   9.912  16.173  0.00  0.00    +0.000 C 
ATOM     28  C   UNL     1      -3.515  10.541  17.365  0.00  0.00    +0.000 C 
ENDBRANCH  25  26
ENDBRANCH  19  25
ENDBRANCH   1  19
TORSDOF 9
ENDMDL
MODEL 9
REMARK VINA RESULT:      -6.5      1.920      8.066
REMARK  Name = 
REMARK  10 active torsions:
REMARK  status: ('A' for Active; 'I' for Inactive)
REMARK    1  A    between atoms: C_1  and  N_2
REMARK    2  A    between atoms: C_3  and  C_5
REMARK    3  A    between atoms: C_5  and  C_6
REMARK    4  A    between atoms: C_5  and  N_10
REMARK    5  A    between atoms: C_6  and  C_7
REMARK    6  A    between atoms: C_11  and  C_13
REMARK    7  A    between atoms: C_16  and  C_17
REMARK    8  A    between atoms: C_20  and  O_21
REMARK    9  A    between atoms: O_21  and  C_22
REMARK   10  A    between atoms: C_22  and  C_23
REMARK                            x       y       z     vdW  Elec       q    Type
REMARK                         _______ _______ _______ _____ _____    ______ ____
ROOT
ATOM      1  N   UNL     1       3.075   6.142  19.675  0.00  0.00    +0.000 N 
ATOM      2  C   UNL     1       2.746   7.205  18.860  0.00  0.00    +0.000 C 
ATOM      3  O   UNL     1       3.143   7.342  17.699  0.00  0.00    +0.000 OA
ATOM      4  H   UNL     1       2.640   6.103  20.585  0.00  0.00    +0.000 HD
ENDROOT
BRANCH   2   5
ATOM      5  C   UNL     1       1.829   8.204  19.490  0.00  0.00    +0.000 A 
ATOM      6  C   UNL     1       1.475   8.059  20.820  0.00  0.00    +0.000 A 
ATOM      7  N   UNL     1       0.627   8.916  21.443  0.00  0.00    +0.000 NA
ATOM      8  C   UNL     1       0.136   9.947  20.698  0.00  0.00    +0.000 A 
ATOM      9  C   UNL     1       0.505  10.066  19.341  0.00  0.00    +0.000 A 
ATOM     10  N   UNL     1       1.362   9.221  18.703  0.00  0.00    +0.000 NA
BRANCH   8  11
ATOM     11  C   UNL     1      -0.824  10.921  21.343  0.00  0.00    +0.000 C 
ATOM     12  C   UNL     1      -0.911  11.053  22.847  0.00  0.00    +0.000 C 
ATOM     13  C   UNL     1      -0.273  12.142  22.045  0.00  0.00    +0.000 C 
ENDBRANCH   8  11
BRANCH   9  14
ATOM     14  O   UNL     1       0.006  11.168  18.671  0.00  0.00    +0.000 OA
BRANCH  14  15
ATOM     15  C   UNL     1      -1.406  11.161  18.482  0.00  0.00    +0.000 C 
BRANCH  15  16
ATOM     16  C   UNL     1      -1.706  10.230  17.337  0.00  0.00    +0.000 C 
ATOM     17  C   UNL     1      -3.085   9.633  17.183  0.00  0.00    +0.000 C 
ATOM     18  C   UNL     1      -2.600  10.658  16.200  0.00  0.00    +0.000 C 
ENDBRANCH  15  16
ENDBRANCH  14  15
ENDBRANCH   9  14
ENDBRANCH   2   5
BRANCH   1  19
ATOM     19  C   UNL     1       3.936   5.031  19.238  0.00  0.00    +0.000 C 
BRANCH  19  22
ATOM     20  C   UNL     1       2.066   2.567  21.490  0.00  0.00    +0.000 C 
ATOM     21  N   UNL     1       2.496   3.729  20.766  0.00  0.00    +0.000 N 
ATOM     22  C   UNL     1       3.612   3.695  19.953  0.00  0.00    +0.000 C 
ATOM     23  O   UNL     1       4.311   2.691  19.831  0.00  0.00    +0.000 OA
ATOM     24  H   UNL     1       2.149   4.641  21.030  0.00  0.00    +0.000 HD
ENDBRANCH  19  22
BRANCH  19  25
ATOM     25  C   UNL     1       5.429   5.374  19.402  0.00  0.00    +0.000 C 
BRANCH  25  26
ATOM     26  C   UNL     1       6.167   5.542  18.093  0.00  0.00    +0.000 C 
ATOM     27  C   UNL     1       7.437   6.360  18.064  0.00  0.00    +0.000 C 
ATOM     28  C   UNL     1       7.499   4.872  17.861  0.00  0.00    +0.000 C 
ENDBRANCH  25  26
ENDBRANCH  19  25
ENDBRANCH   1  19
TORSDOF 9
ENDMDL
