MODEL 1
REMARK VINA RESULT:      -6.9      0.000      0.000
REMARK  Name = 
REMARK  6 active torsions:
REMARK  status: ('A' for Active; 'I' for Inactive)
REMARK    1  A    between atoms: C_1  and  N_2
REMARK    2  A    between atoms: N_2  and  C_3
REMARK    3  A    between atoms: N_5  and  C_6
REMARK    4  A    between atoms: C_9  and  N_10
REMARK    5  A    between atoms: N_12  and  C_13
REMARK    6  A    between atoms: N_12  and  C_14
REMARK                            x       y       z     vdW  Elec       q    Type
REMARK                         _______ _______ _______ _____ _____    ______ ____
ROOT
ATOM      1  C   UNL     1      -0.326  12.407  21.470  0.00  0.00    +0.000 A 
ATOM      2  C   UNL     1      -0.622  13.103  22.636  0.00  0.00    +0.000 A 
ATOM      3  C   UNL     1      -1.914  13.550  22.883  0.00  0.00    +0.000 A 
ATOM      4  C   UNL     1      -2.898  13.488  21.882  0.00  0.00    +0.000 A 
ATOM      5  C   UNL     1      -2.651  12.629  20.787  0.00  0.00    +0.000 A 
ATOM      6  C   UNL     1      -1.407  11.985  20.689  0.00  0.00    +0.000 A 
ATOM      7  C   UNL     1      -1.239  10.839  19.765  0.00  0.00    +0.000 C 
ATOM      8  O   UNL     1      -0.441   9.932  19.976  0.00  0.00    +0.000 OA
ATOM      9  C   UNL     1      -2.078  10.780  18.571  0.00  0.00    +0.000 A 
ATOM     10  C   UNL     1      -1.676   9.987  17.485  0.00  0.00    +0.000 A 
ATOM     11  C   UNL     1      -2.412  10.005  16.304  0.00  0.00    +0.000 A 
ATOM     12  C   UNL     1      -3.554  10.800  16.218  0.00  0.00    +0.000 A 
ATOM     13  C   UNL     1      -3.959  11.576  17.312  0.00  0.00    +0.000 A 
ATOM     14  C   UNL     1      -3.213  11.574  18.502  0.00  0.00    +0.000 A 
ATOM     15  C   UNL     1      -3.615  12.435  19.647  0.00  0.00    +0.000 C 
ATOM     16  O   UNL     1      -4.689  13.012  19.578  0.00  0.00    +0.000 OA
ENDROOT
BRANCH   1  21
ATOM     17  C   UNL     1       2.222  14.069  18.305  0.00  0.00    +0.000 C 
ATOM     18  N   UNL     1       1.514  14.006  19.578  0.00  0.00    +0.000 N 
ATOM     19  C   UNL     1       0.729  15.174  19.932  0.00  0.00    +0.000 C 
ATOM     20  C   UNL     1       1.719  12.893  20.380  0.00  0.00    +0.000 C 
ATOM     21  N   UNL     1       1.028  12.185  21.208  0.00  0.00    +0.000 NA
ENDBRANCH   1  21
BRANCH   4  22
ATOM     22  N   UNL     1      -4.096  14.204  22.025  0.00  0.00    +0.000 NA
ATOM     23  C   UNL     1      -5.099  13.852  22.764  0.00  0.00    +0.000 C 
ATOM     24  N   UNL     1      -5.374  12.805  23.629  0.00  0.00    +0.000 N 
ATOM     25  C   UNL     1      -6.776  12.469  23.892  0.00  0.00    +0.000 C 
ATOM     26  C   UNL     1      -4.496  12.507  24.761  0.00  0.00    +0.000 C 
ENDBRANCH   4  22
TORSDOF 2
ENDMDL
MODEL 2
REMARK VINA RESULT:      -6.7      7.418      9.909
REMARK  Name = 
REMARK  6 active torsions:
REMARK  status: ('A' for Active; 'I' for Inactive)
REMARK    1  A    between atoms: C_1  and  N_2
REMARK    2  A    between atoms: N_2  and  C_3
REMARK    3  A    between atoms: N_5  and  C_6
REMARK    4  A    between atoms: C_9  and  N_10
REMARK    5  A    between atoms: N_12  and  C_13
REMARK    6  A    between atoms: N_12  and  C_14
REMARK                            x       y       z     vdW  Elec       q    Type
REMARK                         _______ _______ _______ _____ _____    ______ ____
ROOT
ATOM      1  C   UNL     1       5.531   6.132  17.225  0.00  0.00    +0.000 A 
ATOM      2  C   UNL     1       6.009   4.832  17.341  0.00  0.00    +0.000 A 
ATOM      3  C   UNL     1       5.379   3.920  18.177  0.00  0.00    +0.000 A 
ATOM      4  C   UNL     1       4.378   4.338  19.070  0.00  0.00    +0.000 A 
ATOM      5  C   UNL     1       3.777   5.594  18.824  0.00  0.00    +0.000 A 
ATOM      6  C   UNL     1       4.282   6.404  17.794  0.00  0.00    +0.000 A 
ATOM      7  C   UNL     1       3.481   7.546  17.293  0.00  0.00    +0.000 C 
ATOM      8  O   UNL     1       3.559   7.950  16.138  0.00  0.00    +0.000 OA
ATOM      9  C   UNL     1       2.547   8.194  18.207  0.00  0.00    +0.000 A 
ATOM     10  C   UNL     1       2.105   9.497  17.932  0.00  0.00    +0.000 A 
ATOM     11  C   UNL     1       1.298  10.164  18.849  0.00  0.00    +0.000 A 
ATOM     12  C   UNL     1       0.922   9.522  20.028  0.00  0.00    +0.000 A 
ATOM     13  C   UNL     1       1.352   8.215  20.289  0.00  0.00    +0.000 A 
ATOM     14  C   UNL     1       2.179   7.541  19.375  0.00  0.00    +0.000 A 
ATOM     15  C   UNL     1       2.676   6.170  19.673  0.00  0.00    +0.000 C 
ATOM     16  O   UNL     1       2.219   5.597  20.649  0.00  0.00    +0.000 OA
ENDROOT
BRANCH   1  21
ATOM     17  C   UNL     1       8.604   8.871  18.751  0.00  0.00    +0.000 C 
ATOM     18  N   UNL     1       8.019   7.621  18.282  0.00  0.00    +0.000 N 
ATOM     19  C   UNL     1       8.272   6.450  19.102  0.00  0.00    +0.000 C 
ATOM     20  C   UNL     1       7.358   7.630  17.063  0.00  0.00    +0.000 C 
ATOM     21  N   UNL     1       6.344   7.032  16.534  0.00  0.00    +0.000 NA
ENDBRANCH   1  21
BRANCH   4  22
ATOM     22  N   UNL     1       3.962   3.492  20.111  0.00  0.00    +0.000 NA
ATOM     23  C   UNL     1       2.935   2.706  20.075  0.00  0.00    +0.000 C 
ATOM     24  N   UNL     1       1.971   2.374  19.136  0.00  0.00    +0.000 N 
ATOM     25  C   UNL     1       0.691   1.840  19.610  0.00  0.00    +0.000 C 
ATOM     26  C   UNL     1       2.343   1.870  17.814  0.00  0.00    +0.000 C 
ENDBRANCH   4  22
TORSDOF 2
ENDMDL
MODEL 3
REMARK VINA RESULT:      -6.6      1.163      1.906
REMARK  Name = 
REMARK  6 active torsions:
REMARK  status: ('A' for Active; 'I' for Inactive)
REMARK    1  A    between atoms: C_1  and  N_2
REMARK    2  A    between atoms: N_2  and  C_3
REMARK    3  A    between atoms: N_5  and  C_6
REMARK    4  A    between atoms: C_9  and  N_10
REMARK    5  A    between atoms: N_12  and  C_13
REMARK    6  A    between atoms: N_12  and  C_14
REMARK                            x       y       z     vdW  Elec       q    Type
REMARK                         _______ _______ _______ _____ _____    ______ ____
ROOT
ATOM      1  C   UNL     1      -0.402  12.274  21.468  0.00  0.00    +0.000 A 
ATOM      2  C   UNL     1      -0.724  12.893  22.670  0.00  0.00    +0.000 A 
ATOM      3  C   UNL     1      -2.029  13.290  22.933  0.00  0.00    +0.000 A 
ATOM      4  C   UNL     1      -3.004  13.260  21.922  0.00  0.00    +0.000 A 
ATOM      5  C   UNL     1      -2.728  12.473  20.781  0.00  0.00    +0.000 A 
ATOM      6  C   UNL     1      -1.466  11.868  20.655  0.00  0.00    +0.000 A 
ATOM      7  C   UNL     1      -1.262  10.783  19.668  0.00  0.00    +0.000 C 
ATOM      8  O   UNL     1      -0.441   9.887  19.833  0.00  0.00    +0.000 OA
ATOM      9  C   UNL     1      -2.091  10.770  18.467  0.00  0.00    +0.000 A 
ATOM     10  C   UNL     1      -1.662  10.053  17.340  0.00  0.00    +0.000 A 
ATOM     11  C   UNL     1      -2.390  10.119  16.156  0.00  0.00    +0.000 A 
ATOM     12  C   UNL     1      -3.553  10.887  16.107  0.00  0.00    +0.000 A 
ATOM     13  C   UNL     1      -3.986  11.587  17.241  0.00  0.00    +0.000 A 
ATOM     14  C   UNL     1      -3.247  11.536  18.434  0.00  0.00    +0.000 A 
ATOM     15  C   UNL     1      -3.680  12.319  19.625  0.00  0.00    +0.000 C 
ATOM     16  O   UNL     1      -4.768  12.870  19.580  0.00  0.00    +0.000 OA
ENDROOT
BRANCH   1  21
ATOM     17  C   UNL     1       2.087  14.070  18.330  0.00  0.00    +0.000 C 
ATOM     18  N   UNL     1       1.382  13.964  19.601  0.00  0.00    +0.000 N 
ATOM     19  C   UNL     1       0.555  15.099  19.971  0.00  0.00    +0.000 C 
ATOM     20  C   UNL     1       1.625  12.847  20.387  0.00  0.00    +0.000 C 
ATOM     21  N   UNL     1       0.958  12.104  21.204  0.00  0.00    +0.000 NA
ENDBRANCH   1  21
BRANCH   4  22
ATOM     22  N   UNL     1      -4.223  13.935  22.097  0.00  0.00    +0.000 NA
ATOM     23  C   UNL     1      -4.382  15.218  22.064  0.00  0.00    +0.000 C 
ATOM     24  N   UNL     1      -3.564  16.315  21.840  0.00  0.00    +0.000 N 
ATOM     25  C   UNL     1      -3.980  17.615  22.373  0.00  0.00    +0.000 C 
ATOM     26  C   UNL     1      -2.770  16.430  20.616  0.00  0.00    +0.000 C 
ENDBRANCH   4  22
TORSDOF 2
ENDMDL
MODEL 4
REMARK VINA RESULT:      -6.4      0.968      5.247
REMARK  Name = 
REMARK  6 active torsions:
REMARK  status: ('A' for Active; 'I' for Inactive)
REMARK    1  A    between atoms: C_1  and  N_2
REMARK    2  A    between atoms: N_2  and  C_3
REMARK    3  A    between atoms: N_5  and  C_6
REMARK    4  A    between atoms: C_9  and  N_10
REMARK    5  A    between atoms: N_12  and  C_13
REMARK    6  A    between atoms: N_12  and  C_14
REMARK                            x       y       z     vdW  Elec       q    Type
REMARK                         _______ _______ _______ _____ _____    ______ ____
ROOT
ATOM      1  C   UNL     1      -3.081  12.608  22.022  0.00  0.00    +0.000 A 
ATOM      2  C   UNL     1      -2.156  13.096  22.936  0.00  0.00    +0.000 A 
ATOM      3  C   UNL     1      -0.802  13.120  22.627  0.00  0.00    +0.000 A 
ATOM      4  C   UNL     1      -0.317  12.471  21.478  0.00  0.00    +0.000 A 
ATOM      5  C   UNL     1      -1.259  12.143  20.476  0.00  0.00    +0.000 A 
ATOM      6  C   UNL     1      -2.625  12.365  20.721  0.00  0.00    +0.000 A 
ATOM      7  C   UNL     1      -3.588  12.357  19.596  0.00  0.00    +0.000 C 
ATOM      8  O   UNL     1      -4.619  13.020  19.605  0.00  0.00    +0.000 OA
ATOM      9  C   UNL     1      -3.279  11.546  18.422  0.00  0.00    +0.000 A 
ATOM     10  C   UNL     1      -4.314  11.170  17.553  0.00  0.00    +0.000 A 
ATOM     11  C   UNL     1      -4.050  10.311  16.490  0.00  0.00    +0.000 A 
ATOM     12  C   UNL     1      -2.752   9.844  16.291  0.00  0.00    +0.000 A 
ATOM     13  C   UNL     1      -1.719  10.237  17.152  0.00  0.00    +0.000 A 
ATOM     14  C   UNL     1      -1.982  11.092  18.235  0.00  0.00    +0.000 A 
ATOM     15  C   UNL     1      -0.896  11.470  19.180  0.00  0.00    +0.000 C 
ATOM     16  O   UNL     1       0.247  11.148  18.895  0.00  0.00    +0.000 OA
ENDROOT
BRANCH   1  21
ATOM     17  C   UNL     1      -5.800  15.488  23.914  0.00  0.00    +0.000 C 
ATOM     18  N   UNL     1      -5.110  14.784  22.840  0.00  0.00    +0.000 N 
ATOM     19  C   UNL     1      -4.512  15.615  21.812  0.00  0.00    +0.000 C 
ATOM     20  C   UNL     1      -5.159  13.398  22.837  0.00  0.00    +0.000 C 
ATOM     21  N   UNL     1      -4.382  12.426  22.494  0.00  0.00    +0.000 NA
ENDBRANCH   1  21
BRANCH   4  22
ATOM     22  N   UNL     1       1.058  12.236  21.328  0.00  0.00    +0.000 NA
ATOM     23  C   UNL     1       1.897  13.031  20.746  0.00  0.00    +0.000 C 
ATOM     24  N   UNL     1       1.830  14.279  20.146  0.00  0.00    +0.000 N 
ATOM     25  C   UNL     1       2.857  14.636  19.164  0.00  0.00    +0.000 C 
ATOM     26  C   UNL     1       1.304  15.439  20.867  0.00  0.00    +0.000 C 
ENDBRANCH   4  22
TORSDOF 2
ENDMDL
MODEL 5
REMARK VINA RESULT:      -6.2      2.841      5.239
REMARK  Name = 
REMARK  6 active torsions:
REMARK  status: ('A' for Active; 'I' for Inactive)
REMARK    1  A    between atoms: C_1  and  N_2
REMARK    2  A    between atoms: N_2  and  C_3
REMARK    3  A    between atoms: N_5  and  C_6
REMARK    4  A    between atoms: C_9  and  N_10
REMARK    5  A    between atoms: N_12  and  C_13
REMARK    6  A    between atoms: N_12  and  C_14
REMARK                            x       y       z     vdW  Elec       q    Type
REMARK                         _______ _______ _______ _____ _____    ______ ____
ROOT
ATOM      1  C   UNL     1      -5.207  12.244  18.779  0.00  0.00    +0.000 A 
ATOM      2  C   UNL     1      -6.131  13.263  18.976  0.00  0.00    +0.000 A 
ATOM      3  C   UNL     1      -5.889  14.266  19.905  0.00  0.00    +0.000 A 
ATOM      4  C   UNL     1      -4.813  14.167  20.803  0.00  0.00    +0.000 A 
ATOM      5  C   UNL     1      -3.790  13.245  20.485  0.00  0.00    +0.000 A 
ATOM      6  C   UNL     1      -3.951  12.399  19.375  0.00  0.00    +0.000 A 
ATOM      7  C   UNL     1      -2.782  11.678  18.820  0.00  0.00    +0.000 C 
ATOM      8  O   UNL     1      -2.695  11.376  17.635  0.00  0.00    +0.000 OA
ATOM      9  C   UNL     1      -1.683  11.339  19.719  0.00  0.00    +0.000 A 
ATOM     10  C   UNL     1      -0.790  10.318  19.362  0.00  0.00    +0.000 A 
ATOM     11  C   UNL     1       0.197   9.914  20.256  0.00  0.00    +0.000 A 
ATOM     12  C   UNL     1       0.299  10.544  21.496  0.00  0.00    +0.000 A 
ATOM     13  C   UNL     1      -0.584  11.575  21.840  0.00  0.00    +0.000 A 
ATOM     14  C   UNL     1      -1.592  11.977  20.948  0.00  0.00    +0.000 A 
ATOM     15  C   UNL     1      -2.562  13.039  21.331  0.00  0.00    +0.000 C 
ATOM     16  O   UNL     1      -2.357  13.652  22.367  0.00  0.00    +0.000 OA
ENDROOT
BRANCH   1  21
ATOM     17  C   UNL     1      -7.067   8.447  19.960  0.00  0.00    +0.000 C 
ATOM     18  N   UNL     1      -6.980   9.861  19.615  0.00  0.00    +0.000 N 
ATOM     19  C   UNL     1      -7.654  10.781  20.513  0.00  0.00    +0.000 C 
ATOM     20  C   UNL     1      -6.352  10.201  18.427  0.00  0.00    +0.000 C 
ATOM     21  N   UNL     1      -5.625  11.173  17.987  0.00  0.00    +0.000 NA
ENDBRANCH   1  21
BRANCH   4  22
ATOM     22  N   UNL     1      -4.747  15.012  21.923  0.00  0.00    +0.000 NA
ATOM     23  C   UNL     1      -5.575  15.007  22.917  0.00  0.00    +0.000 C 
ATOM     24  N   UNL     1      -6.688  14.263  23.278  0.00  0.00    +0.000 N 
ATOM     25  C   UNL     1      -7.655  14.861  24.203  0.00  0.00    +0.000 C 
ATOM     26  C   UNL     1      -6.622  12.806  23.388  0.00  0.00    +0.000 C 
ENDBRANCH   4  22
TORSDOF 2
ENDMDL
MODEL 6
REMARK VINA RESULT:      -6.1      2.578      5.902
REMARK  Name = 
REMARK  6 active torsions:
REMARK  status: ('A' for Active; 'I' for Inactive)
REMARK    1  A    between atoms: C_1  and  N_2
REMARK    2  A    between atoms: N_2  and  C_3
REMARK    3  A    between atoms: N_5  and  C_6
REMARK    4  A    between atoms: C_9  and  N_10
REMARK    5  A    between atoms: N_12  and  C_13
REMARK    6  A    between atoms: N_12  and  C_14
REMARK                            x       y       z     vdW  Elec       q    Type
REMARK                         _______ _______ _______ _____ _____    ______ ____
ROOT
ATOM      1  C   UNL     1       0.396  11.684  20.857  0.00  0.00    +0.000 A 
ATOM      2  C   UNL     1       1.634  12.096  20.377  0.00  0.00    +0.000 A 
ATOM      3  C   UNL     1       2.126  13.359  20.683  0.00  0.00    +0.000 A 
ATOM      4  C   UNL     1       1.307  14.315  21.306  0.00  0.00    +0.000 A 
ATOM      5  C   UNL     1       0.137  13.845  21.945  0.00  0.00    +0.000 A 
ATOM      6  C   UNL     1      -0.211  12.490  21.827  0.00  0.00    +0.000 A 
ATOM      7  C   UNL     1      -1.215  11.902  22.743  0.00  0.00    +0.000 C 
ATOM      8  O   UNL     1      -1.198  10.720  23.070  0.00  0.00    +0.000 OA
ATOM      9  C   UNL     1      -2.247  12.773  23.295  0.00  0.00    +0.000 A 
ATOM     10  C   UNL     1      -3.431  12.209  23.795  0.00  0.00    +0.000 A 
ATOM     11  C   UNL     1      -4.465  13.035  24.227  0.00  0.00    +0.000 A 
ATOM     12  C   UNL     1      -4.307  14.419  24.172  0.00  0.00    +0.000 A 
ATOM     13  C   UNL     1      -3.116  14.976  23.688  0.00  0.00    +0.000 A 
ATOM     14  C   UNL     1      -2.074  14.148  23.237  0.00  0.00    +0.000 A 
ATOM     15  C   UNL     1      -0.828  14.739  22.677  0.00  0.00    +0.000 C 
ATOM     16  O   UNL     1      -0.678  15.947  22.768  0.00  0.00    +0.000 OA
ENDROOT
BRANCH   1  21
ATOM     17  C   UNL     1      -2.991  11.037  18.141  0.00  0.00    +0.000 C 
ATOM     18  N   UNL     1      -1.628  11.351  18.552  0.00  0.00    +0.000 N 
ATOM     19  C   UNL     1      -1.046  12.548  17.974  0.00  0.00    +0.000 C 
ATOM     20  C   UNL     1      -0.974  10.446  19.374  0.00  0.00    +0.000 C 
ATOM     21  N   UNL     1      -0.107  10.494  20.330  0.00  0.00    +0.000 NA
ENDBRANCH   1  21
BRANCH   4  22
ATOM     22  N   UNL     1       1.696  15.664  21.338  0.00  0.00    +0.000 NA
ATOM     23  C   UNL     1       1.589  16.500  20.357  0.00  0.00    +0.000 C 
ATOM     24  N   UNL     1       1.090  16.455  19.064  0.00  0.00    +0.000 N 
ATOM     25  C   UNL     1       1.589  17.430  18.090  0.00  0.00    +0.000 C 
ATOM     26  C   UNL     1      -0.288  16.040  18.798  0.00  0.00    +0.000 C 
ENDBRANCH   4  22
TORSDOF 2
ENDMDL
MODEL 7
REMARK VINA RESULT:      -6.0      8.761     11.102
REMARK  Name = 
REMARK  6 active torsions:
REMARK  status: ('A' for Active; 'I' for Inactive)
REMARK    1  A    between atoms: C_1  and  N_2
REMARK    2  A    between atoms: N_2  and  C_3
REMARK    3  A    between atoms: N_5  and  C_6
REMARK    4  A    between atoms: C_9  and  N_10
REMARK    5  A    between atoms: N_12  and  C_13
REMARK    6  A    between atoms: N_12  and  C_14
REMARK                            x       y       z     vdW  Elec       q    Type
REMARK                         _______ _______ _______ _____ _____    ______ ____
ROOT
ATOM      1  C   UNL     1       8.341  16.362  20.208  0.00  0.00    +0.000 A 
ATOM      2  C   UNL     1       8.315  17.191  21.323  0.00  0.00    +0.000 A 
ATOM      3  C   UNL     1       8.645  16.697  22.579  0.00  0.00    +0.000 A 
ATOM      4  C   UNL     1       8.813  15.317  22.785  0.00  0.00    +0.000 A 
ATOM      5  C   UNL     1       9.018  14.514  21.639  0.00  0.00    +0.000 A 
ATOM      6  C   UNL     1       8.924  15.100  20.366  0.00  0.00    +0.000 A 
ATOM      7  C   UNL     1       9.459  14.387  19.183  0.00  0.00    +0.000 C 
ATOM      8  O   UNL     1       9.892  14.974  18.199  0.00  0.00    +0.000 OA
ATOM      9  C   UNL     1       9.491  12.927  19.207  0.00  0.00    +0.000 A 
ATOM     10  C   UNL     1       9.572  12.220  17.998  0.00  0.00    +0.000 A 
ATOM     11  C   UNL     1       9.498  10.830  18.001  0.00  0.00    +0.000 A 
ATOM     12  C   UNL     1       9.359  10.152  19.212  0.00  0.00    +0.000 A 
ATOM     13  C   UNL     1       9.295  10.864  20.417  0.00  0.00    +0.000 A 
ATOM     14  C   UNL     1       9.355  12.267  20.419  0.00  0.00    +0.000 A 
ATOM     15  C   UNL     1       9.238  13.026  21.695  0.00  0.00    +0.000 C 
ATOM     16  O   UNL     1       9.250  12.393  22.738  0.00  0.00    +0.000 OA
ENDROOT
BRANCH   1  21
ATOM     17  C   UNL     1       4.837  15.039  17.919  0.00  0.00    +0.000 C 
ATOM     18  N   UNL     1       5.591  15.724  18.961  0.00  0.00    +0.000 N 
ATOM     19  C   UNL     1       5.104  15.555  20.318  0.00  0.00    +0.000 C 
ATOM     20  C   UNL     1       6.639  16.544  18.571  0.00  0.00    +0.000 C 
ATOM     21  N   UNL     1       7.794  16.885  19.035  0.00  0.00    +0.000 NA
ENDBRANCH   1  21
BRANCH   4  22
ATOM     22  N   UNL     1       8.844  14.797  24.088  0.00  0.00    +0.000 NA
ATOM     23  C   UNL     1       7.807  14.486  24.797  0.00  0.00    +0.000 C 
ATOM     24  N   UNL     1       6.434  14.492  24.604  0.00  0.00    +0.000 N 
ATOM     25  C   UNL     1       5.565  14.554  25.783  0.00  0.00    +0.000 C 
ATOM     26  C   UNL     1       5.824  13.774  23.484  0.00  0.00    +0.000 C 
ENDBRANCH   4  22
TORSDOF 2
ENDMDL
MODEL 8
REMARK VINA RESULT:      -6.0      2.237      3.133
REMARK  Name = 
REMARK  6 active torsions:
REMARK  status: ('A' for Active; 'I' for Inactive)
REMARK    1  A    between atoms: C_1  and  N_2
REMARK    2  A    between atoms: N_2  and  C_3
REMARK    3  A    between atoms: N_5  and  C_6
REMARK    4  A    between atoms: C_9  and  N_10
REMARK    5  A    between atoms: N_12  and  C_13
REMARK    6  A    between atoms: N_12  and  C_14
REMARK                            x       y       z     vdW  Elec       q    Type
REMARK                         _______ _______ _______ _____ _____    ______ ____
ROOT
ATOM      1  C   UNL     1      -1.316  13.475  20.155  0.00  0.00    +0.000 A 
ATOM      2  C   UNL     1      -0.541  13.673  21.291  0.00  0.00    +0.000 A 
ATOM      3  C   UNL     1      -1.076  13.469  22.556  0.00  0.00    +0.000 A 
ATOM      4  C   UNL     1      -2.455  13.257  22.726  0.00  0.00    +0.000 A 
ATOM      5  C   UNL     1      -3.195  12.879  21.582  0.00  0.00    +0.000 A 
ATOM      6  C   UNL     1      -2.557  12.852  20.331  0.00  0.00    +0.000 A 
ATOM      7  C   UNL     1      -3.191  12.146  19.194  0.00  0.00    +0.000 C 
ATOM      8  O   UNL     1      -2.540  11.629  18.292  0.00  0.00    +0.000 OA
ATOM      9  C   UNL     1      -4.647  12.044  19.163  0.00  0.00    +0.000 A 
ATOM     10  C   UNL     1      -5.294  11.785  17.945  0.00  0.00    +0.000 A 
ATOM     11  C   UNL     1      -6.685  11.790  17.883  0.00  0.00    +0.000 A 
ATOM     12  C   UNL     1      -7.422  12.037  19.041  0.00  0.00    +0.000 A 
ATOM     13  C   UNL     1      -6.770  12.278  20.257  0.00  0.00    +0.000 A 
ATOM     14  C   UNL     1      -5.367  12.289  20.323  0.00  0.00    +0.000 A 
ATOM     15  C   UNL     1      -4.673  12.593  21.604  0.00  0.00    +0.000 C 
ATOM     16  O   UNL     1      -5.352  12.673  22.616  0.00  0.00    +0.000 OA
ENDROOT
BRANCH   1  21
ATOM     17  C   UNL     1       2.518  12.421  18.295  0.00  0.00    +0.000 C 
ATOM     18  N   UNL     1       1.114  12.292  18.665  0.00  0.00    +0.000 N 
ATOM     19  C   UNL     1       0.708  11.002  19.192  0.00  0.00    +0.000 C 
ATOM     20  C   UNL     1       0.272  13.363  18.402  0.00  0.00    +0.000 C 
ATOM     21  N   UNL     1      -0.765  13.904  18.946  0.00  0.00    +0.000 NA
ENDBRANCH   1  21
BRANCH   4  22
ATOM     22  N   UNL     1      -3.033  13.355  24.001  0.00  0.00    +0.000 NA
ATOM     23  C   UNL     1      -3.445  14.448  24.558  0.00  0.00    +0.000 C 
ATOM     24  N   UNL     1      -3.522  15.782  24.189  0.00  0.00    +0.000 N 
ATOM     25  C   UNL     1      -3.573  16.795  25.246  0.00  0.00    +0.000 C 
ATOM     26  C   UNL     1      -4.226  16.192  22.973  0.00  0.00    +0.000 C 
ENDBRANCH   4  22
TORSDOF 2
ENDMDL
MODEL 9
REMARK VINA RESULT:      -6.0      2.016      2.643
REMARK  Name = 
REMARK  6 active torsions:
REMARK  status: ('A' for Active; 'I' for Inactive)
REMARK    1  A    between atoms: C_1  and  N_2
REMARK    2  A    between atoms: N_2  and  C_3
REMARK    3  A    between atoms: N_5  and  C_6
REMARK    4  A    between atoms: C_9  and  N_10
REMARK    5  A    between atoms: N_12  and  C_13
REMARK    6  A    between atoms: N_12  and  C_14
REMARK                            x       y       z     vdW  Elec       q    Type
REMARK                         _______ _______ _______ _____ _____    ______ ____
ROOT
ATOM      1  C   UNL     1      -2.066  13.496  21.290  0.00  0.00    +0.000 A 
ATOM      2  C   UNL     1      -2.705  13.961  22.433  0.00  0.00    +0.000 A 
ATOM      3  C   UNL     1      -4.076  13.800  22.591  0.00  0.00    +0.000 A 
ATOM      4  C   UNL     1      -4.873  13.352  21.525  0.00  0.00    +0.000 A 
ATOM      5  C   UNL     1      -4.213  12.717  20.448  0.00  0.00    +0.000 A 
ATOM      6  C   UNL     1      -2.809  12.674  20.435  0.00  0.00    +0.000 A 
ATOM      7  C   UNL     1      -2.107  11.740  19.524  0.00  0.00    +0.000 C 
ATOM      8  O   UNL     1      -1.010  11.259  19.788  0.00  0.00    +0.000 OA
ATOM      9  C   UNL     1      -2.762  11.362  18.276  0.00  0.00    +0.000 A 
ATOM     10  C   UNL     1      -1.992  10.854  17.219  0.00  0.00    +0.000 A 
ATOM     11  C   UNL     1      -2.589  10.589  15.990  0.00  0.00    +0.000 A 
ATOM     12  C   UNL     1      -3.954  10.818  15.826  0.00  0.00    +0.000 A 
ATOM     13  C   UNL     1      -4.721  11.310  16.890  0.00  0.00    +0.000 A 
ATOM     14  C   UNL     1      -4.122  11.593  18.129  0.00  0.00    +0.000 A 
ATOM     15  C   UNL     1      -4.927  12.161  19.245  0.00  0.00    +0.000 C 
ATOM     16  O   UNL     1      -6.137  12.222  19.102  0.00  0.00    +0.000 OA
ENDROOT
BRANCH   1  21
ATOM     17  C   UNL     1      -0.356  16.525  18.613  0.00  0.00    +0.000 C 
ATOM     18  N   UNL     1      -1.006  15.981  19.798  0.00  0.00    +0.000 N 
ATOM     19  C   UNL     1      -2.213  16.659  20.234  0.00  0.00    +0.000 C 
ATOM     20  C   UNL     1      -0.379  14.935  20.459  0.00  0.00    +0.000 C 
ATOM     21  N   UNL     1      -0.737  13.886  21.121  0.00  0.00    +0.000 NA
ENDBRANCH   1  21
BRANCH   4  22
ATOM     22  N   UNL     1      -6.270  13.478  21.585  0.00  0.00    +0.000 NA
ATOM     23  C   UNL     1      -6.937  14.562  21.353  0.00  0.00    +0.000 C 
ATOM     24  N   UNL     1      -6.625  15.856  20.966  0.00  0.00    +0.000 N 
ATOM     25  C   UNL     1      -7.571  16.927  21.289  0.00  0.00    +0.000 C 
ATOM     26  C   UNL     1      -5.864  16.119  19.745  0.00  0.00    +0.000 C 
ENDBRANCH   4  22
TORSDOF 2
ENDMDL
