MODEL 1
REMARK VINA RESULT:      -8.2      0.000      0.000
REMARK  Name = 
REMARK  12 active torsions:
REMARK  status: ('A' for Active; 'I' for Inactive)
REMARK    1  A    between atoms: C_2  and  C_16
REMARK    2  A    between atoms: N_3  and  C_4
REMARK    3  A    between atoms: C_4  and  C_5
REMARK    4  A    between atoms: C_5  and  C_6
REMARK    5  A    between atoms: C_6  and  C_7
REMARK    6  A    between atoms: C_7  and  C_8
REMARK    7  A    between atoms: C_21  and  C_22
REMARK    8  A    between atoms: C_22  and  N_23
REMARK    9  A    between atoms: N_23  and  C_24
REMARK   10  A    between atoms: C_24  and  C_25
REMARK   11  A    between atoms: C_25  and  C_26
REMARK   12  A    between atoms: C_29  and  O_30
REMARK                            x       y       z     vdW  Elec       q    Type
REMARK                         _______ _______ _______ _____ _____    ______ ____
ROOT
ATOM      1  C   UNL     1       5.920   4.459  17.134  0.00  0.00    +0.000 A 
ATOM      2  C   UNL     1       5.534   3.569  16.112  0.00  0.00    +0.000 A 
ATOM      3  C   UNL     1       5.873   3.807  14.783  0.00  0.00    +0.000 A 
ATOM      4  C   UNL     1       6.589   4.950  14.447  0.00  0.00    +0.000 A 
ATOM      5  C   UNL     1       6.955   5.856  15.445  0.00  0.00    +0.000 A 
ATOM      6  C   UNL     1       6.629   5.633  16.800  0.00  0.00    +0.000 A 
ENDROOT
BRANCH   1   8
ATOM      7  O   UNL     1       5.999   4.733  19.495  0.00  0.00    +0.000 OA
ATOM      8  C   UNL     1       5.527   4.129  18.541  0.00  0.00    +0.000 C 
ATOM      9  N   UNL     1       4.610   3.104  18.680  0.00  0.00    +0.000 N 
ATOM     10  H   UNL     1       4.347   2.558  17.872  0.00  0.00    +0.000 HD
BRANCH   9  11
ATOM     11  C   UNL     1       4.020   2.747  19.954  0.00  0.00    +0.000 C 
BRANCH  11  12
ATOM     12  C   UNL     1       2.532   2.401  19.838  0.00  0.00    +0.000 C 
BRANCH  12  13
ATOM     13  C   UNL     1       1.626   3.640  19.850  0.00  0.00    +0.000 C 
BRANCH  13  14
ATOM     14  C   UNL     1       2.218   4.758  20.712  0.00  0.00    +0.000 C 
BRANCH  14  15
ATOM     15  C   UNL     1       2.140   6.108  20.034  0.00  0.00    +0.000 A 
ATOM     16  C   UNL     1       2.607   6.273  18.725  0.00  0.00    +0.000 A 
ATOM     17  C   UNL     1       2.520   7.515  18.090  0.00  0.00    +0.000 A 
ATOM     18  C   UNL     1       1.968   8.610  18.760  0.00  0.00    +0.000 A 
ATOM     19 CL   UNL     1       1.877  10.111  17.908  0.00  0.00    +0.000 Cl
ATOM     20  C   UNL     1       1.511   8.462  20.073  0.00  0.00    +0.000 A 
ATOM     21 CL   UNL     1       0.825   9.771  20.968  0.00  0.00    +0.000 Cl
ATOM     22  C   UNL     1       1.601   7.215  20.707  0.00  0.00    +0.000 A 
ENDBRANCH  14  15
ENDBRANCH  13  14
ENDBRANCH  12  13
ENDBRANCH  11  12
ENDBRANCH   9  11
ENDBRANCH   1   8
BRANCH   6  23
ATOM     23  C   UNL     1       7.067   6.676  17.809  0.00  0.00    +0.000 C 
BRANCH  23  24
ATOM     24  N   UNL     1       7.041   8.061  17.336  0.00  0.00    +0.000 NA
ATOM     25  H   UNL     1       6.274   8.543  17.808  0.00  0.00    +0.000 HD
BRANCH  24  26
ATOM     26  C   UNL     1       8.293   8.796  17.504  0.00  0.00    +0.000 C 
BRANCH  26  27
ATOM     27  C   UNL     1       8.631   9.098  18.972  0.00  0.00    +0.000 C 
BRANCH  27  28
ATOM     28  C   UNL     1       9.377  10.401  19.089  0.00  0.00    +0.000 A 
ATOM     29  C   UNL     1       9.814  10.854  20.341  0.00  0.00    +0.000 A 
ATOM     30  C   UNL     1      10.432  12.099  20.462  0.00  0.00    +0.000 A 
ATOM     31  C   UNL     1      10.611  12.885  19.329  0.00  0.00    +0.000 A 
ATOM     32  C   UNL     1      10.193  12.443  18.079  0.00  0.00    +0.000 A 
ATOM     33  C   UNL     1       9.577  11.199  17.955  0.00  0.00    +0.000 A 
BRANCH  31  34
ATOM     34  O   UNL     1      11.186  14.116  19.406  0.00  0.00    +0.000 OA
ATOM     35  H   UNL     1      10.677  14.731  18.854  0.00  0.00    +0.000 HD
ENDBRANCH  31  34
ENDBRANCH  27  28
ENDBRANCH  26  27
ENDBRANCH  24  26
ENDBRANCH  23  24
ENDBRANCH   6  23
TORSDOF 12
ENDMDL
MODEL 2
REMARK VINA RESULT:      -8.1      4.826      8.251
REMARK  Name = 
REMARK  12 active torsions:
REMARK  status: ('A' for Active; 'I' for Inactive)
REMARK    1  A    between atoms: C_2  and  C_16
REMARK    2  A    between atoms: N_3  and  C_4
REMARK    3  A    between atoms: C_4  and  C_5
REMARK    4  A    between atoms: C_5  and  C_6
REMARK    5  A    between atoms: C_6  and  C_7
REMARK    6  A    between atoms: C_7  and  C_8
REMARK    7  A    between atoms: C_21  and  C_22
REMARK    8  A    between atoms: C_22  and  N_23
REMARK    9  A    between atoms: N_23  and  C_24
REMARK   10  A    between atoms: C_24  and  C_25
REMARK   11  A    between atoms: C_25  and  C_26
REMARK   12  A    between atoms: C_29  and  O_30
REMARK                            x       y       z     vdW  Elec       q    Type
REMARK                         _______ _______ _______ _____ _____    ______ ____
ROOT
ATOM      1  C   UNL     1       2.035   6.854  19.560  0.00  0.00    +0.000 A 
ATOM      2  C   UNL     1       2.665   6.841  18.299  0.00  0.00    +0.000 A 
ATOM      3  C   UNL     1       2.767   7.999  17.533  0.00  0.00    +0.000 A 
ATOM      4  C   UNL     1       2.226   9.189  18.005  0.00  0.00    +0.000 A 
ATOM      5  C   UNL     1       1.574   9.212  19.240  0.00  0.00    +0.000 A 
ATOM      6  C   UNL     1       1.464   8.052  20.037  0.00  0.00    +0.000 A 
ENDROOT
BRANCH   1   8
ATOM      7  O   UNL     1       2.584   5.424  21.380  0.00  0.00    +0.000 OA
ATOM      8  C   UNL     1       1.974   5.570  20.329  0.00  0.00    +0.000 C 
ATOM      9  N   UNL     1       1.192   4.576  19.771  0.00  0.00    +0.000 N 
ATOM     10  H   UNL     1       0.810   4.703  18.844  0.00  0.00    +0.000 HD
BRANCH   9  11
ATOM     11  C   UNL     1       0.912   3.326  20.447  0.00  0.00    +0.000 C 
BRANCH  11  12
ATOM     12  C   UNL     1       1.625   2.133  19.801  0.00  0.00    +0.000 C 
BRANCH  12  13
ATOM     13  C   UNL     1       1.963   2.368  18.322  0.00  0.00    +0.000 C 
BRANCH  13  14
ATOM     14  C   UNL     1       3.427   2.034  18.022  0.00  0.00    +0.000 C 
BRANCH  14  15
ATOM     15  C   UNL     1       4.288   3.274  17.923  0.00  0.00    +0.000 A 
ATOM     16  C   UNL     1       4.898   3.807  19.063  0.00  0.00    +0.000 A 
ATOM     17  C   UNL     1       5.709   4.942  18.971  0.00  0.00    +0.000 A 
ATOM     18  C   UNL     1       5.915   5.560  17.735  0.00  0.00    +0.000 A 
ATOM     19 CL   UNL     1       6.943   6.950  17.693  0.00  0.00    +0.000 Cl
ATOM     20  C   UNL     1       5.299   5.045  16.591  0.00  0.00    +0.000 A 
ATOM     21 CL   UNL     1       5.500   5.761  15.030  0.00  0.00    +0.000 Cl
ATOM     22  C   UNL     1       4.486   3.908  16.687  0.00  0.00    +0.000 A 
ENDBRANCH  14  15
ENDBRANCH  13  14
ENDBRANCH  12  13
ENDBRANCH  11  12
ENDBRANCH   9  11
ENDBRANCH   1   8
BRANCH   6  23
ATOM     23  C   UNL     1       0.736   8.177  21.362  0.00  0.00    +0.000 C 
BRANCH  23  24
ATOM     24  N   UNL     1       0.791   9.499  21.988  0.00  0.00    +0.000 NA
ATOM     25  H   UNL     1       1.588  10.003  21.596  0.00  0.00    +0.000 HD
BRANCH  24  26
ATOM     26  C   UNL     1      -0.430  10.293  21.866  0.00  0.00    +0.000 C 
BRANCH  26  27
ATOM     27  C   UNL     1      -0.181  11.808  21.906  0.00  0.00    +0.000 C 
BRANCH  27  28
ATOM     28  C   UNL     1      -1.208  12.493  22.767  0.00  0.00    +0.000 A 
ATOM     29  C   UNL     1      -2.398  11.834  23.107  0.00  0.00    +0.000 A 
ATOM     30  C   UNL     1      -3.386  12.498  23.835  0.00  0.00    +0.000 A 
ATOM     31  C   UNL     1      -3.178  13.818  24.222  0.00  0.00    +0.000 A 
ATOM     32  C   UNL     1      -1.998  14.479  23.903  0.00  0.00    +0.000 A 
ATOM     33  C   UNL     1      -1.009  13.819  23.177  0.00  0.00    +0.000 A 
BRANCH  31  34
ATOM     34  O   UNL     1      -4.125  14.509  24.912  0.00  0.00    +0.000 OA
ATOM     35  H   UNL     1      -4.131  15.426  24.597  0.00  0.00    +0.000 HD
ENDBRANCH  31  34
ENDBRANCH  27  28
ENDBRANCH  26  27
ENDBRANCH  24  26
ENDBRANCH  23  24
ENDBRANCH   6  23
TORSDOF 12
ENDMDL
MODEL 3
REMARK VINA RESULT:      -8.0      3.391      9.033
REMARK  Name = 
REMARK  12 active torsions:
REMARK  status: ('A' for Active; 'I' for Inactive)
REMARK    1  A    between atoms: C_2  and  C_16
REMARK    2  A    between atoms: N_3  and  C_4
REMARK    3  A    between atoms: C_4  and  C_5
REMARK    4  A    between atoms: C_5  and  C_6
REMARK    5  A    between atoms: C_6  and  C_7
REMARK    6  A    between atoms: C_7  and  C_8
REMARK    7  A    between atoms: C_21  and  C_22
REMARK    8  A    between atoms: C_22  and  N_23
REMARK    9  A    between atoms: N_23  and  C_24
REMARK   10  A    between atoms: C_24  and  C_25
REMARK   11  A    between atoms: C_25  and  C_26
REMARK   12  A    between atoms: C_29  and  O_30
REMARK                            x       y       z     vdW  Elec       q    Type
REMARK                         _______ _______ _______ _____ _____    ______ ____
ROOT
ATOM      1  C   UNL     1       6.575   5.700  17.329  0.00  0.00    +0.000 A 
ATOM      2  C   UNL     1       7.125   5.003  16.233  0.00  0.00    +0.000 A 
ATOM      3  C   UNL     1       6.318   4.266  15.370  0.00  0.00    +0.000 A 
ATOM      4  C   UNL     1       4.949   4.196  15.596  0.00  0.00    +0.000 A 
ATOM      5  C   UNL     1       4.393   4.857  16.693  0.00  0.00    +0.000 A 
ATOM      6  C   UNL     1       5.188   5.616  17.578  0.00  0.00    +0.000 A 
ENDROOT
BRANCH   1   8
ATOM      7  O   UNL     1       8.081   5.957  19.151  0.00  0.00    +0.000 OA
ATOM      8  C   UNL     1       7.505   6.480  18.206  0.00  0.00    +0.000 C 
ATOM      9  N   UNL     1       7.660   7.813  17.876  0.00  0.00    +0.000 N 
ATOM     10  H   UNL     1       7.071   8.223  17.165  0.00  0.00    +0.000 HD
BRANCH   9  11
ATOM     11  C   UNL     1       8.622   8.676  18.530  0.00  0.00    +0.000 C 
BRANCH  11  12
ATOM     12  C   UNL     1       8.743  10.045  17.854  0.00  0.00    +0.000 C 
BRANCH  12  13
ATOM     13  C   UNL     1       9.282  11.132  18.795  0.00  0.00    +0.000 C 
BRANCH  13  14
ATOM     14  C   UNL     1      10.223  12.091  18.062  0.00  0.00    +0.000 C 
BRANCH  14  15
ATOM     15  C   UNL     1       9.740  13.524  18.118  0.00  0.00    +0.000 A 
ATOM     16  C   UNL     1       8.370  13.811  18.113  0.00  0.00    +0.000 A 
ATOM     17  C   UNL     1       7.921  15.133  18.182  0.00  0.00    +0.000 A 
ATOM     18  C   UNL     1       8.838  16.184  18.252  0.00  0.00    +0.000 A 
ATOM     19 CL   UNL     1       8.211  17.792  18.352  0.00  0.00    +0.000 Cl
ATOM     20  C   UNL     1      10.209  15.911  18.242  0.00  0.00    +0.000 A 
ATOM     21 CL   UNL     1      11.403  17.159  18.316  0.00  0.00    +0.000 Cl
ATOM     22  C   UNL     1      10.656  14.584  18.172  0.00  0.00    +0.000 A 
ENDBRANCH  14  15
ENDBRANCH  13  14
ENDBRANCH  12  13
ENDBRANCH  11  12
ENDBRANCH   9  11
ENDBRANCH   1   8
BRANCH   6  23
ATOM     23  C   UNL     1       4.493   6.296  18.742  0.00  0.00    +0.000 C 
BRANCH  23  24
ATOM     24  N   UNL     1       3.031   6.335  18.665  0.00  0.00    +0.000 NA
ATOM     25  H   UNL     1       2.720   5.530  18.118  0.00  0.00    +0.000 HD
BRANCH  24  26
ATOM     26  C   UNL     1       2.345   6.378  19.955  0.00  0.00    +0.000 C 
BRANCH  26  27
ATOM     27  C   UNL     1       1.431   5.168  20.201  0.00  0.00    +0.000 C 
BRANCH  27  28
ATOM     28  C   UNL     1       2.075   3.904  19.694  0.00  0.00    +0.000 A 
ATOM     29  C   UNL     1       3.138   3.321  20.398  0.00  0.00    +0.000 A 
ATOM     30  C   UNL     1       3.788   2.198  19.887  0.00  0.00    +0.000 A 
ATOM     31  C   UNL     1       3.371   1.661  18.674  0.00  0.00    +0.000 A 
ATOM     32  C   UNL     1       2.310   2.221  17.971  0.00  0.00    +0.000 A 
ATOM     33  C   UNL     1       1.657   3.342  18.480  0.00  0.00    +0.000 A 
BRANCH  31  34
ATOM     34  O   UNL     1       3.992   0.581  18.128  0.00  0.00    +0.000 OA
ATOM     35  H   UNL     1       4.805   0.406  18.627  0.00  0.00    +0.000 HD
ENDBRANCH  31  34
ENDBRANCH  27  28
ENDBRANCH  26  27
ENDBRANCH  24  26
ENDBRANCH  23  24
ENDBRANCH   6  23
TORSDOF 12
ENDMDL
MODEL 4
REMARK VINA RESULT:      -8.0      1.151      1.654
REMARK  Name = 
REMARK  12 active torsions:
REMARK  status: ('A' for Active; 'I' for Inactive)
REMARK    1  A    between atoms: C_2  and  C_16
REMARK    2  A    between atoms: N_3  and  C_4
REMARK    3  A    between atoms: C_4  and  C_5
REMARK    4  A    between atoms: C_5  and  C_6
REMARK    5  A    between atoms: C_6  and  C_7
REMARK    6  A    between atoms: C_7  and  C_8
REMARK    7  A    between atoms: C_21  and  C_22
REMARK    8  A    between atoms: C_22  and  N_23
REMARK    9  A    between atoms: N_23  and  C_24
REMARK   10  A    between atoms: C_24  and  C_25
REMARK   11  A    between atoms: C_25  and  C_26
REMARK   12  A    between atoms: C_29  and  O_30
REMARK                            x       y       z     vdW  Elec       q    Type
REMARK                         _______ _______ _______ _____ _____    ______ ____
ROOT
ATOM      1  C   UNL     1       5.958   4.556  17.065  0.00  0.00    +0.000 A 
ATOM      2  C   UNL     1       5.559   3.644  16.066  0.00  0.00    +0.000 A 
ATOM      3  C   UNL     1       5.990   3.782  14.750  0.00  0.00    +0.000 A 
ATOM      4  C   UNL     1       6.814   4.846  14.402  0.00  0.00    +0.000 A 
ATOM      5  C   UNL     1       7.195   5.774  15.373  0.00  0.00    +0.000 A 
ATOM      6  C   UNL     1       6.777   5.651  16.715  0.00  0.00    +0.000 A 
ENDROOT
BRANCH   1   8
ATOM      7  O   UNL     1       6.180   4.527  19.432  0.00  0.00    +0.000 OA
ATOM      8  C   UNL     1       5.462   4.335  18.460  0.00  0.00    +0.000 C 
ATOM      9  N   UNL     1       4.155   3.899  18.567  0.00  0.00    +0.000 N 
ATOM     10  H   UNL     1       3.646   3.638  17.734  0.00  0.00    +0.000 HD
BRANCH   9  11
ATOM     11  C   UNL     1       3.473   3.767  19.838  0.00  0.00    +0.000 C 
BRANCH  11  12
ATOM     12  C   UNL     1       2.264   4.699  19.961  0.00  0.00    +0.000 C 
BRANCH  12  13
ATOM     13  C   UNL     1       2.116   5.647  18.761  0.00  0.00    +0.000 C 
BRANCH  13  14
ATOM     14  C   UNL     1       2.861   6.964  18.993  0.00  0.00    +0.000 C 
BRANCH  14  15
ATOM     15  C   UNL     1       1.927   8.093  19.366  0.00  0.00    +0.000 A 
ATOM     16  C   UNL     1       1.578   9.066  18.422  0.00  0.00    +0.000 A 
ATOM     17  C   UNL     1       0.701  10.101  18.759  0.00  0.00    +0.000 A 
ATOM     18  C   UNL     1       0.167  10.178  20.048  0.00  0.00    +0.000 A 
ATOM     19 CL   UNL     1      -0.924  11.475  20.390  0.00  0.00    +0.000 Cl
ATOM     20  C   UNL     1       0.520   9.221  21.004  0.00  0.00    +0.000 A 
ATOM     21 CL   UNL     1      -0.093   9.256  22.620  0.00  0.00    +0.000 Cl
ATOM     22  C   UNL     1       1.400   8.184  20.663  0.00  0.00    +0.000 A 
ENDBRANCH  14  15
ENDBRANCH  13  14
ENDBRANCH  12  13
ENDBRANCH  11  12
ENDBRANCH   9  11
ENDBRANCH   1   8
BRANCH   6  23
ATOM     23  C   UNL     1       7.242   6.710  17.696  0.00  0.00    +0.000 C 
BRANCH  23  24
ATOM     24  N   UNL     1       7.957   7.844  17.107  0.00  0.00    +0.000 NA
ATOM     25  H   UNL     1       7.668   7.927  16.130  0.00  0.00    +0.000 HD
BRANCH  24  26
ATOM     26  C   UNL     1       7.782   9.116  17.805  0.00  0.00    +0.000 C 
BRANCH  26  27
ATOM     27  C   UNL     1       8.901   9.418  18.813  0.00  0.00    +0.000 C 
BRANCH  27  28
ATOM     28  C   UNL     1       9.401  10.828  18.645  0.00  0.00    +0.000 A 
ATOM     29  C   UNL     1      10.551  11.255  19.324  0.00  0.00    +0.000 A 
ATOM     30  C   UNL     1      10.968  12.583  19.235  0.00  0.00    +0.000 A 
ATOM     31  C   UNL     1      10.235  13.479  18.464  0.00  0.00    +0.000 A 
ATOM     32  C   UNL     1       9.100  13.066  17.775  0.00  0.00    +0.000 A 
ATOM     33  C   UNL     1       8.682  11.740  17.861  0.00  0.00    +0.000 A 
BRANCH  31  34
ATOM     34  O   UNL     1      10.593  14.788  18.369  0.00  0.00    +0.000 OA
ATOM     35  H   UNL     1      10.241  15.146  17.539  0.00  0.00    +0.000 HD
ENDBRANCH  31  34
ENDBRANCH  27  28
ENDBRANCH  26  27
ENDBRANCH  24  26
ENDBRANCH  23  24
ENDBRANCH   6  23
TORSDOF 12
ENDMDL
MODEL 5
REMARK VINA RESULT:      -7.9      3.860      8.227
REMARK  Name = 
REMARK  12 active torsions:
REMARK  status: ('A' for Active; 'I' for Inactive)
REMARK    1  A    between atoms: C_2  and  C_16
REMARK    2  A    between atoms: N_3  and  C_4
REMARK    3  A    between atoms: C_4  and  C_5
REMARK    4  A    between atoms: C_5  and  C_6
REMARK    5  A    between atoms: C_6  and  C_7
REMARK    6  A    between atoms: C_7  and  C_8
REMARK    7  A    between atoms: C_21  and  C_22
REMARK    8  A    between atoms: C_22  and  N_23
REMARK    9  A    between atoms: N_23  and  C_24
REMARK   10  A    between atoms: C_24  and  C_25
REMARK   11  A    between atoms: C_25  and  C_26
REMARK   12  A    between atoms: C_29  and  O_30
REMARK                            x       y       z     vdW  Elec       q    Type
REMARK                         _______ _______ _______ _____ _____    ______ ____
ROOT
ATOM      1  C   UNL     1       4.168   4.586  18.446  0.00  0.00    +0.000 A 
ATOM      2  C   UNL     1       4.099   3.208  18.155  0.00  0.00    +0.000 A 
ATOM      3  C   UNL     1       2.904   2.616  17.755  0.00  0.00    +0.000 A 
ATOM      4  C   UNL     1       1.752   3.385  17.656  0.00  0.00    +0.000 A 
ATOM      5  C   UNL     1       1.797   4.746  17.968  0.00  0.00    +0.000 A 
ATOM      6  C   UNL     1       2.998   5.370  18.368  0.00  0.00    +0.000 A 
ENDROOT
BRANCH   1   8
ATOM      7  O   UNL     1       6.055   4.783  19.881  0.00  0.00    +0.000 OA
ATOM      8  C   UNL     1       5.492   5.153  18.859  0.00  0.00    +0.000 C 
ATOM      9  N   UNL     1       6.020   6.113  18.016  0.00  0.00    +0.000 N 
ATOM     10  H   UNL     1       5.461   6.471  17.255  0.00  0.00    +0.000 HD
BRANCH   9  11
ATOM     11  C   UNL     1       7.348   6.664  18.190  0.00  0.00    +0.000 C 
BRANCH  11  12
ATOM     12  C   UNL     1       7.715   7.676  17.101  0.00  0.00    +0.000 C 
BRANCH  12  13
ATOM     13  C   UNL     1       7.893   9.101  17.643  0.00  0.00    +0.000 C 
BRANCH  13  14
ATOM     14  C   UNL     1       8.885   9.137  18.809  0.00  0.00    +0.000 C 
BRANCH  14  15
ATOM     15  C   UNL     1       9.394  10.534  19.086  0.00  0.00    +0.000 A 
ATOM     16  C   UNL     1       9.944  11.306  18.057  0.00  0.00    +0.000 A 
ATOM     17  C   UNL     1      10.399  12.604  18.308  0.00  0.00    +0.000 A 
ATOM     18  C   UNL     1      10.314  13.143  19.594  0.00  0.00    +0.000 A 
ATOM     19 CL   UNL     1      10.880  14.759  19.827  0.00  0.00    +0.000 Cl
ATOM     20  C   UNL     1       9.779  12.376  20.634  0.00  0.00    +0.000 A 
ATOM     21 CL   UNL     1       9.649  12.972  22.251  0.00  0.00    +0.000 Cl
ATOM     22  C   UNL     1       9.324  11.075  20.379  0.00  0.00    +0.000 A 
ENDBRANCH  14  15
ENDBRANCH  13  14
ENDBRANCH  12  13
ENDBRANCH  11  12
ENDBRANCH   9  11
ENDBRANCH   1   8
BRANCH   6  23
ATOM     23  C   UNL     1       2.947   6.852  18.687  0.00  0.00    +0.000 C 
BRANCH  23  24
ATOM     24  N   UNL     1       2.550   7.721  17.578  0.00  0.00    +0.000 NA
ATOM     25  H   UNL     1       1.795   7.259  17.068  0.00  0.00    +0.000 HD
BRANCH  24  26
ATOM     26  C   UNL     1       2.157   9.076  17.964  0.00  0.00    +0.000 C 
BRANCH  26  27
ATOM     27  C   UNL     1       1.325   9.126  19.253  0.00  0.00    +0.000 C 
BRANCH  27  28
ATOM     28  C   UNL     1       0.057   9.910  19.038  0.00  0.00    +0.000 A 
ATOM     29  C   UNL     1      -0.591   9.878  17.795  0.00  0.00    +0.000 A 
ATOM     30  C   UNL     1      -1.718  10.668  17.569  0.00  0.00    +0.000 A 
ATOM     31  C   UNL     1      -2.195  11.485  18.588  0.00  0.00    +0.000 A 
ATOM     32  C   UNL     1      -1.570  11.517  19.830  0.00  0.00    +0.000 A 
ATOM     33  C   UNL     1      -0.444  10.728  20.059  0.00  0.00    +0.000 A 
BRANCH  31  34
ATOM     34  O   UNL     1      -3.276  12.289  18.402  0.00  0.00    +0.000 OA
ATOM     35  H   UNL     1      -3.515  12.689  19.253  0.00  0.00    +0.000 HD
ENDBRANCH  31  34
ENDBRANCH  27  28
ENDBRANCH  26  27
ENDBRANCH  24  26
ENDBRANCH  23  24
ENDBRANCH   6  23
TORSDOF 12
ENDMDL
MODEL 6
REMARK VINA RESULT:      -7.9      4.458      7.278
REMARK  Name = 
REMARK  12 active torsions:
REMARK  status: ('A' for Active; 'I' for Inactive)
REMARK    1  A    between atoms: C_2  and  C_16
REMARK    2  A    between atoms: N_3  and  C_4
REMARK    3  A    between atoms: C_4  and  C_5
REMARK    4  A    between atoms: C_5  and  C_6
REMARK    5  A    between atoms: C_6  and  C_7
REMARK    6  A    between atoms: C_7  and  C_8
REMARK    7  A    between atoms: C_21  and  C_22
REMARK    8  A    between atoms: C_22  and  N_23
REMARK    9  A    between atoms: N_23  and  C_24
REMARK   10  A    between atoms: C_24  and  C_25
REMARK   11  A    between atoms: C_25  and  C_26
REMARK   12  A    between atoms: C_29  and  O_30
REMARK                            x       y       z     vdW  Elec       q    Type
REMARK                         _______ _______ _______ _____ _____    ______ ____
ROOT
ATOM      1  C   UNL     1       3.063   5.435  18.125  0.00  0.00    +0.000 A 
ATOM      2  C   UNL     1       1.822   4.832  17.833  0.00  0.00    +0.000 A 
ATOM      3  C   UNL     1       1.616   3.470  18.038  0.00  0.00    +0.000 A 
ATOM      4  C   UNL     1       2.653   2.681  18.521  0.00  0.00    +0.000 A 
ATOM      5  C   UNL     1       3.897   3.257  18.788  0.00  0.00    +0.000 A 
ATOM      6  C   UNL     1       4.127   4.637  18.595  0.00  0.00    +0.000 A 
ENDROOT
BRANCH   1   8
ATOM      7  O   UNL     1       4.231   7.385  17.427  0.00  0.00    +0.000 OA
ATOM      8  C   UNL     1       3.203   6.907  17.888  0.00  0.00    +0.000 C 
ATOM      9  N   UNL     1       2.104   7.674  18.227  0.00  0.00    +0.000 N 
ATOM     10  H   UNL     1       1.330   7.248  18.717  0.00  0.00    +0.000 HD
BRANCH   9  11
ATOM     11  C   UNL     1       2.017   9.091  17.938  0.00  0.00    +0.000 C 
BRANCH  11  12
ATOM     12  C   UNL     1       1.094   9.835  18.906  0.00  0.00    +0.000 C 
BRANCH  12  13
ATOM     13  C   UNL     1      -0.357   9.915  18.408  0.00  0.00    +0.000 C 
BRANCH  13  14
ATOM     14  C   UNL     1      -0.772  11.360  18.122  0.00  0.00    +0.000 C 
BRANCH  14  15
ATOM     15  C   UNL     1      -2.274  11.519  18.034  0.00  0.00    +0.000 A 
ATOM     16  C   UNL     1      -2.946  11.250  16.837  0.00  0.00    +0.000 A 
ATOM     17  C   UNL     1      -4.336  11.379  16.757  0.00  0.00    +0.000 A 
ATOM     18  C   UNL     1      -5.069  11.784  17.875  0.00  0.00    +0.000 A 
ATOM     19 CL   UNL     1      -6.786  11.906  17.710  0.00  0.00    +0.000 Cl
ATOM     20  C   UNL     1      -4.407  12.070  19.073  0.00  0.00    +0.000 A 
ATOM     21 CL   UNL     1      -5.245  12.586  20.494  0.00  0.00    +0.000 Cl
ATOM     22  C   UNL     1      -3.013  11.941  19.149  0.00  0.00    +0.000 A 
ENDBRANCH  14  15
ENDBRANCH  13  14
ENDBRANCH  12  13
ENDBRANCH  11  12
ENDBRANCH   9  11
ENDBRANCH   1   8
BRANCH   6  23
ATOM     23  C   UNL     1       5.511   5.169  18.911  0.00  0.00    +0.000 C 
BRANCH  23  24
ATOM     24  N   UNL     1       6.613   4.231  18.687  0.00  0.00    +0.000 NA
ATOM     25  H   UNL     1       6.211   3.316  18.472  0.00  0.00    +0.000 HD
BRANCH  24  26
ATOM     26  C   UNL     1       7.565   4.631  17.653  0.00  0.00    +0.000 C 
BRANCH  26  27
ATOM     27  C   UNL     1       7.015   5.698  16.696  0.00  0.00    +0.000 C 
BRANCH  27  28
ATOM     28  C   UNL     1       6.598   5.076  15.389  0.00  0.00    +0.000 A 
ATOM     29  C   UNL     1       5.370   4.409  15.284  0.00  0.00    +0.000 A 
ATOM     30  C   UNL     1       5.020   3.761  14.099  0.00  0.00    +0.000 A 
ATOM     31  C   UNL     1       5.900   3.786  13.022  0.00  0.00    +0.000 A 
ATOM     32  C   UNL     1       7.116   4.454  13.108  0.00  0.00    +0.000 A 
ATOM     33  C   UNL     1       7.468   5.103  14.290  0.00  0.00    +0.000 A 
BRANCH  31  34
ATOM     34  O   UNL     1       5.609   3.147  11.857  0.00  0.00    +0.000 OA
ATOM     35  H   UNL     1       4.646   3.073  11.776  0.00  0.00    +0.000 HD
ENDBRANCH  31  34
ENDBRANCH  27  28
ENDBRANCH  26  27
ENDBRANCH  24  26
ENDBRANCH  23  24
ENDBRANCH   6  23
TORSDOF 12
ENDMDL
MODEL 7
REMARK VINA RESULT:      -7.9      4.701      7.231
REMARK  Name = 
REMARK  12 active torsions:
REMARK  status: ('A' for Active; 'I' for Inactive)
REMARK    1  A    between atoms: C_2  and  C_16
REMARK    2  A    between atoms: N_3  and  C_4
REMARK    3  A    between atoms: C_4  and  C_5
REMARK    4  A    between atoms: C_5  and  C_6
REMARK    5  A    between atoms: C_6  and  C_7
REMARK    6  A    between atoms: C_7  and  C_8
REMARK    7  A    between atoms: C_21  and  C_22
REMARK    8  A    between atoms: C_22  and  N_23
REMARK    9  A    between atoms: N_23  and  C_24
REMARK   10  A    between atoms: C_24  and  C_25
REMARK   11  A    between atoms: C_25  and  C_26
REMARK   12  A    between atoms: C_29  and  O_30
REMARK                            x       y       z     vdW  Elec       q    Type
REMARK                         _______ _______ _______ _____ _____    ______ ____
ROOT
ATOM      1  C   UNL     1       2.096   6.682  19.439  0.00  0.00    +0.000 A 
ATOM      2  C   UNL     1       2.639   6.727  18.139  0.00  0.00    +0.000 A 
ATOM      3  C   UNL     1       2.760   7.931  17.450  0.00  0.00    +0.000 A 
ATOM      4  C   UNL     1       2.322   9.110  18.039  0.00  0.00    +0.000 A 
ATOM      5  C   UNL     1       1.755   9.079  19.315  0.00  0.00    +0.000 A 
ATOM      6  C   UNL     1       1.628   7.872  20.036  0.00  0.00    +0.000 A 
ENDROOT
BRANCH   1   8
ATOM      7  O   UNL     1       2.660   5.105  21.127  0.00  0.00    +0.000 OA
ATOM      8  C   UNL     1       2.009   5.351  20.120  0.00  0.00    +0.000 C 
ATOM      9  N   UNL     1       1.157   4.434  19.534  0.00  0.00    +0.000 N 
ATOM     10  H   UNL     1       0.740   4.643  18.637  0.00  0.00    +0.000 HD
BRANCH   9  11
ATOM     11  C   UNL     1       0.850   3.152  20.135  0.00  0.00    +0.000 C 
BRANCH  11  12
ATOM     12  C   UNL     1       1.563   1.989  19.440  0.00  0.00    +0.000 C 
BRANCH  12  13
ATOM     13  C   UNL     1       2.096   2.358  18.048  0.00  0.00    +0.000 C 
BRANCH  13  14
ATOM     14  C   UNL     1       3.590   2.051  17.921  0.00  0.00    +0.000 C 
BRANCH  14  15
ATOM     15  C   UNL     1       4.428   3.306  17.826  0.00  0.00    +0.000 A 
ATOM     16  C   UNL     1       5.058   3.826  18.962  0.00  0.00    +0.000 A 
ATOM     17  C   UNL     1       5.847   4.977  18.874  0.00  0.00    +0.000 A 
ATOM     18  C   UNL     1       6.012   5.624  17.647  0.00  0.00    +0.000 A 
ATOM     19 CL   UNL     1       7.015   7.031  17.608  0.00  0.00    +0.000 Cl
ATOM     20  C   UNL     1       5.377   5.122  16.507  0.00  0.00    +0.000 A 
ATOM     21 CL   UNL     1       5.526   5.873  14.957  0.00  0.00    +0.000 Cl
ATOM     22  C   UNL     1       4.585   3.969  16.599  0.00  0.00    +0.000 A 
ENDBRANCH  14  15
ENDBRANCH  13  14
ENDBRANCH  12  13
ENDBRANCH  11  12
ENDBRANCH   9  11
ENDBRANCH   1   8
BRANCH   6  23
ATOM     23  C   UNL     1       0.998   7.939  21.414  0.00  0.00    +0.000 C 
BRANCH  23  24
ATOM     24  N   UNL     1       1.447   9.047  22.258  0.00  0.00    +0.000 NA
ATOM     25  H   UNL     1       2.133   9.591  21.731  0.00  0.00    +0.000 HD
BRANCH  24  26
ATOM     26  C   UNL     1       0.381   9.913  22.761  0.00  0.00    +0.000 C 
BRANCH  26  27
ATOM     27  C   UNL     1      -0.802  10.050  21.792  0.00  0.00    +0.000 C 
BRANCH  27  28
ATOM     28  C   UNL     1      -0.661  11.292  20.953  0.00  0.00    +0.000 A 
ATOM     29  C   UNL     1      -1.305  11.382  19.710  0.00  0.00    +0.000 A 
ATOM     30  C   UNL     1      -1.108  12.497  18.895  0.00  0.00    +0.000 A 
ATOM     31  C   UNL     1      -0.270  13.519  19.328  0.00  0.00    +0.000 A 
ATOM     32  C   UNL     1       0.364  13.450  20.563  0.00  0.00    +0.000 A 
ATOM     33  C   UNL     1       0.169  12.338  21.380  0.00  0.00    +0.000 A 
BRANCH  31  34
ATOM     34  O   UNL     1      -0.032  14.613  18.554  0.00  0.00    +0.000 OA
ATOM     35  H   UNL     1       0.436  15.274  19.088  0.00  0.00    +0.000 HD
ENDBRANCH  31  34
ENDBRANCH  27  28
ENDBRANCH  26  27
ENDBRANCH  24  26
ENDBRANCH  23  24
ENDBRANCH   6  23
TORSDOF 12
ENDMDL
MODEL 8
REMARK VINA RESULT:      -7.8      2.932      6.272
REMARK  Name = 
REMARK  12 active torsions:
REMARK  status: ('A' for Active; 'I' for Inactive)
REMARK    1  A    between atoms: C_2  and  C_16
REMARK    2  A    between atoms: N_3  and  C_4
REMARK    3  A    between atoms: C_4  and  C_5
REMARK    4  A    between atoms: C_5  and  C_6
REMARK    5  A    between atoms: C_6  and  C_7
REMARK    6  A    between atoms: C_7  and  C_8
REMARK    7  A    between atoms: C_21  and  C_22
REMARK    8  A    between atoms: C_22  and  N_23
REMARK    9  A    between atoms: N_23  and  C_24
REMARK   10  A    between atoms: C_24  and  C_25
REMARK   11  A    between atoms: C_25  and  C_26
REMARK   12  A    between atoms: C_29  and  O_30
REMARK                            x       y       z     vdW  Elec       q    Type
REMARK                         _______ _______ _______ _____ _____    ______ ____
ROOT
ATOM      1  C   UNL     1       9.935  10.984  18.765  0.00  0.00    +0.000 A 
ATOM      2  C   UNL     1      10.719  11.385  17.664  0.00  0.00    +0.000 A 
ATOM      3  C   UNL     1      11.811  12.233  17.828  0.00  0.00    +0.000 A 
ATOM      4  C   UNL     1      12.129  12.712  19.093  0.00  0.00    +0.000 A 
ATOM      5  C   UNL     1      11.345  12.347  20.190  0.00  0.00    +0.000 A 
ATOM      6  C   UNL     1      10.238  11.483  20.050  0.00  0.00    +0.000 A 
ENDROOT
BRANCH   1   8
ATOM      7  O   UNL     1       7.760  10.452  17.964  0.00  0.00    +0.000 OA
ATOM      8  C   UNL     1       8.783  10.061  18.510  0.00  0.00    +0.000 C 
ATOM      9  N   UNL     1       8.958   8.757  18.934  0.00  0.00    +0.000 N 
ATOM     10  H   UNL     1       9.768   8.516  19.487  0.00  0.00    +0.000 HD
BRANCH   9  11
ATOM     11  C   UNL     1       8.005   7.704  18.645  0.00  0.00    +0.000 C 
BRANCH  11  12
ATOM     12  C   UNL     1       7.816   7.475  17.143  0.00  0.00    +0.000 C 
BRANCH  12  13
ATOM     13  C   UNL     1       6.889   6.291  16.830  0.00  0.00    +0.000 C 
BRANCH  13  14
ATOM     14  C   UNL     1       5.428   6.738  16.720  0.00  0.00    +0.000 C 
BRANCH  14  15
ATOM     15  C   UNL     1       4.473   5.732  17.321  0.00  0.00    +0.000 A 
ATOM     16  C   UNL     1       4.343   4.456  16.762  0.00  0.00    +0.000 A 
ATOM     17  C   UNL     1       3.474   3.517  17.327  0.00  0.00    +0.000 A 
ATOM     18  C   UNL     1       2.720   3.847  18.456  0.00  0.00    +0.000 A 
ATOM     19 CL   UNL     1       1.679   2.632  19.110  0.00  0.00    +0.000 Cl
ATOM     20  C   UNL     1       2.831   5.124  19.015  0.00  0.00    +0.000 A 
ATOM     21 CL   UNL     1       1.925   5.607  20.405  0.00  0.00    +0.000 Cl
ATOM     22  C   UNL     1       3.703   6.062  18.446  0.00  0.00    +0.000 A 
ENDBRANCH  14  15
ENDBRANCH  13  14
ENDBRANCH  12  13
ENDBRANCH  11  12
ENDBRANCH   9  11
ENDBRANCH   1   8
BRANCH   6  23
ATOM     23  C   UNL     1       9.446  11.147  21.299  0.00  0.00    +0.000 C 
BRANCH  23  24
ATOM     24  N   UNL     1       9.258  12.251  22.241  0.00  0.00    +0.000 NA
ATOM     25  H   UNL     1      10.023  12.915  22.109  0.00  0.00    +0.000 HD
BRANCH  24  26
ATOM     26  C   UNL     1       7.966  12.930  22.147  0.00  0.00    +0.000 C 
BRANCH  26  27
ATOM     27  C   UNL     1       8.088  14.444  21.919  0.00  0.00    +0.000 C 
BRANCH  27  28
ATOM     28  C   UNL     1       8.677  14.732  20.563  0.00  0.00    +0.000 A 
ATOM     29  C   UNL     1       9.784  15.583  20.441  0.00  0.00    +0.000 A 
ATOM     30  C   UNL     1      10.279  15.915  19.179  0.00  0.00    +0.000 A 
ATOM     31  C   UNL     1       9.666  15.393  18.046  0.00  0.00    +0.000 A 
ATOM     32  C   UNL     1       8.575  14.538  18.153  0.00  0.00    +0.000 A 
ATOM     33  C   UNL     1       8.079  14.202  19.412  0.00  0.00    +0.000 A 
BRANCH  31  34
ATOM     34  O   UNL     1      10.101  15.710  16.797  0.00  0.00    +0.000 OA
ATOM     35  H   UNL     1       9.922  16.650  16.635  0.00  0.00    +0.000 HD
ENDBRANCH  31  34
ENDBRANCH  27  28
ENDBRANCH  26  27
ENDBRANCH  24  26
ENDBRANCH  23  24
ENDBRANCH   6  23
TORSDOF 12
ENDMDL
MODEL 9
REMARK VINA RESULT:      -7.8      1.878      2.801
REMARK  Name = 
REMARK  12 active torsions:
REMARK  status: ('A' for Active; 'I' for Inactive)
REMARK    1  A    between atoms: C_2  and  C_16
REMARK    2  A    between atoms: N_3  and  C_4
REMARK    3  A    between atoms: C_4  and  C_5
REMARK    4  A    between atoms: C_5  and  C_6
REMARK    5  A    between atoms: C_6  and  C_7
REMARK    6  A    between atoms: C_7  and  C_8
REMARK    7  A    between atoms: C_21  and  C_22
REMARK    8  A    between atoms: C_22  and  N_23
REMARK    9  A    between atoms: N_23  and  C_24
REMARK   10  A    between atoms: C_24  and  C_25
REMARK   11  A    between atoms: C_25  and  C_26
REMARK   12  A    between atoms: C_29  and  O_30
REMARK                            x       y       z     vdW  Elec       q    Type
REMARK                         _______ _______ _______ _____ _____    ______ ____
ROOT
ATOM      1  C   UNL     1       5.671   4.824  17.155  0.00  0.00    +0.000 A 
ATOM      2  C   UNL     1       5.204   3.889  16.209  0.00  0.00    +0.000 A 
ATOM      3  C   UNL     1       5.840   3.729  14.980  0.00  0.00    +0.000 A 
ATOM      4  C   UNL     1       6.943   4.513  14.666  0.00  0.00    +0.000 A 
ATOM      5  C   UNL     1       7.401   5.464  15.581  0.00  0.00    +0.000 A 
ATOM      6  C   UNL     1       6.777   5.640  16.835  0.00  0.00    +0.000 A 
ENDROOT
BRANCH   1   8
ATOM      7  O   UNL     1       5.387   4.433  19.484  0.00  0.00    +0.000 OA
ATOM      8  C   UNL     1       4.941   4.931  18.458  0.00  0.00    +0.000 C 
ATOM      9  N   UNL     1       3.743   5.619  18.417  0.00  0.00    +0.000 N 
ATOM     10  H   UNL     1       3.361   5.902  17.526  0.00  0.00    +0.000 HD
BRANCH   9  11
ATOM     11  C   UNL     1       2.978   5.933  19.607  0.00  0.00    +0.000 C 
BRANCH  11  12
ATOM     12  C   UNL     1       2.269   7.287  19.511  0.00  0.00    +0.000 C 
BRANCH  12  13
ATOM     13  C   UNL     1       2.090   7.768  18.064  0.00  0.00    +0.000 C 
BRANCH  13  14
ATOM     14  C   UNL     1       2.290   9.282  17.949  0.00  0.00    +0.000 C 
BRANCH  14  15
ATOM     15  C   UNL     1       1.059  10.057  18.360  0.00  0.00    +0.000 A 
ATOM     16  C   UNL     1      -0.184   9.772  17.783  0.00  0.00    +0.000 A 
ATOM     17  C   UNL     1      -1.328  10.475  18.174  0.00  0.00    +0.000 A 
ATOM     18  C   UNL     1      -1.240  11.476  19.145  0.00  0.00    +0.000 A 
ATOM     19 CL   UNL     1      -2.697  12.292  19.592  0.00  0.00    +0.000 Cl
ATOM     20  C   UNL     1      -0.001  11.779  19.719  0.00  0.00    +0.000 A 
ATOM     21 CL   UNL     1       0.187  13.009  20.918  0.00  0.00    +0.000 Cl
ATOM     22  C   UNL     1       1.143  11.073  19.323  0.00  0.00    +0.000 A 
ENDBRANCH  14  15
ENDBRANCH  13  14
ENDBRANCH  12  13
ENDBRANCH  11  12
ENDBRANCH   9  11
ENDBRANCH   1   8
BRANCH   6  23
ATOM     23  C   UNL     1       7.346   6.699  17.760  0.00  0.00    +0.000 C 
BRANCH  23  24
ATOM     24  N   UNL     1       7.951   7.855  17.097  0.00  0.00    +0.000 NA
ATOM     25  H   UNL     1       7.525   7.949  16.173  0.00  0.00    +0.000 HD
BRANCH  24  26
ATOM     26  C   UNL     1       7.859   9.112  17.837  0.00  0.00    +0.000 C 
BRANCH  26  27
ATOM     27  C   UNL     1       8.911   9.245  18.948  0.00  0.00    +0.000 C 
BRANCH  27  28
ATOM     28  C   UNL     1       9.363  10.675  19.084  0.00  0.00    +0.000 A 
ATOM     29  C   UNL     1      10.024  11.099  20.245  0.00  0.00    +0.000 A 
ATOM     30  C   UNL     1      10.369  12.441  20.407  0.00  0.00    +0.000 A 
ATOM     31  C   UNL     1      10.055  13.353  19.405  0.00  0.00    +0.000 A 
ATOM     32  C   UNL     1       9.411  12.943  18.242  0.00  0.00    +0.000 A 
ATOM     33  C   UNL     1       9.066  11.603  18.077  0.00  0.00    +0.000 A 
BRANCH  31  34
ATOM     34  O   UNL     1      10.352  14.674  19.533  0.00  0.00    +0.000 OA
ATOM     35  H   UNL     1      10.535  15.037  18.652  0.00  0.00    +0.000 HD
ENDBRANCH  31  34
ENDBRANCH  27  28
ENDBRANCH  26  27
ENDBRANCH  24  26
ENDBRANCH  23  24
ENDBRANCH   6  23
TORSDOF 12
ENDMDL
