MODEL 1
REMARK VINA RESULT:      -7.5      0.000      0.000
REMARK  Name = 
REMARK  3 active torsions:
REMARK  status: ('A' for Active; 'I' for Inactive)
REMARK    1  A    between atoms: N_1  and  C_2
REMARK    2  A    between atoms: C_4  and  C_5
REMARK    3  A    between atoms: C_8  and  C_9
REMARK                            x       y       z     vdW  Elec       q    Type
REMARK                         _______ _______ _______ _____ _____    ______ ____
ROOT
ATOM      1  C   UNL     1       0.457  10.484  19.181  0.00  0.00    +0.000 A 
ATOM      2  C   UNL     1       1.284   9.458  18.719  0.00  0.00    +0.000 A 
ATOM      3  C   UNL     1       1.589   8.396  19.554  0.00  0.00    +0.000 A 
ATOM      4  N   UNL     1       1.148   8.328  20.831  0.00  0.00    +0.000 NA
ATOM      5  C   UNL     1       0.396   9.336  21.307  0.00  0.00    +0.000 A 
ATOM      6  C   UNL     1      -0.023   9.278  22.631  0.00  0.00    +0.000 A 
ATOM      7  C   UNL     1      -0.785  10.294  23.214  0.00  0.00    +0.000 A 
ATOM      8  C   UNL     1      -1.140  11.403  22.463  0.00  0.00    +0.000 A 
ATOM      9  C   UNL     1      -0.734  11.488  21.132  0.00  0.00    +0.000 A 
ATOM     10  C   UNL     1       0.033  10.459  20.530  0.00  0.00    +0.000 A 
ENDROOT
BRANCH   3  11
ATOM     11  C   UNL     1       2.469   7.287  19.151  0.00  0.00    +0.000 A 
ATOM     12  C   UNL     1       2.705   6.096  19.813  0.00  0.00    +0.000 A 
ATOM     13  C   UNL     1       3.664   5.273  19.150  0.00  0.00    +0.000 A 
ATOM     14  C   UNL     1       4.108   5.819  17.961  0.00  0.00    +0.000 A 
ATOM     15  S   UNL     1       3.362   7.340  17.686  0.00  0.00    +0.000 S 
BRANCH  14  16
ATOM     16  C   UNL     1       5.053   5.255  17.020  0.00  0.00    +0.000 A 
ATOM     17  C   UNL     1       4.855   4.198  16.146  0.00  0.00    +0.000 A 
ATOM     18  C   UNL     1       6.020   3.874  15.390  0.00  0.00    +0.000 A 
ATOM     19  C   UNL     1       7.072   4.708  15.688  0.00  0.00    +0.000 A 
ATOM     20  S   UNL     1       6.653   5.868  16.869  0.00  0.00    +0.000 S 
ENDBRANCH  14  16
ENDBRANCH   3  11
BRANCH   1  21
ATOM     21  N   UNL     1       0.284  11.613  18.351  0.00  0.00    +0.000 N 
ATOM     22  H   UNL     1       0.521  12.492  18.800  0.00  0.00    +0.000 HD
ATOM     23  H   UNL     1       0.720  11.530  17.440  0.00  0.00    +0.000 HD
ENDBRANCH   1  21
TORSDOF 3
ENDMDL
MODEL 2
REMARK VINA RESULT:      -7.5      2.521      8.248
REMARK  Name = 
REMARK  3 active torsions:
REMARK  status: ('A' for Active; 'I' for Inactive)
REMARK    1  A    between atoms: N_1  and  C_2
REMARK    2  A    between atoms: C_4  and  C_5
REMARK    3  A    between atoms: C_8  and  C_9
REMARK                            x       y       z     vdW  Elec       q    Type
REMARK                         _______ _______ _______ _____ _____    ______ ____
ROOT
ATOM      1  C   UNL     1       3.167   4.471  17.546  0.00  0.00    +0.000 A 
ATOM      2  C   UNL     1       2.397   5.501  18.089  0.00  0.00    +0.000 A 
ATOM      3  C   UNL     1       2.845   6.809  18.003  0.00  0.00    +0.000 A 
ATOM      4  N   UNL     1       4.034   7.133  17.443  0.00  0.00    +0.000 NA
ATOM      5  C   UNL     1       4.811   6.145  16.966  0.00  0.00    +0.000 A 
ATOM      6  C   UNL     1       6.047   6.480  16.426  0.00  0.00    +0.000 A 
ATOM      7  C   UNL     1       6.928   5.515  15.931  0.00  0.00    +0.000 A 
ATOM      8  C   UNL     1       6.575   4.176  15.975  0.00  0.00    +0.000 A 
ATOM      9  C   UNL     1       5.341   3.810  16.511  0.00  0.00    +0.000 A 
ATOM     10  C   UNL     1       4.437   4.782  17.009  0.00  0.00    +0.000 A 
ENDROOT
BRANCH   3  11
ATOM     11  C   UNL     1       2.104   7.949  18.567  0.00  0.00    +0.000 A 
ATOM     12  C   UNL     1       1.765   9.139  17.951  0.00  0.00    +0.000 A 
ATOM     13  C   UNL     1       1.086  10.042  18.824  0.00  0.00    +0.000 A 
ATOM     14  C   UNL     1       0.867   9.510  20.080  0.00  0.00    +0.000 A 
ATOM     15  S   UNL     1       1.513   7.923  20.178  0.00  0.00    +0.000 S 
BRANCH  14  16
ATOM     16  C   UNL     1       0.190  10.126  21.202  0.00  0.00    +0.000 A 
ATOM     17  C   UNL     1      -0.243   9.521  22.371  0.00  0.00    +0.000 A 
ATOM     18  C   UNL     1      -0.916  10.421  23.248  0.00  0.00    +0.000 A 
ATOM     19  C   UNL     1      -0.958  11.698  22.739  0.00  0.00    +0.000 A 
ATOM     20  S   UNL     1      -0.193  11.803  21.216  0.00  0.00    +0.000 S 
ENDBRANCH  14  16
ENDBRANCH   3  11
BRANCH   1  21
ATOM     21  N   UNL     1       2.745   3.143  17.778  0.00  0.00    +0.000 N 
ATOM     22  H   UNL     1       1.755   3.058  17.986  0.00  0.00    +0.000 HD
ATOM     23  H   UNL     1       3.033   2.485  17.063  0.00  0.00    +0.000 HD
ENDBRANCH   1  21
TORSDOF 3
ENDMDL
MODEL 3
REMARK VINA RESULT:      -7.4      2.499      8.378
REMARK  Name = 
REMARK  3 active torsions:
REMARK  status: ('A' for Active; 'I' for Inactive)
REMARK    1  A    between atoms: N_1  and  C_2
REMARK    2  A    between atoms: C_4  and  C_5
REMARK    3  A    between atoms: C_8  and  C_9
REMARK                            x       y       z     vdW  Elec       q    Type
REMARK                         _______ _______ _______ _____ _____    ______ ____
ROOT
ATOM      1  C   UNL     1       4.666   4.485  18.522  0.00  0.00    +0.000 A 
ATOM      2  C   UNL     1       3.790   5.447  19.027  0.00  0.00    +0.000 A 
ATOM      3  C   UNL     1       3.424   6.523  18.235  0.00  0.00    +0.000 A 
ATOM      4  N   UNL     1       3.919   6.707  16.989  0.00  0.00    +0.000 NA
ATOM      5  C   UNL     1       4.807   5.818  16.511  0.00  0.00    +0.000 A 
ATOM      6  C   UNL     1       5.339   6.033  15.245  0.00  0.00    +0.000 A 
ATOM      7  C   UNL     1       6.286   5.173  14.682  0.00  0.00    +0.000 A 
ATOM      8  C   UNL     1       6.721   4.068  15.396  0.00  0.00    +0.000 A 
ATOM      9  C   UNL     1       6.203   3.828  16.668  0.00  0.00    +0.000 A 
ATOM     10  C   UNL     1       5.237   4.690  17.245  0.00  0.00    +0.000 A 
ENDROOT
BRANCH   3  11
ATOM     11  C   UNL     1       2.522   7.590  18.699  0.00  0.00    +0.000 A 
ATOM     12  C   UNL     1       2.008   8.652  17.977  0.00  0.00    +0.000 A 
ATOM     13  C   UNL     1       1.204   9.525  18.770  0.00  0.00    +0.000 A 
ATOM     14  C   UNL     1       1.070   9.091  20.076  0.00  0.00    +0.000 A 
ATOM     15  S   UNL     1       1.946   7.635  20.316  0.00  0.00    +0.000 S 
BRANCH  14  16
ATOM     16  C   UNL     1       0.311   9.707  21.145  0.00  0.00    +0.000 A 
ATOM     17  C   UNL     1       0.080   9.212  22.417  0.00  0.00    +0.000 A 
ATOM     18  C   UNL     1      -0.752  10.062  23.204  0.00  0.00    +0.000 A 
ATOM     19  C   UNL     1      -1.114  11.199  22.520  0.00  0.00    +0.000 A 
ATOM     20  S   UNL     1      -0.456  11.233  20.944  0.00  0.00    +0.000 S 
ENDBRANCH  14  16
ENDBRANCH   3  11
BRANCH   1  21
ATOM     21  N   UNL     1       5.122   3.483  19.406  0.00  0.00    +0.000 N 
ATOM     22  H   UNL     1       5.798   3.814  20.088  0.00  0.00    +0.000 HD
ATOM     23  H   UNL     1       4.381   2.948  19.845  0.00  0.00    +0.000 HD
ENDBRANCH   1  21
TORSDOF 3
ENDMDL
MODEL 4
REMARK VINA RESULT:      -7.3      2.809      7.919
REMARK  Name = 
REMARK  3 active torsions:
REMARK  status: ('A' for Active; 'I' for Inactive)
REMARK    1  A    between atoms: N_1  and  C_2
REMARK    2  A    between atoms: C_4  and  C_5
REMARK    3  A    between atoms: C_8  and  C_9
REMARK                            x       y       z     vdW  Elec       q    Type
REMARK                         _______ _______ _______ _____ _____    ______ ____
ROOT
ATOM      1  C   UNL     1       4.327   5.389  17.461  0.00  0.00    +0.000 A 
ATOM      2  C   UNL     1       3.797   6.647  17.755  0.00  0.00    +0.000 A 
ATOM      3  C   UNL     1       2.675   6.745  18.562  0.00  0.00    +0.000 A 
ATOM      4  N   UNL     1       2.036   5.656  19.051  0.00  0.00    +0.000 NA
ATOM      5  C   UNL     1       2.504   4.437  18.729  0.00  0.00    +0.000 A 
ATOM      6  C   UNL     1       1.822   3.323  19.205  0.00  0.00    +0.000 A 
ATOM      7  C   UNL     1       2.224   2.020  18.899  0.00  0.00    +0.000 A 
ATOM      8  C   UNL     1       3.334   1.815  18.095  0.00  0.00    +0.000 A 
ATOM      9  C   UNL     1       4.038   2.914  17.605  0.00  0.00    +0.000 A 
ATOM     10  C   UNL     1       3.642   4.239  17.916  0.00  0.00    +0.000 A 
ENDROOT
BRANCH   3  11
ATOM     11  C   UNL     1       2.042   8.029  18.902  0.00  0.00    +0.000 A 
ATOM     12  C   UNL     1       1.877   9.142  18.099  0.00  0.00    +0.000 A 
ATOM     13  C   UNL     1       1.262  10.234  18.783  0.00  0.00    +0.000 A 
ATOM     14  C   UNL     1       0.916   9.925  20.084  0.00  0.00    +0.000 A 
ATOM     15  S   UNL     1       1.368   8.311  20.456  0.00  0.00    +0.000 S 
BRANCH  14  16
ATOM     16  C   UNL     1       0.257  10.772  21.056  0.00  0.00    +0.000 A 
ATOM     17  C   UNL     1      -0.508  10.383  22.143  0.00  0.00    +0.000 A 
ATOM     18  C   UNL     1      -1.047  11.486  22.869  0.00  0.00    +0.000 A 
ATOM     19  C   UNL     1      -0.659  12.691  22.331  0.00  0.00    +0.000 A 
ATOM     20  S   UNL     1       0.345  12.487  20.965  0.00  0.00    +0.000 S 
ENDBRANCH  14  16
ENDBRANCH   3  11
BRANCH   1  21
ATOM     21  N   UNL     1       5.383   5.324  16.526  0.00  0.00    +0.000 N 
ATOM     22  H   UNL     1       5.195   4.714  15.736  0.00  0.00    +0.000 HD
ATOM     23  H   UNL     1       5.728   6.228  16.224  0.00  0.00    +0.000 HD
ENDBRANCH   1  21
TORSDOF 3
ENDMDL
MODEL 5
REMARK VINA RESULT:      -7.2      2.634      8.154
REMARK  Name = 
REMARK  3 active torsions:
REMARK  status: ('A' for Active; 'I' for Inactive)
REMARK    1  A    between atoms: N_1  and  C_2
REMARK    2  A    between atoms: C_4  and  C_5
REMARK    3  A    between atoms: C_8  and  C_9
REMARK                            x       y       z     vdW  Elec       q    Type
REMARK                         _______ _______ _______ _____ _____    ______ ____
ROOT
ATOM      1  C   UNL     1       4.659   4.348  18.611  0.00  0.00    +0.000 A 
ATOM      2  C   UNL     1       3.792   5.262  19.212  0.00  0.00    +0.000 A 
ATOM      3  C   UNL     1       3.392   6.389  18.513  0.00  0.00    +0.000 A 
ATOM      4  N   UNL     1       3.845   6.668  17.269  0.00  0.00    +0.000 NA
ATOM      5  C   UNL     1       4.724   5.825  16.699  0.00  0.00    +0.000 A 
ATOM      6  C   UNL     1       5.213   6.137  15.436  0.00  0.00    +0.000 A 
ATOM      7  C   UNL     1       6.147   5.331  14.781  0.00  0.00    +0.000 A 
ATOM      8  C   UNL     1       6.614   4.181  15.399  0.00  0.00    +0.000 A 
ATOM      9  C   UNL     1       6.140   3.843  16.665  0.00  0.00    +0.000 A 
ATOM     10  C   UNL     1       5.186   4.651  17.334  0.00  0.00    +0.000 A 
ENDROOT
BRANCH   3  11
ATOM     11  C   UNL     1       2.498   7.410  19.082  0.00  0.00    +0.000 A 
ATOM     12  C   UNL     1       1.991   7.486  20.366  0.00  0.00    +0.000 A 
ATOM     13  C   UNL     1       1.108   8.592  20.551  0.00  0.00    +0.000 A 
ATOM     14  C   UNL     1       0.992   9.379  19.421  0.00  0.00    +0.000 A 
ATOM     15  S   UNL     1       1.949   8.741  18.147  0.00  0.00    +0.000 S 
BRANCH  14  16
ATOM     16  C   UNL     1       0.212  10.587  19.253  0.00  0.00    +0.000 A 
ATOM     17  C   UNL     1      -0.848  10.802  18.388  0.00  0.00    +0.000 A 
ATOM     18  C   UNL     1      -1.360  12.131  18.452  0.00  0.00    +0.000 A 
ATOM     19  C   UNL     1      -0.694  12.892  19.384  0.00  0.00    +0.000 A 
ATOM     20  S   UNL     1       0.537  12.006  20.170  0.00  0.00    +0.000 S 
ENDBRANCH  14  16
ENDBRANCH   3  11
BRANCH   1  21
ATOM     21  N   UNL     1       5.151   3.289  19.404  0.00  0.00    +0.000 N 
ATOM     22  H   UNL     1       6.133   3.082  19.248  0.00  0.00    +0.000 HD
ATOM     23  H   UNL     1       4.941   3.377  20.392  0.00  0.00    +0.000 HD
ENDBRANCH   1  21
TORSDOF 3
ENDMDL
MODEL 6
REMARK VINA RESULT:      -7.1      2.595      8.079
REMARK  Name = 
REMARK  3 active torsions:
REMARK  status: ('A' for Active; 'I' for Inactive)
REMARK    1  A    between atoms: N_1  and  C_2
REMARK    2  A    between atoms: C_4  and  C_5
REMARK    3  A    between atoms: C_8  and  C_9
REMARK                            x       y       z     vdW  Elec       q    Type
REMARK                         _______ _______ _______ _____ _____    ______ ____
ROOT
ATOM      1  C   UNL     1       3.025   4.359  17.566  0.00  0.00    +0.000 A 
ATOM      2  C   UNL     1       2.306   5.362  18.219  0.00  0.00    +0.000 A 
ATOM      3  C   UNL     1       2.791   6.659  18.226  0.00  0.00    +0.000 A 
ATOM      4  N   UNL     1       3.971   6.994  17.655  0.00  0.00    +0.000 NA
ATOM      5  C   UNL     1       4.702   6.028  17.071  0.00  0.00    +0.000 A 
ATOM      6  C   UNL     1       5.930   6.372  16.519  0.00  0.00    +0.000 A 
ATOM      7  C   UNL     1       6.764   5.428  15.916  0.00  0.00    +0.000 A 
ATOM      8  C   UNL     1       6.371   4.100  15.861  0.00  0.00    +0.000 A 
ATOM      9  C   UNL     1       5.143   3.726  16.406  0.00  0.00    +0.000 A 
ATOM     10  C   UNL     1       4.287   4.679  17.013  0.00  0.00    +0.000 A 
ENDROOT
BRANCH   3  11
ATOM     11  C   UNL     1       2.104   7.768  18.907  0.00  0.00    +0.000 A 
ATOM     12  C   UNL     1       1.749   7.867  20.240  0.00  0.00    +0.000 A 
ATOM     13  C   UNL     1       1.044   9.071  20.539  0.00  0.00    +0.000 A 
ATOM     14  C   UNL     1       0.916   9.903  19.443  0.00  0.00    +0.000 A 
ATOM     15  S   UNL     1       1.641   9.189  18.061  0.00  0.00    +0.000 S 
BRANCH  14  16
ATOM     16  C   UNL     1       0.289  11.207  19.384  0.00  0.00    +0.000 A 
ATOM     17  C   UNL     1      -1.024  11.533  19.680  0.00  0.00    +0.000 A 
ATOM     18  C   UNL     1      -1.317  12.913  19.468  0.00  0.00    +0.000 A 
ATOM     19  C   UNL     1      -0.213  13.611  19.039  0.00  0.00    +0.000 A 
ATOM     20  S   UNL     1       1.161  12.606  18.894  0.00  0.00    +0.000 S 
ENDBRANCH  14  16
ENDBRANCH   3  11
BRANCH   1  21
ATOM     21  N   UNL     1       2.570   3.030  17.700  0.00  0.00    +0.000 N 
ATOM     22  H   UNL     1       2.564   2.508  16.829  0.00  0.00    +0.000 HD
ATOM     23  H   UNL     1       3.021   2.508  18.444  0.00  0.00    +0.000 HD
ENDBRANCH   1  21
TORSDOF 3
ENDMDL
MODEL 7
REMARK VINA RESULT:      -7.0      1.039      1.184
REMARK  Name = 
REMARK  3 active torsions:
REMARK  status: ('A' for Active; 'I' for Inactive)
REMARK    1  A    between atoms: N_1  and  C_2
REMARK    2  A    between atoms: C_4  and  C_5
REMARK    3  A    between atoms: C_8  and  C_9
REMARK                            x       y       z     vdW  Elec       q    Type
REMARK                         _______ _______ _______ _____ _____    ______ ____
ROOT
ATOM      1  C   UNL     1       0.186  11.300  19.178  0.00  0.00    +0.000 A 
ATOM      2  C   UNL     1       0.976  10.229  18.755  0.00  0.00    +0.000 A 
ATOM      3  C   UNL     1       1.170   9.147  19.598  0.00  0.00    +0.000 A 
ATOM      4  N   UNL     1       0.654   9.100  20.848  0.00  0.00    +0.000 NA
ATOM      5  C   UNL     1      -0.062  10.149  21.288  0.00  0.00    +0.000 A 
ATOM      6  C   UNL     1      -0.558  10.111  22.586  0.00  0.00    +0.000 A 
ATOM      7  C   UNL     1      -1.290  11.168  23.134  0.00  0.00    +0.000 A 
ATOM      8  C   UNL     1      -1.536  12.300  22.372  0.00  0.00    +0.000 A 
ATOM      9  C   UNL     1      -1.051  12.365  21.067  0.00  0.00    +0.000 A 
ATOM     10  C   UNL     1      -0.314  11.295  20.500  0.00  0.00    +0.000 A 
ENDROOT
BRANCH   3  11
ATOM     11  C   UNL     1       2.003   7.988  19.236  0.00  0.00    +0.000 A 
ATOM     12  C   UNL     1       2.246   6.844  19.973  0.00  0.00    +0.000 A 
ATOM     13  C   UNL     1       3.151   5.950  19.328  0.00  0.00    +0.000 A 
ATOM     14  C   UNL     1       3.548   6.395  18.081  0.00  0.00    +0.000 A 
ATOM     15  S   UNL     1       2.822   7.911  17.729  0.00  0.00    +0.000 S 
BRANCH  14  16
ATOM     16  C   UNL     1       4.431   5.739  17.140  0.00  0.00    +0.000 A 
ATOM     17  C   UNL     1       5.121   6.308  16.082  0.00  0.00    +0.000 A 
ATOM     18  C   UNL     1       5.868   5.356  15.327  0.00  0.00    +0.000 A 
ATOM     19  C   UNL     1       5.749   4.087  15.843  0.00  0.00    +0.000 A 
ATOM     20  S   UNL     1       4.745   4.050  17.224  0.00  0.00    +0.000 S 
ENDBRANCH  14  16
ENDBRANCH   3  11
BRANCH   1  21
ATOM     21  N   UNL     1       0.128  12.441  18.348  0.00  0.00    +0.000 N 
ATOM     22  H   UNL     1      -0.015  13.310  18.854  0.00  0.00    +0.000 HD
ATOM     23  H   UNL     1       0.895  12.516  17.689  0.00  0.00    +0.000 HD
ENDBRANCH   1  21
TORSDOF 3
ENDMDL
MODEL 8
REMARK VINA RESULT:      -7.0      2.461      8.235
REMARK  Name = 
REMARK  3 active torsions:
REMARK  status: ('A' for Active; 'I' for Inactive)
REMARK    1  A    between atoms: N_1  and  C_2
REMARK    2  A    between atoms: C_4  and  C_5
REMARK    3  A    between atoms: C_8  and  C_9
REMARK                            x       y       z     vdW  Elec       q    Type
REMARK                         _______ _______ _______ _____ _____    ______ ____
ROOT
ATOM      1  C   UNL     1       3.914   3.456  17.689  0.00  0.00    +0.000 A 
ATOM      2  C   UNL     1       3.190   4.299  18.534  0.00  0.00    +0.000 A 
ATOM      3  C   UNL     1       3.217   5.668  18.323  0.00  0.00    +0.000 A 
ATOM      4  N   UNL     1       3.959   6.236  17.345  0.00  0.00    +0.000 NA
ATOM      5  C   UNL     1       4.705   5.440  16.559  0.00  0.00    +0.000 A 
ATOM      6  C   UNL     1       5.494   6.032  15.579  0.00  0.00    +0.000 A 
ATOM      7  C   UNL     1       6.318   5.283  14.735  0.00  0.00    +0.000 A 
ATOM      8  C   UNL     1       6.365   3.904  14.868  0.00  0.00    +0.000 A 
ATOM      9  C   UNL     1       5.584   3.283  15.842  0.00  0.00    +0.000 A 
ATOM     10  C   UNL     1       4.739   4.034  16.697  0.00  0.00    +0.000 A 
ENDROOT
BRANCH   3  11
ATOM     11  C   UNL     1       2.499   6.625  19.180  0.00  0.00    +0.000 A 
ATOM     12  C   UNL     1       2.019   6.435  20.462  0.00  0.00    +0.000 A 
ATOM     13  C   UNL     1       1.323   7.573  20.970  0.00  0.00    +0.000 A 
ATOM     14  C   UNL     1       1.326   8.639  20.090  0.00  0.00    +0.000 A 
ATOM     15  S   UNL     1       2.162   8.223  18.650  0.00  0.00    +0.000 S 
BRANCH  14  16
ATOM     16  C   UNL     1       0.745   9.952  20.279  0.00  0.00    +0.000 A 
ATOM     17  C   UNL     1       0.192  10.478  21.434  0.00  0.00    +0.000 A 
ATOM     18  C   UNL     1      -0.331  11.793  21.253  0.00  0.00    +0.000 A 
ATOM     19  C   UNL     1      -0.141  12.247  19.969  0.00  0.00    +0.000 A 
ATOM     20  S   UNL     1       0.660  11.094  18.996  0.00  0.00    +0.000 S 
ENDBRANCH  14  16
ENDBRANCH   3  11
BRANCH   1  21
ATOM     21  N   UNL     1       3.972   2.085  18.021  0.00  0.00    +0.000 N 
ATOM     22  H   UNL     1       4.421   1.897  18.912  0.00  0.00    +0.000 HD
ATOM     23  H   UNL     1       3.085   1.600  17.942  0.00  0.00    +0.000 HD
ENDBRANCH   1  21
TORSDOF 3
ENDMDL
MODEL 9
REMARK VINA RESULT:      -7.0      1.212      2.257
REMARK  Name = 
REMARK  3 active torsions:
REMARK  status: ('A' for Active; 'I' for Inactive)
REMARK    1  A    between atoms: N_1  and  C_2
REMARK    2  A    between atoms: C_4  and  C_5
REMARK    3  A    between atoms: C_8  and  C_9
REMARK                            x       y       z     vdW  Elec       q    Type
REMARK                         _______ _______ _______ _____ _____    ______ ____
ROOT
ATOM      1  C   UNL     1       0.329   9.466  22.108  0.00  0.00    +0.000 A 
ATOM      2  C   UNL     1       1.047   8.386  21.592  0.00  0.00    +0.000 A 
ATOM      3  C   UNL     1       1.398   8.376  20.251  0.00  0.00    +0.000 A 
ATOM      4  N   UNL     1       1.032   9.361  19.399  0.00  0.00    +0.000 NA
ATOM      5  C   UNL     1       0.292  10.380  19.871  0.00  0.00    +0.000 A 
ATOM      6  C   UNL     1      -0.111  11.370  18.983  0.00  0.00    +0.000 A 
ATOM      7  C   UNL     1      -0.902  12.450  19.383  0.00  0.00    +0.000 A 
ATOM      8  C   UNL     1      -1.309  12.550  20.704  0.00  0.00    +0.000 A 
ATOM      9  C   UNL     1      -0.919  11.572  21.617  0.00  0.00    +0.000 A 
ATOM     10  C   UNL     1      -0.110  10.477  21.222  0.00  0.00    +0.000 A 
ENDROOT
BRANCH   3  11
ATOM     11  C   UNL     1       2.136   7.268  19.625  0.00  0.00    +0.000 A 
ATOM     12  C   UNL     1       2.262   5.964  20.066  0.00  0.00    +0.000 A 
ATOM     13  C   UNL     1       3.102   5.171  19.227  0.00  0.00    +0.000 A 
ATOM     14  C   UNL     1       3.565   5.865  18.125  0.00  0.00    +0.000 A 
ATOM     15  S   UNL     1       2.983   7.479  18.146  0.00  0.00    +0.000 S 
BRANCH  14  16
ATOM     16  C   UNL     1       4.411   5.376  17.057  0.00  0.00    +0.000 A 
ATOM     17  C   UNL     1       4.723   4.062  16.752  0.00  0.00    +0.000 A 
ATOM     18  C   UNL     1       5.626   3.942  15.655  0.00  0.00    +0.000 A 
ATOM     19  C   UNL     1       5.963   5.169  15.134  0.00  0.00    +0.000 A 
ATOM     20  S   UNL     1       5.195   6.449  15.963  0.00  0.00    +0.000 S 
ENDBRANCH  14  16
ENDBRANCH   3  11
BRANCH   1  21
ATOM     21  N   UNL     1      -0.128   9.374  23.441  0.00  0.00    +0.000 N 
ATOM     22  H   UNL     1       0.065  10.200  23.999  0.00  0.00    +0.000 HD
ATOM     23  H   UNL     1      -1.095   9.081  23.531  0.00  0.00    +0.000 HD
ENDBRANCH   1  21
TORSDOF 3
ENDMDL
