MODEL 1
REMARK VINA RESULT:      -7.7      0.000      0.000
REMARK  Name = 
REMARK  5 active torsions:
REMARK  status: ('A' for Active; 'I' for Inactive)
REMARK    1  A    between atoms: N_8  and  C_9
REMARK    2  A    between atoms: C_9  and  C_10
REMARK    3  A    between atoms: C_10  and  O_11
REMARK    4  A    between atoms: C_10  and  C_12
REMARK    5  A    between atoms: C_15  and  C_16
REMARK                            x       y       z     vdW  Elec       q    Type
REMARK                         _______ _______ _______ _____ _____    ______ ____
ROOT
ATOM      1  C   UNL     1       2.545   5.169  18.778  0.00  0.00    +0.000 C 
ENDROOT
BRANCH   1   9
ATOM      2  N   UNL     1       7.732   4.618  16.028  0.00  0.00    +0.000 N 
ATOM      3  C   UNL     1       7.350   4.627  17.329  0.00  0.00    +0.000 C 
ATOM      4  O   UNL     1       8.176   4.332  18.187  0.00  0.00    +0.000 OA
ATOM      5  N   UNL     1       6.046   4.984  17.583  0.00  0.00    +0.000 N 
ATOM      6  C   UNL     1       5.028   5.188  16.559  0.00  0.00    +0.000 C 
ATOM      7  C   UNL     1       4.178   3.957  16.267  0.00  0.00    +0.000 C 
ATOM      8  C   UNL     1       3.466   3.255  17.433  0.00  0.00    +0.000 C 
ATOM      9  N   UNL     1       3.315   3.916  18.726  0.00  0.00    +0.000 NA
ATOM     10  C   UNL     1       4.608   4.000  19.434  0.00  0.00    +0.000 C 
ATOM     11  C   UNL     1       5.612   5.080  18.981  0.00  0.00    +0.000 C 
ATOM     12  H   UNL     1       8.721   4.424  15.935  0.00  0.00    +0.000 HD
ATOM     13  H   UNL     1       7.441   5.404  15.468  0.00  0.00    +0.000 HD
ENDBRANCH   1   9
BRANCH   1  14
ATOM     14  C   UNL     1       2.688   6.108  20.015  0.00  0.00    +0.000 C 
BRANCH  14  15
ATOM     15  C   UNL     1       2.060   7.465  19.717  0.00  0.00    +0.000 A 
ATOM     16  C   UNL     1       1.393   8.176  20.723  0.00  0.00    +0.000 A 
ATOM     17  C   UNL     1       0.843   9.435  20.465  0.00  0.00    +0.000 A 
ATOM     18  C   UNL     1       0.946  10.015  19.193  0.00  0.00    +0.000 A 
ATOM     19  C   UNL     1       1.605   9.306  18.180  0.00  0.00    +0.000 A 
ATOM     20  C   UNL     1       2.154   8.048  18.439  0.00  0.00    +0.000 A 
BRANCH  18  21
ATOM     21  C   UNL     1       0.370  11.378  18.895  0.00  0.00    +0.000 C 
ATOM     22  F   UNL     1       1.264  12.238  18.326  0.00  0.00    +0.000 F 
ATOM     23  F   UNL     1      -0.689  11.318  18.041  0.00  0.00    +0.000 F 
ATOM     24  F   UNL     1      -0.090  12.006  20.014  0.00  0.00    +0.000 F 
ENDBRANCH  18  21
ENDBRANCH  14  15
BRANCH  14  25
ATOM     25  O   UNL     1       2.064   5.594  21.191  0.00  0.00    +0.000 OA
ATOM     26  H   UNL     1       1.590   4.786  20.948  0.00  0.00    +0.000 HD
ENDBRANCH  14  25
ENDBRANCH   1  14
TORSDOF 5
ENDMDL
MODEL 2
REMARK VINA RESULT:      -7.7      0.268      1.236
REMARK  Name = 
REMARK  5 active torsions:
REMARK  status: ('A' for Active; 'I' for Inactive)
REMARK    1  A    between atoms: N_8  and  C_9
REMARK    2  A    between atoms: C_9  and  C_10
REMARK    3  A    between atoms: C_10  and  O_11
REMARK    4  A    between atoms: C_10  and  C_12
REMARK    5  A    between atoms: C_15  and  C_16
REMARK                            x       y       z     vdW  Elec       q    Type
REMARK                         _______ _______ _______ _____ _____    ______ ____
ROOT
ATOM      1  C   UNL     1       2.563   5.179  18.807  0.00  0.00    +0.000 C 
ENDROOT
BRANCH   1   9
ATOM      2  N   UNL     1       7.733   4.593  16.032  0.00  0.00    +0.000 N 
ATOM      3  C   UNL     1       7.358   4.608  17.335  0.00  0.00    +0.000 C 
ATOM      4  O   UNL     1       8.186   4.310  18.190  0.00  0.00    +0.000 OA
ATOM      5  N   UNL     1       6.057   4.971  17.595  0.00  0.00    +0.000 N 
ATOM      6  C   UNL     1       5.035   5.178  16.576  0.00  0.00    +0.000 C 
ATOM      7  C   UNL     1       4.177   3.951  16.292  0.00  0.00    +0.000 C 
ATOM      8  C   UNL     1       3.467   3.256  17.463  0.00  0.00    +0.000 C 
ATOM      9  N   UNL     1       3.326   3.922  18.754  0.00  0.00    +0.000 NA
ATOM     10  C   UNL     1       4.624   4.001  19.456  0.00  0.00    +0.000 C 
ATOM     11  C   UNL     1       5.630   5.075  18.995  0.00  0.00    +0.000 C 
ATOM     12  H   UNL     1       8.721   4.393  15.935  0.00  0.00    +0.000 HD
ATOM     13  H   UNL     1       7.443   5.378  15.471  0.00  0.00    +0.000 HD
ENDBRANCH   1   9
BRANCH   1  14
ATOM     14  C   UNL     1       2.733   6.131  20.031  0.00  0.00    +0.000 C 
BRANCH  14  15
ATOM     15  C   UNL     1       2.046   7.465  19.755  0.00  0.00    +0.000 A 
ATOM     16  C   UNL     1       2.067   8.022  18.470  0.00  0.00    +0.000 A 
ATOM     17  C   UNL     1       1.412   9.228  18.203  0.00  0.00    +0.000 A 
ATOM     18  C   UNL     1       0.720   9.907  19.215  0.00  0.00    +0.000 A 
ATOM     19  C   UNL     1       0.702   9.359  20.504  0.00  0.00    +0.000 A 
ATOM     20  C   UNL     1       1.356   8.154  20.770  0.00  0.00    +0.000 A 
BRANCH  18  21
ATOM     21  C   UNL     1      -0.004  11.204  18.947  0.00  0.00    +0.000 C 
ATOM     22  F   UNL     1      -0.752  11.188  17.806  0.00  0.00    +0.000 F 
ATOM     23  F   UNL     1      -0.860  11.537  19.953  0.00  0.00    +0.000 F 
ATOM     24  F   UNL     1       0.848  12.260  18.819  0.00  0.00    +0.000 F 
ENDBRANCH  18  21
ENDBRANCH  14  15
BRANCH  14  25
ATOM     25  O   UNL     1       2.181   5.604  21.237  0.00  0.00    +0.000 OA
ATOM     26  H   UNL     1       1.314   6.012  21.371  0.00  0.00    +0.000 HD
ENDBRANCH  14  25
ENDBRANCH   1  14
TORSDOF 5
ENDMDL
MODEL 3
REMARK VINA RESULT:      -7.6      2.162      3.088
REMARK  Name = 
REMARK  5 active torsions:
REMARK  status: ('A' for Active; 'I' for Inactive)
REMARK    1  A    between atoms: N_8  and  C_9
REMARK    2  A    between atoms: C_9  and  C_10
REMARK    3  A    between atoms: C_10  and  O_11
REMARK    4  A    between atoms: C_10  and  C_12
REMARK    5  A    between atoms: C_15  and  C_16
REMARK                            x       y       z     vdW  Elec       q    Type
REMARK                         _______ _______ _______ _____ _____    ______ ____
ROOT
ATOM      1  C   UNL     1       3.387   4.072  17.007  0.00  0.00    +0.000 C 
ENDROOT
BRANCH   1   9
ATOM      2  N   UNL     1       7.922   7.842  17.011  0.00  0.00    +0.000 N 
ATOM      3  C   UNL     1       7.451   6.932  17.899  0.00  0.00    +0.000 C 
ATOM      4  O   UNL     1       8.125   6.673  18.890  0.00  0.00    +0.000 OA
ATOM      5  N   UNL     1       6.228   6.372  17.612  0.00  0.00    +0.000 N 
ATOM      6  C   UNL     1       5.499   6.566  16.364  0.00  0.00    +0.000 C 
ATOM      7  C   UNL     1       5.751   5.487  15.318  0.00  0.00    +0.000 C 
ATOM      8  C   UNL     1       5.538   4.016  15.703  0.00  0.00    +0.000 C 
ATOM      9  N   UNL     1       4.797   3.658  16.910  0.00  0.00    +0.000 NA
ATOM     10  C   UNL     1       5.577   3.969  18.125  0.00  0.00    +0.000 C 
ATOM     11  C   UNL     1       5.645   5.440  18.584  0.00  0.00    +0.000 C 
ATOM     12  H   UNL     1       8.784   8.261  17.334  0.00  0.00    +0.000 HD
ATOM     13  H   UNL     1       7.263   8.528  16.676  0.00  0.00    +0.000 HD
ENDBRANCH   1   9
BRANCH   1  14
ATOM     14  C   UNL     1       2.574   3.733  18.293  0.00  0.00    +0.000 C 
BRANCH  14  15
ATOM     15  C   UNL     1       2.225   5.015  19.043  0.00  0.00    +0.000 A 
ATOM     16  C   UNL     1       2.380   6.263  18.427  0.00  0.00    +0.000 A 
ATOM     17  C   UNL     1       2.032   7.440  19.098  0.00  0.00    +0.000 A 
ATOM     18  C   UNL     1       1.519   7.396  20.401  0.00  0.00    +0.000 A 
ATOM     19  C   UNL     1       1.368   6.152  21.026  0.00  0.00    +0.000 A 
ATOM     20  C   UNL     1       1.716   4.977  20.355  0.00  0.00    +0.000 A 
BRANCH  18  21
ATOM     21  C   UNL     1       1.124   8.653  21.139  0.00  0.00    +0.000 C 
ATOM     22  F   UNL     1      -0.181   8.668  21.537  0.00  0.00    +0.000 F 
ATOM     23  F   UNL     1       1.863   8.844  22.267  0.00  0.00    +0.000 F 
ATOM     24  F   UNL     1       1.297   9.776  20.387  0.00  0.00    +0.000 F 
ENDBRANCH  18  21
ENDBRANCH  14  15
BRANCH  14  25
ATOM     25  O   UNL     1       1.352   3.045  18.025  0.00  0.00    +0.000 OA
ATOM     26  H   UNL     1       1.462   2.553  17.199  0.00  0.00    +0.000 HD
ENDBRANCH  14  25
ENDBRANCH   1  14
TORSDOF 5
ENDMDL
MODEL 4
REMARK VINA RESULT:      -7.5      2.118      2.820
REMARK  Name = 
REMARK  5 active torsions:
REMARK  status: ('A' for Active; 'I' for Inactive)
REMARK    1  A    between atoms: N_8  and  C_9
REMARK    2  A    between atoms: C_9  and  C_10
REMARK    3  A    between atoms: C_10  and  O_11
REMARK    4  A    between atoms: C_10  and  C_12
REMARK    5  A    between atoms: C_15  and  C_16
REMARK                            x       y       z     vdW  Elec       q    Type
REMARK                         _______ _______ _______ _____ _____    ______ ____
ROOT
ATOM      1  C   UNL     1       3.384   4.108  17.168  0.00  0.00    +0.000 C 
ENDROOT
BRANCH   1   9
ATOM      2  N   UNL     1       7.869   7.933  17.021  0.00  0.00    +0.000 N 
ATOM      3  C   UNL     1       7.465   6.988  17.905  0.00  0.00    +0.000 C 
ATOM      4  O   UNL     1       8.202   6.704  18.843  0.00  0.00    +0.000 OA
ATOM      5  N   UNL     1       6.232   6.422  17.675  0.00  0.00    +0.000 N 
ATOM      6  C   UNL     1       5.425   6.649  16.483  0.00  0.00    +0.000 C 
ATOM      7  C   UNL     1       5.622   5.610  15.386  0.00  0.00    +0.000 C 
ATOM      8  C   UNL     1       5.449   4.123  15.733  0.00  0.00    +0.000 C 
ATOM      9  N   UNL     1       4.789   3.715  16.969  0.00  0.00    +0.000 NA
ATOM     10  C   UNL     1       5.640   3.995  18.144  0.00  0.00    +0.000 C 
ATOM     11  C   UNL     1       5.721   5.450  18.649  0.00  0.00    +0.000 C 
ATOM     12  H   UNL     1       8.746   8.352  17.305  0.00  0.00    +0.000 HD
ATOM     13  H   UNL     1       7.184   8.621  16.752  0.00  0.00    +0.000 HD
ENDBRANCH   1   9
BRANCH   1  14
ATOM     14  C   UNL     1       2.681   3.788  18.523  0.00  0.00    +0.000 C 
BRANCH  14  15
ATOM     15  C   UNL     1       2.250   5.082  19.206  0.00  0.00    +0.000 A 
ATOM     16  C   UNL     1       1.646   5.051  20.469  0.00  0.00    +0.000 A 
ATOM     17  C   UNL     1       1.278   6.235  21.116  0.00  0.00    +0.000 A 
ATOM     18  C   UNL     1       1.506   7.480  20.514  0.00  0.00    +0.000 A 
ATOM     19  C   UNL     1       2.103   7.518  19.247  0.00  0.00    +0.000 A 
ATOM     20  C   UNL     1       2.470   6.334  18.603  0.00  0.00    +0.000 A 
BRANCH  18  21
ATOM     21  C   UNL     1       1.128   8.772  21.198  0.00  0.00    +0.000 C 
ATOM     22  F   UNL     1       1.918   9.076  22.268  0.00  0.00    +0.000 F 
ATOM     23  F   UNL     1       1.201   9.843  20.360  0.00  0.00    +0.000 F 
ATOM     24  F   UNL     1      -0.150   8.757  21.671  0.00  0.00    +0.000 F 
ENDBRANCH  18  21
ENDBRANCH  14  15
BRANCH  14  25
ATOM     25  O   UNL     1       1.520   2.971  18.379  0.00  0.00    +0.000 OA
ATOM     26  H   UNL     1       0.757   3.554  18.262  0.00  0.00    +0.000 HD
ENDBRANCH  14  25
ENDBRANCH   1  14
TORSDOF 5
ENDMDL
MODEL 5
REMARK VINA RESULT:      -7.5      5.265      7.567
REMARK  Name = 
REMARK  5 active torsions:
REMARK  status: ('A' for Active; 'I' for Inactive)
REMARK    1  A    between atoms: N_8  and  C_9
REMARK    2  A    between atoms: C_9  and  C_10
REMARK    3  A    between atoms: C_10  and  O_11
REMARK    4  A    between atoms: C_10  and  C_12
REMARK    5  A    between atoms: C_15  and  C_16
REMARK                            x       y       z     vdW  Elec       q    Type
REMARK                         _______ _______ _______ _____ _____    ______ ____
ROOT
ATOM      1  C   UNL     1       4.946   6.263  17.756  0.00  0.00    +0.000 C 
ENDROOT
BRANCH   1   9
ATOM      2  N   UNL     1       0.923   2.035  18.596  0.00  0.00    +0.000 N 
ATOM      3  C   UNL     1       2.277   2.073  18.653  0.00  0.00    +0.000 C 
ATOM      4  O   UNL     1       2.876   1.098  19.096  0.00  0.00    +0.000 OA
ATOM      5  N   UNL     1       2.878   3.221  18.191  0.00  0.00    +0.000 N 
ATOM      6  C   UNL     1       2.164   4.433  17.807  0.00  0.00    +0.000 C 
ATOM      7  C   UNL     1       2.039   5.466  18.920  0.00  0.00    +0.000 C 
ATOM      8  C   UNL     1       3.311   5.938  19.640  0.00  0.00    +0.000 C 
ATOM      9  N   UNL     1       4.632   5.682  19.072  0.00  0.00    +0.000 NA
ATOM     10  C   UNL     1       4.984   4.251  19.172  0.00  0.00    +0.000 C 
ATOM     11  C   UNL     1       4.344   3.275  18.163  0.00  0.00    +0.000 C 
ATOM     12  H   UNL     1       0.567   1.131  18.879  0.00  0.00    +0.000 HD
ATOM     13  H   UNL     1       0.498   2.364  17.743  0.00  0.00    +0.000 HD
ENDBRANCH   1   9
BRANCH   1  14
ATOM     14  C   UNL     1       6.383   6.107  17.171  0.00  0.00    +0.000 C 
BRANCH  14  15
ATOM     15  C   UNL     1       6.329   5.342  15.852  0.00  0.00    +0.000 A 
ATOM     16  C   UNL     1       5.135   4.748  15.424  0.00  0.00    +0.000 A 
ATOM     17  C   UNL     1       5.070   4.073  14.201  0.00  0.00    +0.000 A 
ATOM     18  C   UNL     1       6.199   3.976  13.376  0.00  0.00    +0.000 A 
ATOM     19  C   UNL     1       7.399   4.561  13.802  0.00  0.00    +0.000 A 
ATOM     20  C   UNL     1       7.462   5.235  15.024  0.00  0.00    +0.000 A 
BRANCH  18  21
ATOM     21  C   UNL     1       6.150   3.263  12.046  0.00  0.00    +0.000 C 
ATOM     22  F   UNL     1       7.336   3.275  11.373  0.00  0.00    +0.000 F 
ATOM     23  F   UNL     1       5.804   1.951  12.174  0.00  0.00    +0.000 F 
ATOM     24  F   UNL     1       5.233   3.807  11.197  0.00  0.00    +0.000 F 
ENDBRANCH  18  21
ENDBRANCH  14  15
BRANCH  14  25
ATOM     25  O   UNL     1       7.030   7.354  16.919  0.00  0.00    +0.000 OA
ATOM     26  H   UNL     1       7.865   7.361  17.408  0.00  0.00    +0.000 HD
ENDBRANCH  14  25
ENDBRANCH   1  14
TORSDOF 5
ENDMDL
MODEL 6
REMARK VINA RESULT:      -7.5      2.175      3.031
REMARK  Name = 
REMARK  5 active torsions:
REMARK  status: ('A' for Active; 'I' for Inactive)
REMARK    1  A    between atoms: N_8  and  C_9
REMARK    2  A    between atoms: C_9  and  C_10
REMARK    3  A    between atoms: C_10  and  O_11
REMARK    4  A    between atoms: C_10  and  C_12
REMARK    5  A    between atoms: C_15  and  C_16
REMARK                            x       y       z     vdW  Elec       q    Type
REMARK                         _______ _______ _______ _____ _____    ______ ____
ROOT
ATOM      1  C   UNL     1       3.492   4.415  16.970  0.00  0.00    +0.000 C 
ENDROOT
BRANCH   1   9
ATOM      2  N   UNL     1       8.449   6.903  18.972  0.00  0.00    +0.000 N 
ATOM      3  C   UNL     1       7.629   5.927  19.436  0.00  0.00    +0.000 C 
ATOM      4  O   UNL     1       7.986   5.271  20.409  0.00  0.00    +0.000 OA
ATOM      5  N   UNL     1       6.438   5.759  18.768  0.00  0.00    +0.000 N 
ATOM      6  C   UNL     1       6.081   6.433  17.526  0.00  0.00    +0.000 C 
ATOM      7  C   UNL     1       6.399   5.637  16.267  0.00  0.00    +0.000 C 
ATOM      8  C   UNL     1       5.856   4.206  16.138  0.00  0.00    +0.000 C 
ATOM      9  N   UNL     1       4.792   3.727  17.016  0.00  0.00    +0.000 NA
ATOM     10  C   UNL     1       5.291   3.522  18.392  0.00  0.00    +0.000 C 
ATOM     11  C   UNL     1       5.488   4.766  19.282  0.00  0.00    +0.000 C 
ATOM     12  H   UNL     1       9.262   7.013  19.564  0.00  0.00    +0.000 HD
ATOM     13  H   UNL     1       8.016   7.785  18.746  0.00  0.00    +0.000 HD
ENDBRANCH   1   9
BRANCH   1  14
ATOM     14  C   UNL     1       2.405   4.077  18.037  0.00  0.00    +0.000 C 
BRANCH  14  15
ATOM     15  C   UNL     1       2.124   5.302  18.901  0.00  0.00    +0.000 A 
ATOM     16  C   UNL     1       2.325   6.591  18.393  0.00  0.00    +0.000 A 
ATOM     17  C   UNL     1       2.038   7.719  19.169  0.00  0.00    +0.000 A 
ATOM     18  C   UNL     1       1.542   7.584  20.473  0.00  0.00    +0.000 A 
ATOM     19  C   UNL     1       1.346   6.297  20.990  0.00  0.00    +0.000 A 
ATOM     20  C   UNL     1       1.633   5.171  20.214  0.00  0.00    +0.000 A 
BRANCH  18  21
ATOM     21  C   UNL     1       1.214   8.787  21.324  0.00  0.00    +0.000 C 
ATOM     22  F   UNL     1       2.040   8.939  22.399  0.00  0.00    +0.000 F 
ATOM     23  F   UNL     1       1.289   9.953  20.624  0.00  0.00    +0.000 F 
ATOM     24  F   UNL     1      -0.051   8.738  21.830  0.00  0.00    +0.000 F 
ENDBRANCH  18  21
ENDBRANCH  14  15
BRANCH  14  25
ATOM     25  O   UNL     1       1.165   3.658  17.468  0.00  0.00    +0.000 OA
ATOM     26  H   UNL     1       1.357   2.998  16.787  0.00  0.00    +0.000 HD
ENDBRANCH  14  25
ENDBRANCH   1  14
TORSDOF 5
ENDMDL
MODEL 7
REMARK VINA RESULT:      -7.4      5.401      7.705
REMARK  Name = 
REMARK  5 active torsions:
REMARK  status: ('A' for Active; 'I' for Inactive)
REMARK    1  A    between atoms: N_8  and  C_9
REMARK    2  A    between atoms: C_9  and  C_10
REMARK    3  A    between atoms: C_10  and  O_11
REMARK    4  A    between atoms: C_10  and  C_12
REMARK    5  A    between atoms: C_15  and  C_16
REMARK                            x       y       z     vdW  Elec       q    Type
REMARK                         _______ _______ _______ _____ _____    ______ ____
ROOT
ATOM      1  C   UNL     1       5.747   4.549  18.414  0.00  0.00    +0.000 C 
ENDROOT
BRANCH   1   9
ATOM      2  N   UNL     1       0.495   1.898  18.816  0.00  0.00    +0.000 N 
ATOM      3  C   UNL     1       1.339   2.461  19.716  0.00  0.00    +0.000 C 
ATOM      4  O   UNL     1       0.951   2.618  20.869  0.00  0.00    +0.000 OA
ATOM      5  N   UNL     1       2.587   2.808  19.252  0.00  0.00    +0.000 N 
ATOM      6  C   UNL     1       2.994   2.761  17.853  0.00  0.00    +0.000 C 
ATOM      7  C   UNL     1       2.829   4.079  17.108  0.00  0.00    +0.000 C 
ATOM      8  C   UNL     1       3.474   5.346  17.690  0.00  0.00    +0.000 C 
ATOM      9  N   UNL     1       4.495   5.256  18.730  0.00  0.00    +0.000 NA
ATOM     10  C   UNL     1       3.905   4.842  20.019  0.00  0.00    +0.000 C 
ATOM     11  C   UNL     1       3.557   3.351  20.210  0.00  0.00    +0.000 C 
ATOM     12  H   UNL     1      -0.368   1.602  19.254  0.00  0.00    +0.000 HD
ATOM     13  H   UNL     1       0.885   1.186  18.217  0.00  0.00    +0.000 HD
ENDBRANCH   1   9
BRANCH   1  14
ATOM     14  C   UNL     1       6.850   5.274  17.584  0.00  0.00    +0.000 C 
BRANCH  14  15
ATOM     15  C   UNL     1       6.783   4.830  16.126  0.00  0.00    +0.000 A 
ATOM     16  C   UNL     1       5.918   3.800  15.736  0.00  0.00    +0.000 A 
ATOM     17  C   UNL     1       5.828   3.410  14.397  0.00  0.00    +0.000 A 
ATOM     18  C   UNL     1       6.601   4.042  13.413  0.00  0.00    +0.000 A 
ATOM     19  C   UNL     1       7.474   5.068  13.797  0.00  0.00    +0.000 A 
ATOM     20  C   UNL     1       7.563   5.456  15.136  0.00  0.00    +0.000 A 
BRANCH  18  21
ATOM     21  C   UNL     1       6.511   3.646  11.959  0.00  0.00    +0.000 C 
ATOM     22  F   UNL     1       7.098   4.538  11.111  0.00  0.00    +0.000 F 
ATOM     23  F   UNL     1       7.105   2.445  11.711  0.00  0.00    +0.000 F 
ATOM     24  F   UNL     1       5.223   3.517  11.532  0.00  0.00    +0.000 F 
ENDBRANCH  18  21
ENDBRANCH  14  15
BRANCH  14  25
ATOM     25  O   UNL     1       6.732   6.696  17.606  0.00  0.00    +0.000 OA
ATOM     26  H   UNL     1       6.001   6.944  17.023  0.00  0.00    +0.000 HD
ENDBRANCH  14  25
ENDBRANCH   1  14
TORSDOF 5
ENDMDL
MODEL 8
REMARK VINA RESULT:      -7.4      1.083      1.706
REMARK  Name = 
REMARK  5 active torsions:
REMARK  status: ('A' for Active; 'I' for Inactive)
REMARK    1  A    between atoms: N_8  and  C_9
REMARK    2  A    between atoms: C_9  and  C_10
REMARK    3  A    between atoms: C_10  and  O_11
REMARK    4  A    between atoms: C_10  and  C_12
REMARK    5  A    between atoms: C_15  and  C_16
REMARK                            x       y       z     vdW  Elec       q    Type
REMARK                         _______ _______ _______ _____ _____    ______ ____
ROOT
ATOM      1  C   UNL     1       2.624   4.349  18.591  0.00  0.00    +0.000 C 
ENDROOT
BRANCH   1   9
ATOM      2  N   UNL     1       7.666   6.624  16.548  0.00  0.00    +0.000 N 
ATOM      3  C   UNL     1       7.241   6.220  17.771  0.00  0.00    +0.000 C 
ATOM      4  O   UNL     1       8.055   6.153  18.686  0.00  0.00    +0.000 OA
ATOM      5  N   UNL     1       5.902   5.923  17.887  0.00  0.00    +0.000 N 
ATOM      6  C   UNL     1       4.968   5.858  16.770  0.00  0.00    +0.000 C 
ATOM      7  C   UNL     1       4.782   4.462  16.189  0.00  0.00    +0.000 C 
ATOM      8  C   UNL     1       4.390   3.313  17.130  0.00  0.00    +0.000 C 
ATOM      9  N   UNL     1       3.877   3.586  18.470  0.00  0.00    +0.000 NA
ATOM     10  C   UNL     1       4.947   4.084  19.358  0.00  0.00    +0.000 C 
ATOM     11  C   UNL     1       5.384   5.556  19.209  0.00  0.00    +0.000 C 
ATOM     12  H   UNL     1       8.641   6.897  16.569  0.00  0.00    +0.000 HD
ATOM     13  H   UNL     1       7.089   7.298  16.070  0.00  0.00    +0.000 HD
ENDBRANCH   1   9
BRANCH   1  14
ATOM     14  C   UNL     1       2.291   5.072  19.933  0.00  0.00    +0.000 C 
BRANCH  14  15
ATOM     15  C   UNL     1       2.015   6.550  19.675  0.00  0.00    +0.000 A 
ATOM     16  C   UNL     1       2.210   7.097  18.401  0.00  0.00    +0.000 A 
ATOM     17  C   UNL     1       1.929   8.444  18.150  0.00  0.00    +0.000 A 
ATOM     18  C   UNL     1       1.444   9.276  19.168  0.00  0.00    +0.000 A 
ATOM     19  C   UNL     1       1.254   8.736  20.448  0.00  0.00    +0.000 A 
ATOM     20  C   UNL     1       1.536   7.391  20.696  0.00  0.00    +0.000 A 
BRANCH  18  21
ATOM     21  C   UNL     1       1.121  10.729  18.918  0.00  0.00    +0.000 C 
ATOM     22  F   UNL     1      -0.065  10.923  18.273  0.00  0.00    +0.000 F 
ATOM     23  F   UNL     1       1.045  11.449  20.071  0.00  0.00    +0.000 F 
ATOM     24  F   UNL     1       2.066  11.349  18.155  0.00  0.00    +0.000 F 
ENDBRANCH  18  21
ENDBRANCH  14  15
BRANCH  14  25
ATOM     25  O   UNL     1       1.151   4.531  20.599  0.00  0.00    +0.000 OA
ATOM     26  H   UNL     1       0.380   5.057  20.345  0.00  0.00    +0.000 HD
ENDBRANCH  14  25
ENDBRANCH   1  14
TORSDOF 5
ENDMDL
MODEL 9
REMARK VINA RESULT:      -7.3      5.290      7.525
REMARK  Name = 
REMARK  5 active torsions:
REMARK  status: ('A' for Active; 'I' for Inactive)
REMARK    1  A    between atoms: N_8  and  C_9
REMARK    2  A    between atoms: C_9  and  C_10
REMARK    3  A    between atoms: C_10  and  O_11
REMARK    4  A    between atoms: C_10  and  C_12
REMARK    5  A    between atoms: C_15  and  C_16
REMARK                            x       y       z     vdW  Elec       q    Type
REMARK                         _______ _______ _______ _____ _____    ______ ____
ROOT
ATOM      1  C   UNL     1       4.884   6.327  17.836  0.00  0.00    +0.000 C 
ENDROOT
BRANCH   1   9
ATOM      2  N   UNL     1       1.059   1.894  18.532  0.00  0.00    +0.000 N 
ATOM      3  C   UNL     1       2.409   1.996  18.609  0.00  0.00    +0.000 C 
ATOM      4  O   UNL     1       3.048   1.042  19.040  0.00  0.00    +0.000 OA
ATOM      5  N   UNL     1       2.959   3.181  18.179  0.00  0.00    +0.000 N 
ATOM      6  C   UNL     1       2.193   4.365  17.809  0.00  0.00    +0.000 C 
ATOM      7  C   UNL     1       2.004   5.367  18.941  0.00  0.00    +0.000 C 
ATOM      8  C   UNL     1       3.242   5.885  19.688  0.00  0.00    +0.000 C 
ATOM      9  N   UNL     1       4.580   5.704  19.134  0.00  0.00    +0.000 NA
ATOM     10  C   UNL     1       5.000   4.290  19.211  0.00  0.00    +0.000 C 
ATOM     11  C   UNL     1       4.421   3.306  18.173  0.00  0.00    +0.000 C 
ATOM     12  H   UNL     1       0.743   0.968  18.791  0.00  0.00    +0.000 HD
ATOM     13  H   UNL     1       0.630   2.221  17.680  0.00  0.00    +0.000 HD
ENDBRANCH   1   9
BRANCH   1  14
ATOM     14  C   UNL     1       6.331   6.242  17.262  0.00  0.00    +0.000 C 
BRANCH  14  15
ATOM     15  C   UNL     1       6.316   5.538  15.908  0.00  0.00    +0.000 A 
ATOM     16  C   UNL     1       7.494   5.408  15.163  0.00  0.00    +0.000 A 
ATOM     17  C   UNL     1       7.494   4.736  13.936  0.00  0.00    +0.000 A 
ATOM     18  C   UNL     1       6.314   4.178  13.426  0.00  0.00    +0.000 A 
ATOM     19  C   UNL     1       5.130   4.311  14.163  0.00  0.00    +0.000 A 
ATOM     20  C   UNL     1       5.133   4.982  15.388  0.00  0.00    +0.000 A 
BRANCH  18  21
ATOM     21  C   UNL     1       6.293   3.438  12.110  0.00  0.00    +0.000 C 
ATOM     22  F   UNL     1       7.091   3.995  11.154  0.00  0.00    +0.000 F 
ATOM     23  F   UNL     1       6.704   2.146  12.236  0.00  0.00    +0.000 F 
ATOM     24  F   UNL     1       5.044   3.378  11.566  0.00  0.00    +0.000 F 
ENDBRANCH  18  21
ENDBRANCH  14  15
BRANCH  14  25
ATOM     25  O   UNL     1       6.943   7.518  17.077  0.00  0.00    +0.000 OA
ATOM     26  H   UNL     1       7.786   7.517  17.552  0.00  0.00    +0.000 HD
ENDBRANCH  14  25
ENDBRANCH   1  14
TORSDOF 5
ENDMDL
